TITL C-884141-4321-495 13.8861791986766 125000 -23835.3430708943 0 0 158 (C1) n - 1
REM
REM in /home/nfs/bkarasulu/CARBON/AIRSS/Generating-Clusters/ReaxFF-fromJPCA2015/Units_Real/with-SteepDescent/Only-C1/SD-CG/Try1-3A/FIRE-CG
REM
REM
REM
REM
REM
REM ./C.cell (11c1c37f851c82e70ff6c80c92926a4b)
REM
REM compiler GCC version 9.2.1 20190827 (Red Hat 9.2.1-1)
REM options -cpp -mtune=generic -march=x86-64 -g -O0 -fpre-include=/usr/include/finclude/math-vector-fortran.h
REM seed -823948849 -1819449101 106619039 1324648514 2102574302 1570846633 262983893 -1901175621 64181705 -1555523436 1047717201 -195225680 657883729 2023158647 692798543 1201892513 -1779610900 -1804161487 -530944054 307571413 -826795019 1246877636 -677580419 1463799042 912750895 -1073183048 673300113 -948147358 1296672705 -1050380268 121988159 -140516299 -45061978
REM
CELL 1.54180   50.00000   50.00000   50.00000   90.00000   90.00000   90.00000
LATT -1
SFAC C  
C      1  0.5572260000000  0.5614620000000  0.5714590000000 1.0
C      1  0.5478100000000  0.4940600000000  0.5815900000000 1.0
C      1  0.5061570000000  0.6063620000000  0.5266680000000 1.0
C      1  0.5395540000000  0.5462070000000  0.4855090000000 1.0
C      1  0.4564720000000  0.4515880000000  0.5537660000000 1.0
C      1  0.5627970000000  0.5055850000000  0.5252060000000 1.0
C      1  0.5015000000000  0.4739880000000  0.5569760000000 1.0
C      1  0.4816800000000  0.4939290000000  0.6051570000000 1.0
C      1  0.4876990000000  0.4840130000000  0.4041670000000 1.0
C      1  0.4622170000000  0.5839400000000  0.5447350000000 1.0
C      1  0.5296000000000  0.5548470000000  0.5112160000000 1.0
C      1  0.4093550000000  0.5275700000000  0.4388630000000 1.0
C      1  0.4977190000000  0.4566540000000  0.4030590000000 1.0
C      1  0.6036730000000  0.4767480000000  0.5025490000000 1.0
C      1  0.4734560000000  0.5634490000000  0.4117980000000 1.0
C      1  0.4237230000000  0.4875640000000  0.5640210000000 1.0
C      1  0.4838950000000  0.4557020000000  0.5433190000000 1.0
C      1  0.4549510000000  0.5203810000000  0.4388120000000 1.0
C      1  0.4617020000000  0.4835890000000  0.4655070000000 1.0
C      1  0.4812790000000  0.4545180000000  0.5106340000000 1.0
C      1  0.4446310000000  0.4690190000000  0.5744210000000 1.0
C      1  0.5014070000000  0.4352110000000  0.5910160000000 1.0
C      1  0.4230830000000  0.5138080000000  0.5775690000000 1.0
C      1  0.5879010000000  0.5297380000000  0.4542480000000 1.0
C      1  0.5541800000000  0.4220670000000  0.5332780000000 1.0
C      1  0.4190770000000  0.4566140000000  0.4575630000000 1.0
C      1  0.4839210000000  0.5214950000000  0.4389710000000 1.0
C      1  0.5616770000000  0.4472240000000  0.5763420000000 1.0
C      1  0.4544210000000  0.5109360000000  0.4630690000000 1.0
C      1  0.5358410000000  0.5224870000000  0.4684470000000 1.0
C      1  0.4789900000000  0.5156670000000  0.5847020000000 1.0
C      1  0.3931880000000  0.4787010000000  0.4216390000000 1.0
C      1  0.4327930000000  0.5223290000000  0.4222370000000 1.0
C      1  0.5440730000000  0.5224870000000  0.4402150000000 1.0
C      1  0.5177230000000  0.5968530000000  0.4789040000000 1.0
C      1  0.4303210000000  0.4401930000000  0.4922840000000 1.0
C      1  0.5290600000000  0.4823290000000  0.3906620000000 1.0
C      1  0.5372130000000  0.5093500000000  0.5344910000000 1.0
C      1  0.5767500000000  0.5754160000000  0.4961660000000 1.0
C      1  0.4444550000000  0.5678410000000  0.4227780000000 1.0
C      1  0.5082590000000  0.4850340000000  0.6102830000000 1.0
C      1  0.4984740000000  0.5237580000000  0.5080100000000 1.0
C      1  0.4896930000000  0.5362360000000  0.4634160000000 1.0
C      1  0.5660700000000  0.5487420000000  0.4961190000000 1.0
C      1  0.4879410000000  0.5933420000000  0.4824100000000 1.0
C      1  0.6062680000000  0.4951000000000  0.5246130000000 1.0
C      1  0.4970580000000  0.4215620000000  0.4411780000000 1.0
C      1  0.5303370000000  0.5721290000000  0.5770120000000 1.0
C      1  0.4911800000000  0.4841520000000  0.5141810000000 1.0
C      1  0.5709640000000  0.5106570000000  0.4367180000000 1.0
C      1  0.4844480000000  0.4114810000000  0.4650060000000 1.0
C      1  0.5339590000000  0.4067820000000  0.4861680000000 1.0
C      1  0.5779080000000  0.4690500000000  0.5681650000000 1.0
C      1  0.5589750000000  0.5404040000000  0.5919700000000 1.0
C      1  0.4533180000000  0.4417990000000  0.4097440000000 1.0
C      1  0.4594110000000  0.4892660000000  0.3975640000000 1.0
C      1  0.5764280000000  0.4818410000000  0.4318300000000 1.0
C      1  0.5771060000000  0.5555200000000  0.4583890000000 1.0
C      1  0.4113570000000  0.4833650000000  0.5378370000000 1.0
C      1  0.5259790000000  0.6036890000000  0.5067890000000 1.0
C      1  0.4523630000000  0.4559360000000  0.5019210000000 1.0
C      1  0.5100020000000  0.5785250000000  0.5571560000000 1.0
C      1  0.4958670000000  0.5394650000000  0.5798580000000 1.0
C      1  0.5483620000000  0.4684510000000  0.5344630000000 1.0
C      1  0.5265090000000  0.4554570000000  0.3983790000000 1.0
C      1  0.4834300000000  0.5377440000000  0.3989600000000 1.0
C      1  0.6027620000000  0.5237160000000  0.5203510000000 1.0
C      1  0.4990450000000  0.4051120000000  0.5478300000000 1.0
C      1  0.5512730000000  0.4029650000000  0.5099890000000 1.0
C      1  0.5390240000000  0.4717190000000  0.4788770000000 1.0
C      1  0.4365480000000  0.4384090000000  0.5372010000000 1.0
C      1  0.5392200000000  0.5808470000000  0.5213610000000 1.0
C      1  0.4622210000000  0.4717760000000  0.5984410000000 1.0
C      1  0.4769120000000  0.5721710000000  0.5006460000000 1.0
C      1  0.4474110000000  0.5257960000000  0.4858960000000 1.0
C      1  0.4564010000000  0.4170910000000  0.4696060000000 1.0
C      1  0.5652050000000  0.4546320000000  0.4311680000000 1.0
C      1  0.4896020000000  0.5460130000000  0.4907640000000 1.0
C      1  0.4543210000000  0.5827040000000  0.4433600000000 1.0
C      1  0.5262510000000  0.4239940000000  0.4391720000000 1.0
C      1  0.5419220000000  0.4272400000000  0.5588810000000 1.0
C      1  0.4469350000000  0.5314280000000  0.5730290000000 1.0
C      1  0.4200130000000  0.5525270000000  0.5417780000000 1.0
C      1  0.5831580000000  0.4802200000000  0.4602490000000 1.0
C      1  0.5895640000000  0.5161010000000  0.5623700000000 1.0
C      1  0.5052690000000  0.5002260000000  0.4968640000000 1.0
C      1  0.5267730000000  0.5106200000000  0.3863130000000 1.0
C      1  0.4695990000000  0.5896630000000  0.4626040000000 1.0
C      1  0.5136280000000  0.5337860000000  0.4010950000000 1.0
C      1  0.4844150000000  0.4969970000000  0.5604520000000 1.0
C      1  0.5634410000000  0.5776760000000  0.4687040000000 1.0
C      1  0.5632800000000  0.4632660000000  0.4700910000000 1.0
C      1  0.4957150000000  0.4936650000000  0.4317990000000 1.0
C      1  0.5684480000000  0.5789170000000  0.5245580000000 1.0
C      1  0.4708980000000  0.4008550000000  0.5343680000000 1.0
C      1  0.4509280000000  0.5386430000000  0.5424630000000 1.0
C      1  0.4014430000000  0.5330820000000  0.5264500000000 1.0
C      1  0.4347040000000  0.5527410000000  0.4849620000000 1.0
C      1  0.5168020000000  0.5520210000000  0.5947170000000 1.0
C      1  0.5432410000000  0.4181910000000  0.4616380000000 1.0
C      1  0.4642610000000  0.4604680000000  0.4473310000000 1.0
C      1  0.4553960000000  0.5170490000000  0.5246490000000 1.0
C      1  0.4984410000000  0.5506680000000  0.5518120000000 1.0
C      1  0.4378110000000  0.5779810000000  0.5303580000000 1.0
C      1  0.4971390000000  0.5691990000000  0.4254160000000 1.0
C      1  0.4044300000000  0.4714410000000  0.4793010000000 1.0
C      1  0.5675580000000  0.4373720000000  0.4593380000000 1.0
C      1  0.3991160000000  0.5511500000000  0.5058680000000 1.0
C      1  0.4021220000000  0.5225550000000  0.4668260000000 1.0
C      1  0.5301330000000  0.5429800000000  0.4232730000000 1.0
C      1  0.4950820000000  0.3988430000000  0.5202230000000 1.0
C      1  0.4724910000000  0.5575320000000  0.5384620000000 1.0
C      1  0.4011770000000  0.4999100000000  0.4855570000000 1.0
C      1  0.5933310000000  0.5382600000000  0.5444630000000 1.0
C      1  0.5745050000000  0.5611070000000  0.5471980000000 1.0
C      1  0.5345950000000  0.5827940000000  0.4609660000000 1.0
C      1  0.5224660000000  0.5692070000000  0.4363930000000 1.0
C      1  0.4818630000000  0.4434790000000  0.4255790000000 1.0
C      1  0.5350610000000  0.5324440000000  0.6062510000000 1.0
C      1  0.5794130000000  0.5243720000000  0.5028020000000 1.0
C      1  0.4503520000000  0.4816250000000  0.4910780000000 1.0
C      1  0.4778600000000  0.4495850000000  0.5926470000000 1.0
C      1  0.5045550000000  0.4758120000000  0.4510290000000 1.0
C      1  0.4894460000000  0.5981540000000  0.5477240000000 1.0
C      1  0.5036290000000  0.4116160000000  0.4914270000000 1.0
C      1  0.4222360000000  0.5487440000000  0.4237680000000 1.0
C      1  0.4136190000000  0.4560020000000  0.5290610000000 1.0
C      1  0.5307210000000  0.5028960000000  0.6031440000000 1.0
C      1  0.4638310000000  0.5169730000000  0.3967890000000 1.0
C      1  0.4048430000000  0.4521620000000  0.5014150000000 1.0
C      1  0.5848960000000  0.4909930000000  0.5457830000000 1.0
C      1  0.5147940000000  0.4220430000000  0.5655840000000 1.0
C      1  0.5296810000000  0.4981430000000  0.4834180000000 1.0
C      1  0.5412140000000  0.4430170000000  0.4210730000000 1.0
C      1  0.5896160000000  0.4510180000000  0.5050020000000 1.0
C      1  0.4470390000000  0.5723220000000  0.5034630000000 1.0
C      1  0.5650630000000  0.4487220000000  0.5237730000000 1.0
C      1  0.4475750000000  0.4150150000000  0.5233800000000 1.0
C      1  0.4157030000000  0.4686850000000  0.4289940000000 1.0
C      1  0.5883790000000  0.4318880000000  0.4831620000000 1.0
C      1  0.5976750000000  0.5184670000000  0.4797980000000 1.0
C      1  0.5138650000000  0.4577810000000  0.4708070000000 1.0
C      1  0.4403450000000  0.4670350000000  0.4078600000000 1.0
C      1  0.4417310000000  0.4131120000000  0.4945680000000 1.0
C      1  0.4056760000000  0.5498500000000  0.4787260000000 1.0
C      1  0.4747490000000  0.4987740000000  0.5340100000000 1.0
C      1  0.4394020000000  0.5058360000000  0.5043860000000 1.0
C      1  0.5007120000000  0.4411690000000  0.4916960000000 1.0
C      1  0.4198820000000  0.5415240000000  0.5700340000000 1.0
C      1  0.5690080000000  0.5141480000000  0.5826390000000 1.0
C      1  0.5176090000000  0.5339700000000  0.5285810000000 1.0
C      1  0.5165390000000  0.4555160000000  0.6080920000000 1.0
C      1  0.6015600000000  0.4910140000000  0.4780270000000 1.0
C      1  0.4442490000000  0.4409960000000  0.4544040000000 1.0
C      1  0.5747960000000  0.4119490000000  0.4973320000000 1.0
C      1  0.4064100000000  0.5045810000000  0.5158750000000 1.0
C      1  0.5323820000000  0.4838770000000  0.5539140000000 1.0
C      1  0.5407580000000  0.4499530000000  0.5952740000000 1.0
END
