TITL C-883740-3686-26 5975877.46698472 125000 -18461.8808671545 0 0 125 (C1) n - 1
REM
REM in /home/nfs/bkarasulu/CARBON/AIRSS/Generating-Clusters/ReaxFF-fromJPCA2015/Units_Real/with-SteepDescent/Only-C1/SD-CG/Try1-3A/FIRE-CG
REM
REM
REM
REM
REM
REM ./C.cell (11c1c37f851c82e70ff6c80c92926a4b)
REM
REM compiler GCC version 9.2.1 20190827 (Red Hat 9.2.1-1)
REM options -cpp -mtune=generic -march=x86-64 -g -O0 -fpre-include=/usr/include/finclude/math-vector-fortran.h
REM seed 680744511 758262 -982609265 -1917374185 99459379 -884319235 -3937227 -966810567 312598543 -738771351 -1549407474 1521384273 -1516557389 -1466235715 -1846760328 -259779129 1676688350 -2028098849 1119066858 2125696940 -1785978250 -646633035 -550700053 -1595894033 714764987 53173633 -142990526 -1323435766 -377872911 873179430 -1662546749 -1008508475 1576583382
REM
CELL 1.54180   50.00000   50.00000   50.00000   90.00000   90.00000   90.00000
LATT -1
SFAC C  
C      1  0.5558870000000  0.4826680000000  0.4201870000000 1.0
C      1  0.5134410000000  0.4915700000000  0.4526050000000 1.0
C      1  0.4494010000000  0.4234630000000  0.5358340000000 1.0
C      1  0.4217370000000  0.4964400000000  0.4568930000000 1.0
C      1  0.5145950000000  0.4007630000000  0.5125280000000 1.0
C      1  0.5720940000000  0.4673100000000  0.4389620000000 1.0
C      1  0.5069910000000  0.5808200000000  0.4450590000000 1.0
C      1  0.4556550000000  0.5133700000000  0.5483350000000 1.0
C      1  0.4634330000000  0.4328680000000  0.4674200000000 1.0
C      1  0.4877020000000  0.5595800000000  0.4502810000000 1.0
C      1  0.5958890000000  0.5296100000000  0.5151330000000 1.0
C      1  0.4747150000000  0.4602290000000  0.4297170000000 1.0
C      1  0.5634930000000  0.4702280000000  0.5548980000000 1.0
C      1  0.5153790000000  0.4106690000000  0.4626550000000 1.0
C      1  0.4652570000000  0.5631650000000  0.5644820000000 1.0
C      1  0.5257390000000  0.5862550000000  0.5017740000000 1.0
C      1  0.5429290000000  0.4103650000000  0.5185080000000 1.0
C      1  0.4284310000000  0.5107020000000  0.5164550000000 1.0
C      1  0.4816230000000  0.5492210000000  0.4979650000000 1.0
C      1  0.4792050000000  0.5119610000000  0.4328680000000 1.0
C      1  0.5619800000000  0.4263430000000  0.4631380000000 1.0
C      1  0.4309650000000  0.4379160000000  0.5462230000000 1.0
C      1  0.4509850000000  0.5853320000000  0.4798630000000 1.0
C      1  0.5274800000000  0.5170120000000  0.4577750000000 1.0
C      1  0.5516900000000  0.5115220000000  0.4237250000000 1.0
C      1  0.5816380000000  0.5542800000000  0.5058940000000 1.0
C      1  0.4108070000000  0.4766850000000  0.4994600000000 1.0
C      1  0.3983530000000  0.5344710000000  0.5394250000000 1.0
C      1  0.5055690000000  0.4686710000000  0.5170370000000 1.0
C      1  0.4738810000000  0.5032590000000  0.4612550000000 1.0
C      1  0.5672190000000  0.5132140000000  0.4918820000000 1.0
C      1  0.4407620000000  0.4509180000000  0.4689290000000 1.0
C      1  0.5518900000000  0.5243950000000  0.5141040000000 1.0
C      1  0.5573060000000  0.4906300000000  0.4793210000000 1.0
C      1  0.5653340000000  0.5484130000000  0.4561020000000 1.0
C      1  0.4995980000000  0.4764640000000  0.4326320000000 1.0
C      1  0.4314440000000  0.5196690000000  0.4384750000000 1.0
C      1  0.5790930000000  0.4785760000000  0.4655390000000 1.0
C      1  0.4955180000000  0.5011680000000  0.6049690000000 1.0
C      1  0.5394750000000  0.4622730000000  0.5767820000000 1.0
C      1  0.4973210000000  0.5975200000000  0.5094090000000 1.0
C      1  0.5324280000000  0.5604480000000  0.5107880000000 1.0
C      1  0.4739760000000  0.5937730000000  0.4943130000000 1.0
C      1  0.4167520000000  0.5651230000000  0.5190010000000 1.0
C      1  0.5258870000000  0.5123610000000  0.5176430000000 1.0
C      1  0.5843510000000  0.4838620000000  0.5390470000000 1.0
C      1  0.5357510000000  0.4277190000000  0.4779050000000 1.0
C      1  0.5054190000000  0.5609940000000  0.4241100000000 1.0
C      1  0.4553280000000  0.5653600000000  0.4564830000000 1.0
C      1  0.4977730000000  0.4094370000000  0.5342800000000 1.0
C      1  0.5086330000000  0.4273400000000  0.4396670000000 1.0
C      1  0.5095000000000  0.4842880000000  0.4062080000000 1.0
C      1  0.4386160000000  0.4692360000000  0.4924520000000 1.0
C      1  0.4941180000000  0.4915450000000  0.5308000000000 1.0
C      1  0.3959130000000  0.5232730000000  0.4929270000000 1.0
C      1  0.5115730000000  0.5545650000000  0.5672650000000 1.0
C      1  0.4993710000000  0.5547490000000  0.4763190000000 1.0
C      1  0.5312210000000  0.4422880000000  0.4270810000000 1.0
C      1  0.5162090000000  0.4277870000000  0.5499160000000 1.0
C      1  0.4139070000000  0.4600860000000  0.5502720000000 1.0
C      1  0.4048940000000  0.4789700000000  0.5277640000000 1.0
C      1  0.4725050000000  0.4615100000000  0.5481210000000 1.0
C      1  0.5566380000000  0.5196640000000  0.4517510000000 1.0
C      1  0.5573820000000  0.5523550000000  0.5222310000000 1.0
C      1  0.5349320000000  0.5842950000000  0.4533180000000 1.0
C      1  0.4523600000000  0.5044200000000  0.4240950000000 1.0
C      1  0.5362200000000  0.4639720000000  0.5213010000000 1.0
C      1  0.5724080000000  0.5259960000000  0.5598630000000 1.0
C      1  0.5105890000000  0.5119420000000  0.5415960000000 1.0
C      1  0.4484770000000  0.4968390000000  0.4765880000000 1.0
C      1  0.5299680000000  0.4890750000000  0.5720050000000 1.0
C      1  0.5680990000000  0.4053120000000  0.5044230000000 1.0
C      1  0.5022830000000  0.5119480000000  0.4133210000000 1.0
C      1  0.4887890000000  0.4966490000000  0.4854080000000 1.0
C      1  0.4494320000000  0.4746220000000  0.4270440000000 1.0
C      1  0.4446060000000  0.5187830000000  0.4988160000000 1.0
C      1  0.4661330000000  0.4965930000000  0.5273350000000 1.0
C      1  0.4867840000000  0.5841920000000  0.5338010000000 1.0
C      1  0.4451120000000  0.4878430000000  0.5864080000000 1.0
C      1  0.4778660000000  0.4250750000000  0.4935150000000 1.0
C      1  0.5210640000000  0.4512660000000  0.4783370000000 1.0
C      1  0.5586230000000  0.4414470000000  0.4386290000000 1.0
C      1  0.5383100000000  0.4351010000000  0.5329030000000 1.0
C      1  0.4420720000000  0.5487970000000  0.5651290000000 1.0
C      1  0.3949750000000  0.5448060000000  0.5117580000000 1.0
C      1  0.4870660000000  0.4602590000000  0.5719400000000 1.0
C      1  0.4843360000000  0.4535110000000  0.5073260000000 1.0
C      1  0.5982650000000  0.4825760000000  0.4879080000000 1.0
C      1  0.5424180000000  0.4869050000000  0.5447410000000 1.0
C      1  0.5841120000000  0.4726200000000  0.5113640000000 1.0
C      1  0.4799760000000  0.4352000000000  0.4434770000000 1.0
C      1  0.5076910000000  0.4752600000000  0.4757870000000 1.0
C      1  0.5885330000000  0.5134770000000  0.5399420000000 1.0
C      1  0.4305090000000  0.4713990000000  0.5698680000000 1.0
C      1  0.5210860000000  0.5355170000000  0.4801250000000 1.0
C      1  0.5192240000000  0.5103560000000  0.5909450000000 1.0
C      1  0.4115830000000  0.5070500000000  0.5361040000000 1.0
C      1  0.4873220000000  0.5559430000000  0.5259840000000 1.0
C      1  0.5549400000000  0.5333170000000  0.5729650000000 1.0
C      1  0.4509340000000  0.5178960000000  0.5782820000000 1.0
C      1  0.5964110000000  0.5114180000000  0.4923590000000 1.0
C      1  0.5499930000000  0.5649910000000  0.4379300000000 1.0
C      1  0.5464190000000  0.5843260000000  0.4801510000000 1.0
C      1  0.5312290000000  0.5544910000000  0.4187630000000 1.0
C      1  0.4787100000000  0.5109940000000  0.5863190000000 1.0
C      1  0.5143900000000  0.4475600000000  0.5714600000000 1.0
C      1  0.5573370000000  0.4708210000000  0.5001840000000 1.0
C      1  0.5836980000000  0.4147650000000  0.4807040000000 1.0
C      1  0.5005700000000  0.4055280000000  0.4872320000000 1.0
C      1  0.5328160000000  0.4667360000000  0.4109570000000 1.0
C      1  0.4757080000000  0.4816470000000  0.5936920000000 1.0
C      1  0.4906810000000  0.5760550000000  0.5629430000000 1.0
C      1  0.4306940000000  0.4688720000000  0.4478560000000 1.0
C      1  0.4409510000000  0.5695140000000  0.5030540000000 1.0
C      1  0.4544560000000  0.5468040000000  0.4924590000000 1.0
C      1  0.5288160000000  0.5378690000000  0.5844160000000 1.0
C      1  0.5687400000000  0.5633780000000  0.4808560000000 1.0
C      1  0.5081350000000  0.5150580000000  0.4960410000000 1.0
C      1  0.5277010000000  0.5272240000000  0.4142380000000 1.0
C      1  0.4018150000000  0.4988910000000  0.4812200000000 1.0
C      1  0.4709270000000  0.4126900000000  0.5229510000000 1.0
C      1  0.4414820000000  0.5436260000000  0.4479460000000 1.0
C      1  0.4190190000000  0.5538140000000  0.5461340000000 1.0
C      1  0.4610490000000  0.4666710000000  0.5207200000000 1.0
C      1  0.5011110000000  0.5392790000000  0.5462250000000 1.0
END
