TITL C-883737-113-153 -3.46759937009322 125000 -7072.3941040392 0 0 48 (C1) n - 1
REM
REM in /home/nfs/bkarasulu/CARBON/AIRSS/Generating-Clusters/ReaxFF-fromJPCA2015/Units_Real/with-SteepDescent/Only-C1/SD-CG/Try1-3A/FIRE-CG
REM
REM
REM
REM
REM
REM ./C.cell (11c1c37f851c82e70ff6c80c92926a4b)
REM
REM compiler GCC version 9.2.1 20190827 (Red Hat 9.2.1-1)
REM options -cpp -mtune=generic -march=x86-64 -g -O0 -fpre-include=/usr/include/finclude/math-vector-fortran.h
REM seed 2059366737 -977713491 -1753047919 198856189 -1568008110 1969360921 595064901 2129026951 -172225936 -94179940 -1313654938 -1731729126 2039581100 -1330255443 -1054049436 -1495447585 -741979033 -2085554177 -284324002 -53737392 -1707394478 -827085289 -1557269590 -533294018 1024390728 -1998221016 -1886199772 -1648979728 1823339034 300200501 -844667740 -570455703 1580072711
REM
CELL 1.54180   50.00000   50.00000   50.00000   90.00000   90.00000   90.00000
LATT -1
SFAC C  
C      1  0.5330750000000  0.4762450000000  0.4490190000000 1.0
C      1  0.4769440000000  0.4561720000000  0.4143260000000 1.0
C      1  0.5135380000000  0.4713900000000  0.4958330000000 1.0
C      1  0.4603730000000  0.5534100000000  0.5226860000000 1.0
C      1  0.4773610000000  0.4378740000000  0.5283680000000 1.0
C      1  0.4942160000000  0.5467850000000  0.5773370000000 1.0
C      1  0.4822250000000  0.5628760000000  0.5067660000000 1.0
C      1  0.4898960000000  0.5038010000000  0.5178950000000 1.0
C      1  0.4830370000000  0.4480090000000  0.4458370000000 1.0
C      1  0.5429010000000  0.5660090000000  0.4906810000000 1.0
C      1  0.5305010000000  0.5188450000000  0.4865240000000 1.0
C      1  0.4612440000000  0.5050910000000  0.4611650000000 1.0
C      1  0.5148790000000  0.4700980000000  0.5466260000000 1.0
C      1  0.4638690000000  0.5250450000000  0.4819010000000 1.0
C      1  0.5003660000000  0.5583370000000  0.5285540000000 1.0
C      1  0.5043750000000  0.5216760000000  0.4431060000000 1.0
C      1  0.5541820000000  0.4840730000000  0.4690780000000 1.0
C      1  0.5479580000000  0.5124280000000  0.4637600000000 1.0
C      1  0.5092760000000  0.4584540000000  0.4505010000000 1.0
C      1  0.4786540000000  0.4825370000000  0.4233170000000 1.0
C      1  0.5090610000000  0.4990810000000  0.4952720000000 1.0
C      1  0.4955250000000  0.4919540000000  0.5439060000000 1.0
C      1  0.4495440000000  0.4602410000000  0.4897840000000 1.0
C      1  0.5139750000000  0.5521140000000  0.5519670000000 1.0
C      1  0.5286050000000  0.5055010000000  0.4425820000000 1.0
C      1  0.4721650000000  0.5312240000000  0.5709340000000 1.0
C      1  0.4573740000000  0.4586730000000  0.5193400000000 1.0
C      1  0.4484100000000  0.5291780000000  0.5308590000000 1.0
C      1  0.4691090000000  0.4912430000000  0.5601200000000 1.0
C      1  0.5216210000000  0.4451250000000  0.4999050000000 1.0
C      1  0.5033050000000  0.4299890000000  0.5182200000000 1.0
C      1  0.5532730000000  0.5238240000000  0.5272950000000 1.0
C      1  0.4592930000000  0.4525520000000  0.4635060000000 1.0
C      1  0.5440500000000  0.5379680000000  0.5031000000000 1.0
C      1  0.5015570000000  0.4437960000000  0.5439150000000 1.0
C      1  0.5599690000000  0.4777460000000  0.4973920000000 1.0
C      1  0.5251980000000  0.5640500000000  0.4671290000000 1.0
C      1  0.4481840000000  0.4795620000000  0.4680980000000 1.0
C      1  0.5394640000000  0.5369300000000  0.5499230000000 1.0
C      1  0.5422310000000  0.4715520000000  0.5352370000000 1.0
C      1  0.4633880000000  0.5141730000000  0.5098790000000 1.0
C      1  0.5482550000000  0.4542850000000  0.5112820000000 1.0
C      1  0.4558320000000  0.4790470000000  0.5387470000000 1.0
C      1  0.4818030000000  0.5475940000000  0.4800020000000 1.0
C      1  0.4524850000000  0.5159140000000  0.5582350000000 1.0
C      1  0.5023590000000  0.5462430000000  0.4598890000000 1.0
C      1  0.5557410000000  0.4942110000000  0.5222880000000 1.0
C      1  0.4793490000000  0.5070740000000  0.4379160000000 1.0
END
