TITL C-884136-4169-411 0.29896160463676 125000 -1179.78914425277 0 0 9 (Cs) n - 1
REM
REM in /home/nfs/bkarasulu/CARBON/AIRSS/Generating-Clusters/ReaxFF-fromJPCA2015/Units_Real/with-SteepDescent/Only-C1/SD-CG/Try1-3A/FIRE-CG
REM
REM
REM
REM
REM
REM ./C.cell (11c1c37f851c82e70ff6c80c92926a4b)
REM
REM compiler GCC version 9.2.1 20190827 (Red Hat 9.2.1-1)
REM options -cpp -mtune=generic -march=x86-64 -g -O0 -fpre-include=/usr/include/finclude/math-vector-fortran.h
REM seed 1548251829 239574766 -791197809 1519184704 -769328064 -1694639503 -1949874696 763218196 -576774009 -311179783 -1084910549 842370138 240896763 -2127283947 -935795557 119126265 -370334211 1004201500 900945881 -643448438 420842092 2027256836 -990806870 1960183849 -857194670 -1167171216 269354137 332469552 1131334548 1065583238 -455892099 -37702898 768922058
REM
CELL 1.54180   50.00000   50.00000   50.00000   90.00000   90.00000   90.00000
LATT -1
SFAC C  
C      1  0.4978000000000  0.5030810000000  0.5010660000000 1.0
C      1  0.4630020000000  0.5383420000000  0.4441620000000 1.0
C      1  0.4667320000000  0.5294120000000  0.4220390000000 1.0
C      1  0.4858100000000  0.5154300000000  0.4825550000000 1.0
C      1  0.5099210000000  0.4905310000000  0.5194230000000 1.0
C      1  0.5464090000000  0.4525150000000  0.5733880000000 1.0
C      1  0.5345650000000  0.4648760000000  0.5559810000000 1.0
C      1  0.5220970000000  0.4778730000000  0.5375820000000 1.0
C      1  0.4736640000000  0.5279400000000  0.4638040000000 1.0
END
