TITL C-884132-5695-307 -0.219830391344249 125000 -7182.36681596078 0 0 49 (C1) n - 1
REM
REM in /home/nfs/bkarasulu/CARBON/AIRSS/Generating-Clusters/ReaxFF-fromJPCA2015/Units_Real/with-SteepDescent/Only-C1/SD-CG/Try1-3A/FIRE-CG
REM
REM
REM
REM
REM
REM ./C.cell (11c1c37f851c82e70ff6c80c92926a4b)
REM
REM compiler GCC version 9.2.1 20190827 (Red Hat 9.2.1-1)
REM options -cpp -mtune=generic -march=x86-64 -g -O0 -fpre-include=/usr/include/finclude/math-vector-fortran.h
REM seed -690391903 1983409059 2043717687 334491799 2105058315 -1349988025 1270150702 1542566123 -1792363341 -1246048110 -74842083 -854688502 -163700611 1099913165 -522809398 -1350854749 707005468 -498739528 475740824 881789208 -1066539045 1060430769 557155979 123818609 1491030307 -1542530691 206480529 486890243 2092604878 -10280701 -1503849393 -1376893420 -1993074474
REM
CELL 1.54180   50.00000   50.00000   50.00000   90.00000   90.00000   90.00000
LATT -1
SFAC C  
C      1  0.5218680000000  0.5242220000000  0.5474630000000 1.0
C      1  0.5037760000000  0.5664550000000  0.5159310000000 1.0
C      1  0.5027380000000  0.4675790000000  0.4409640000000 1.0
C      1  0.4377870000000  0.4933810000000  0.5466520000000 1.0
C      1  0.4772810000000  0.4697860000000  0.5020270000000 1.0
C      1  0.4571070000000  0.5037920000000  0.5650600000000 1.0
C      1  0.4924690000000  0.4568380000000  0.5304720000000 1.0
C      1  0.5315230000000  0.5082210000000  0.4997970000000 1.0
C      1  0.5432580000000  0.5424210000000  0.5360520000000 1.0
C      1  0.4942030000000  0.5318600000000  0.5483600000000 1.0
C      1  0.4525080000000  0.4666980000000  0.4501400000000 1.0
C      1  0.4415620000000  0.5207400000000  0.5013220000000 1.0
C      1  0.4707150000000  0.5241940000000  0.4619200000000 1.0
C      1  0.4859690000000  0.5049700000000  0.5575840000000 1.0
C      1  0.4794470000000  0.4295460000000  0.5276850000000 1.0
C      1  0.5423380000000  0.5520960000000  0.4866250000000 1.0
C      1  0.5531610000000  0.5109710000000  0.4561420000000 1.0
C      1  0.5617910000000  0.4664160000000  0.5246130000000 1.0
C      1  0.4814410000000  0.4471860000000  0.4826080000000 1.0
C      1  0.5586830000000  0.4947730000000  0.5343430000000 1.0
C      1  0.5513660000000  0.5228790000000  0.4831460000000 1.0
C      1  0.5313640000000  0.4651120000000  0.4800050000000 1.0
C      1  0.5320900000000  0.5583140000000  0.5138550000000 1.0
C      1  0.5068330000000  0.4961620000000  0.4350720000000 1.0
C      1  0.5468400000000  0.4502640000000  0.5466710000000 1.0
C      1  0.5243620000000  0.4486920000000  0.5268970000000 1.0
C      1  0.4842580000000  0.4757700000000  0.5520500000000 1.0
C      1  0.5306050000000  0.5024140000000  0.5292170000000 1.0
C      1  0.4567790000000  0.4766440000000  0.5597390000000 1.0
C      1  0.4879310000000  0.5626770000000  0.4652510000000 1.0
C      1  0.5268530000000  0.5508680000000  0.4631660000000 1.0
C      1  0.4409220000000  0.4836490000000  0.4722280000000 1.0
C      1  0.4824630000000  0.5499400000000  0.5283750000000 1.0
C      1  0.4837710000000  0.5214210000000  0.4888540000000 1.0
C      1  0.5180550000000  0.4895240000000  0.4857990000000 1.0
C      1  0.4930280000000  0.4939680000000  0.4951610000000 1.0
C      1  0.5431400000000  0.4543180000000  0.5045280000000 1.0
C      1  0.4790470000000  0.4541190000000  0.4538840000000 1.0
C      1  0.4447750000000  0.5133020000000  0.4729870000000 1.0
C      1  0.5035980000000  0.5472870000000  0.4463570000000 1.0
C      1  0.4362510000000  0.4962670000000  0.5176560000000 1.0
C      1  0.4660640000000  0.5366340000000  0.5071410000000 1.0
C      1  0.5672090000000  0.5236130000000  0.5335890000000 1.0
C      1  0.5370480000000  0.4921490000000  0.4399480000000 1.0
C      1  0.5303620000000  0.4649250000000  0.4508250000000 1.0
C      1  0.4911560000000  0.5198880000000  0.4411850000000 1.0
C      1  0.4470640000000  0.4762570000000  0.4999080000000 1.0
C      1  0.4890530000000  0.5687340000000  0.4920250000000 1.0
C      1  0.4780870000000  0.4220640000000  0.4987210000000 1.0
END
