TITL C-884128-4793-46 391477.684515933 125000 -17928.1710542851 0 0 121 (C1) n - 1
REM
REM in /home/nfs/bkarasulu/CARBON/AIRSS/Generating-Clusters/ReaxFF-fromJPCA2015/Units_Real/with-SteepDescent/Only-C1/SD-CG/Try1-3A/FIRE-CG
REM
REM
REM
REM
REM
REM ./C.cell (11c1c37f851c82e70ff6c80c92926a4b)
REM
REM compiler GCC version 9.2.1 20190827 (Red Hat 9.2.1-1)
REM options -cpp -mtune=generic -march=x86-64 -g -O0 -fpre-include=/usr/include/finclude/math-vector-fortran.h
REM seed 1108986438 -909980731 814641597 871529591 881141422 1996478878 1508233427 -1671906689 268399039 -1433500343 -1129409364 1267256815 1437768238 -979501141 -1246180982 -490465917 402521774 1449901068 -389450650 -57169806 1328644280 -155229638 -43040203 -1132535928 1282998391 1936773417 -1132424772 -305066098 -103584521 2055507395 1260657368 -1777376981 -1871163959
REM
CELL 1.54180   50.00000   50.00000   50.00000   90.00000   90.00000   90.00000
LATT -1
SFAC C  
C      1  0.4329740000000  0.5083850000000  0.4528970000000 1.0
C      1  0.4436590000000  0.4556790000000  0.5144750000000 1.0
C      1  0.5828380000000  0.4905720000000  0.5514680000000 1.0
C      1  0.4114920000000  0.4946630000000  0.4657050000000 1.0
C      1  0.5254390000000  0.4971530000000  0.5219340000000 1.0
C      1  0.5688610000000  0.5425870000000  0.5299110000000 1.0
C      1  0.5073850000000  0.5016400000000  0.5795200000000 1.0
C      1  0.4698560000000  0.5150470000000  0.5313310000000 1.0
C      1  0.5277930000000  0.4121650000000  0.5372840000000 1.0
C      1  0.4885960000000  0.4445900000000  0.5584710000000 1.0
C      1  0.4399240000000  0.4721450000000  0.4318130000000 1.0
C      1  0.5581210000000  0.5083110000000  0.4903760000000 1.0
C      1  0.5371520000000  0.5278380000000  0.4869690000000 1.0
C      1  0.4833300000000  0.5229880000000  0.5516780000000 1.0
C      1  0.4759820000000  0.4220990000000  0.5428530000000 1.0
C      1  0.5478950000000  0.4658670000000  0.4251990000000 1.0
C      1  0.5372600000000  0.5547750000000  0.5682840000000 1.0
C      1  0.5659370000000  0.5647340000000  0.4853310000000 1.0
C      1  0.5053970000000  0.5909060000000  0.4470550000000 1.0
C      1  0.4593040000000  0.4856130000000  0.4738000000000 1.0
C      1  0.5445560000000  0.4093990000000  0.5100710000000 1.0
C      1  0.4135680000000  0.5330840000000  0.4989060000000 1.0
C      1  0.5748500000000  0.4409100000000  0.5161690000000 1.0
C      1  0.4672710000000  0.4359990000000  0.4707720000000 1.0
C      1  0.4415200000000  0.4777100000000  0.5323480000000 1.0
C      1  0.5349570000000  0.4303530000000  0.5579810000000 1.0
C      1  0.4887370000000  0.4677240000000  0.5112390000000 1.0
C      1  0.5508480000000  0.4847000000000  0.5778360000000 1.0
C      1  0.4385950000000  0.5521890000000  0.4844460000000 1.0
C      1  0.4789180000000  0.5055350000000  0.5750570000000 1.0
C      1  0.5334040000000  0.5419360000000  0.4214280000000 1.0
C      1  0.5144290000000  0.5221960000000  0.5589200000000 1.0
C      1  0.5428680000000  0.5766280000000  0.5331880000000 1.0
C      1  0.4800630000000  0.4956070000000  0.4570560000000 1.0
C      1  0.5313390000000  0.4947120000000  0.4564600000000 1.0
C      1  0.4187420000000  0.4476880000000  0.4752700000000 1.0
C      1  0.4163790000000  0.4845850000000  0.5389760000000 1.0
C      1  0.4497740000000  0.4128800000000  0.5007690000000 1.0
C      1  0.4815250000000  0.4669160000000  0.5417630000000 1.0
C      1  0.4793250000000  0.5905290000000  0.5331970000000 1.0
C      1  0.4180310000000  0.5477140000000  0.5230820000000 1.0
C      1  0.4578070000000  0.5496420000000  0.4315480000000 1.0
C      1  0.5261910000000  0.4526430000000  0.4859900000000 1.0
C      1  0.5027390000000  0.4492910000000  0.4489750000000 1.0
C      1  0.4565670000000  0.5246450000000  0.4155410000000 1.0
C      1  0.5841260000000  0.5245980000000  0.4602020000000 1.0
C      1  0.5579980000000  0.5361620000000  0.5561360000000 1.0
C      1  0.4874910000000  0.5573640000000  0.5738280000000 1.0
C      1  0.5791460000000  0.4670480000000  0.4762200000000 1.0
C      1  0.5069710000000  0.4906360000000  0.4995270000000 1.0
C      1  0.4199550000000  0.4685870000000  0.4541280000000 1.0
C      1  0.5055370000000  0.4978520000000  0.4128280000000 1.0
C      1  0.4668850000000  0.4615550000000  0.4280950000000 1.0
C      1  0.4801050000000  0.4393660000000  0.4417820000000 1.0
C      1  0.4762120000000  0.4123360000000  0.4878830000000 1.0
C      1  0.4857130000000  0.4845410000000  0.4313610000000 1.0
C      1  0.5778840000000  0.5228300000000  0.5084440000000 1.0
C      1  0.5651970000000  0.5093300000000  0.5661330000000 1.0
C      1  0.5582920000000  0.4452740000000  0.5445830000000 1.0
C      1  0.4156540000000  0.4587440000000  0.5018400000000 1.0
C      1  0.5239030000000  0.5402070000000  0.5097140000000 1.0
C      1  0.4596890000000  0.5472010000000  0.5762030000000 1.0
C      1  0.5477900000000  0.5723540000000  0.4639780000000 1.0
C      1  0.5157330000000  0.4345080000000  0.4680500000000 1.0
C      1  0.4413960000000  0.4755100000000  0.5768680000000 1.0
C      1  0.5262280000000  0.5234580000000  0.5319680000000 1.0
C      1  0.5002030000000  0.5536600000000  0.5027330000000 1.0
C      1  0.5731760000000  0.4964800000000  0.4663010000000 1.0
C      1  0.5694710000000  0.4675840000000  0.5634010000000 1.0
C      1  0.4576430000000  0.5325040000000  0.4853930000000 1.0
C      1  0.5261650000000  0.3951730000000  0.4934430000000 1.0
C      1  0.4273450000000  0.4968500000000  0.5637050000000 1.0
C      1  0.5213680000000  0.5858980000000  0.4667500000000 1.0
C      1  0.5217460000000  0.5198420000000  0.4641150000000 1.0
C      1  0.4562240000000  0.5741090000000  0.5335600000000 1.0
C      1  0.5224890000000  0.4766930000000  0.5784630000000 1.0
C      1  0.5238530000000  0.4772820000000  0.4160110000000 1.0
C      1  0.5367080000000  0.4582750000000  0.5275260000000 1.0
C      1  0.5291150000000  0.4811600000000  0.4816690000000 1.0
C      1  0.5246630000000  0.5772960000000  0.5539610000000 1.0
C      1  0.4995830000000  0.4073430000000  0.5327550000000 1.0
C      1  0.4437570000000  0.5656520000000  0.5594860000000 1.0
C      1  0.5509810000000  0.5201540000000  0.4216290000000 1.0
C      1  0.4823600000000  0.5378730000000  0.4179130000000 1.0
C      1  0.4404560000000  0.5017120000000  0.4261940000000 1.0
C      1  0.4433090000000  0.5245680000000  0.5650590000000 1.0
C      1  0.4045360000000  0.4833880000000  0.5124340000000 1.0
C      1  0.4524800000000  0.5006560000000  0.5180140000000 1.0
C      1  0.4934150000000  0.5769840000000  0.5538080000000 1.0
C      1  0.5493170000000  0.4821660000000  0.5225290000000 1.0
C      1  0.5137060000000  0.4469330000000  0.5118010000000 1.0
C      1  0.4052660000000  0.5060830000000  0.4931520000000 1.0
C      1  0.4531910000000  0.4271740000000  0.5256240000000 1.0
C      1  0.4477970000000  0.5632330000000  0.4553120000000 1.0
C      1  0.4652000000000  0.5843190000000  0.4553020000000 1.0
C      1  0.4931890000000  0.5924020000000  0.5107390000000 1.0
C      1  0.4661570000000  0.4811910000000  0.5633730000000 1.0
C      1  0.5156210000000  0.4490600000000  0.5698820000000 1.0
C      1  0.5097430000000  0.5272310000000  0.4190250000000 1.0
C      1  0.5857780000000  0.4650110000000  0.5043340000000 1.0
C      1  0.5644310000000  0.4436760000000  0.4677030000000 1.0
C      1  0.5627170000000  0.5679380000000  0.5158440000000 1.0
C      1  0.5785900000000  0.4897830000000  0.5214390000000 1.0
C      1  0.4499940000000  0.5067270000000  0.4890130000000 1.0
C      1  0.4252890000000  0.5437690000000  0.5526940000000 1.0
C      1  0.5489510000000  0.4425460000000  0.4426220000000 1.0
C      1  0.5828430000000  0.5410760000000  0.4836010000000 1.0
C      1  0.5634800000000  0.4277520000000  0.4943210000000 1.0
C      1  0.5709340000000  0.5361210000000  0.4368210000000 1.0
C      1  0.5013500000000  0.4133470000000  0.5036930000000 1.0
C      1  0.4962320000000  0.5129740000000  0.4745270000000 1.0
C      1  0.4844820000000  0.5971960000000  0.4547140000000 1.0
C      1  0.5204310000000  0.4316720000000  0.4394890000000 1.0
C      1  0.4661390000000  0.4625890000000  0.4906840000000 1.0
C      1  0.5543830000000  0.4939610000000  0.4382040000000 1.0
C      1  0.5048660000000  0.5803400000000  0.4946100000000 1.0
C      1  0.4843590000000  0.5375660000000  0.4855810000000 1.0
C      1  0.5127190000000  0.5427250000000  0.5790370000000 1.0
C      1  0.4376260000000  0.5655160000000  0.5119340000000 1.0
C      1  0.4389780000000  0.4263790000000  0.4761870000000 1.0
C      1  0.5510950000000  0.5579820000000  0.4387720000000 1.0
END
