TITL C-884132-5695-419 6.92296832145209 125000 -11497.4936522049 0 0 78 (C1) n - 1
REM
REM in /home/nfs/bkarasulu/CARBON/AIRSS/Generating-Clusters/ReaxFF-fromJPCA2015/Units_Real/with-SteepDescent/Only-C1/SD-CG/Try1-3A/FIRE-CG
REM
REM
REM
REM
REM
REM ./C.cell (11c1c37f851c82e70ff6c80c92926a4b)
REM
REM compiler GCC version 9.2.1 20190827 (Red Hat 9.2.1-1)
REM options -cpp -mtune=generic -march=x86-64 -g -O0 -fpre-include=/usr/include/finclude/math-vector-fortran.h
REM seed 353098769 -2115296247 -1518381931 -1734583870 654805199 1471079621 -484954478 -906841058 1153366226 -671751079 -674407146 -593068708 2028155399 -1079142335 625329089 598756543 239576068 746071345 -1896471485 951817513 1963164995 1688449662 -1451617757 561177915 -2080066754 -157640275 -1652670237 -641134637 -233422215 1555020486 1919032771 -1023097057 -1548941972
REM
CELL 1.54180   50.00000   50.00000   50.00000   90.00000   90.00000   90.00000
LATT -1
SFAC C  
C      1  0.4980780000000  0.5267430000000  0.5187940000000 1.0
C      1  0.4498290000000  0.5640960000000  0.5219020000000 1.0
C      1  0.5117400000000  0.4843030000000  0.5529070000000 1.0
C      1  0.5126660000000  0.4967490000000  0.4909210000000 1.0
C      1  0.4637800000000  0.5351980000000  0.5589280000000 1.0
C      1  0.5429950000000  0.5038090000000  0.4406600000000 1.0
C      1  0.5081400000000  0.4864160000000  0.4525130000000 1.0
C      1  0.5426650000000  0.5330920000000  0.4858900000000 1.0
C      1  0.5190290000000  0.5041240000000  0.5749300000000 1.0
C      1  0.5529300000000  0.4802810000000  0.4536030000000 1.0
C      1  0.4985720000000  0.5064200000000  0.4688960000000 1.0
C      1  0.4443370000000  0.5115240000000  0.4752650000000 1.0
C      1  0.5633080000000  0.5491300000000  0.5370780000000 1.0
C      1  0.5109110000000  0.5425630000000  0.5391100000000 1.0
C      1  0.4576490000000  0.5376740000000  0.4759890000000 1.0
C      1  0.4556190000000  0.4874310000000  0.4262640000000 1.0
C      1  0.4448320000000  0.5174400000000  0.5221420000000 1.0
C      1  0.5217640000000  0.5193950000000  0.5054360000000 1.0
C      1  0.4557930000000  0.4863080000000  0.4863790000000 1.0
C      1  0.4801850000000  0.4508150000000  0.4771510000000 1.0
C      1  0.4759130000000  0.4642330000000  0.4267490000000 1.0
C      1  0.4759390000000  0.4861810000000  0.5065260000000 1.0
C      1  0.4787890000000  0.4302700000000  0.5411030000000 1.0
C      1  0.5111320000000  0.5743960000000  0.4871280000000 1.0
C      1  0.4615930000000  0.4289040000000  0.5171310000000 1.0
C      1  0.5700710000000  0.5052260000000  0.5672090000000 1.0
C      1  0.5740680000000  0.4856220000000  0.4729850000000 1.0
C      1  0.4726130000000  0.5115530000000  0.5181380000000 1.0
C      1  0.5624980000000  0.4913850000000  0.4960990000000 1.0
C      1  0.5162360000000  0.4934370000000  0.4244660000000 1.0
C      1  0.4860250000000  0.5535280000000  0.5506600000000 1.0
C      1  0.5379980000000  0.5638390000000  0.4935290000000 1.0
C      1  0.5772440000000  0.5262510000000  0.5229240000000 1.0
C      1  0.5395380000000  0.5282760000000  0.4548700000000 1.0
C      1  0.4848790000000  0.5340070000000  0.4667720000000 1.0
C      1  0.4920300000000  0.5851620000000  0.5074370000000 1.0
C      1  0.4497830000000  0.5621240000000  0.4917070000000 1.0
C      1  0.5856280000000  0.4724100000000  0.4986520000000 1.0
C      1  0.4976920000000  0.5384730000000  0.4277300000000 1.0
C      1  0.4366520000000  0.4738310000000  0.5371100000000 1.0
C      1  0.5915390000000  0.4825770000000  0.5226130000000 1.0
C      1  0.5011120000000  0.5588750000000  0.4639060000000 1.0
C      1  0.4969230000000  0.5155650000000  0.4114760000000 1.0
C      1  0.5019580000000  0.4729780000000  0.5028740000000 1.0
C      1  0.5081100000000  0.4237420000000  0.5008320000000 1.0
C      1  0.4920670000000  0.5117580000000  0.5771440000000 1.0
C      1  0.5037140000000  0.4664460000000  0.4173940000000 1.0
C      1  0.5055100000000  0.4239820000000  0.5303450000000 1.0
C      1  0.4667420000000  0.5059880000000  0.5672750000000 1.0
C      1  0.5213710000000  0.4450170000000  0.5424660000000 1.0
C      1  0.5672180000000  0.5189280000000  0.4967440000000 1.0
C      1  0.4179700000000  0.5030120000000  0.4650920000000 1.0
C      1  0.4275990000000  0.4874000000000  0.4408630000000 1.0
C      1  0.5198530000000  0.5474800000000  0.4436530000000 1.0
C      1  0.5288530000000  0.4390140000000  0.4841660000000 1.0
C      1  0.5869990000000  0.5045310000000  0.5391270000000 1.0
C      1  0.5124700000000  0.4484560000000  0.4384500000000 1.0
C      1  0.4099580000000  0.4937320000000  0.4931700000000 1.0
C      1  0.5482880000000  0.4250170000000  0.4909910000000 1.0
C      1  0.4765380000000  0.5730070000000  0.5307820000000 1.0
C      1  0.4428920000000  0.5412660000000  0.5391240000000 1.0
C      1  0.4766380000000  0.4546580000000  0.5585060000000 1.0
C      1  0.5190090000000  0.4705950000000  0.5275340000000 1.0
C      1  0.4591960000000  0.4781580000000  0.5557990000000 1.0
C      1  0.4452990000000  0.4503730000000  0.5258330000000 1.0
C      1  0.5487080000000  0.5630090000000  0.5185430000000 1.0
C      1  0.4849940000000  0.4466390000000  0.4487040000000 1.0
C      1  0.4240250000000  0.4963290000000  0.5187800000000 1.0
C      1  0.5680010000000  0.4903120000000  0.5873070000000 1.0
C      1  0.4808720000000  0.4292060000000  0.4942700000000 1.0
C      1  0.5052950000000  0.4577020000000  0.5644170000000 1.0
C      1  0.5281450000000  0.4631660000000  0.4598480000000 1.0
C      1  0.4701230000000  0.5818700000000  0.4903200000000 1.0
C      1  0.4525200000000  0.4589090000000  0.4776290000000 1.0
C      1  0.5434610000000  0.5203960000000  0.5711650000000 1.0
C      1  0.4351360000000  0.4661010000000  0.4567930000000 1.0
C      1  0.4712050000000  0.5094850000000  0.4199970000000 1.0
C      1  0.5385440000000  0.5417030000000  0.5523830000000 1.0
END
