TITL C-884139-6216-104 3.58357458194116 125000 -20438.8753035543 0 0 137 (C1) n - 1
REM
REM in /home/nfs/bkarasulu/CARBON/AIRSS/Generating-Clusters/ReaxFF-fromJPCA2015/Units_Real/with-SteepDescent/Only-C1/SD-CG/Try1-3A/FIRE-CG
REM
REM
REM
REM
REM
REM ./C.cell (11c1c37f851c82e70ff6c80c92926a4b)
REM
REM compiler GCC version 9.2.1 20190827 (Red Hat 9.2.1-1)
REM options -cpp -mtune=generic -march=x86-64 -g -O0 -fpre-include=/usr/include/finclude/math-vector-fortran.h
REM seed 625733373 -1458664966 -1127547435 1586305929 1878522349 1052835176 415733896 138805313 -1768367475 -1196898900 2146548192 1094449783 -73282276 -610566871 1315864284 -844497813 1336008653 997972458 1490459601 1510957115 36499160 1794661405 -1376230327 299870519 161819326 -1439872949 1829301100 -1364448623 -1315463256 -1112581837 1650177141 -1794438017 1041257896
REM
CELL 1.54180   50.00000   50.00000   50.00000   90.00000   90.00000   90.00000
LATT -1
SFAC C  
C      1  0.5884280000000  0.4632480000000  0.4701970000000 1.0
C      1  0.4809600000000  0.5509530000000  0.4177480000000 1.0
C      1  0.4684830000000  0.4180220000000  0.5558380000000 1.0
C      1  0.5022350000000  0.5047120000000  0.4041200000000 1.0
C      1  0.5360910000000  0.5242570000000  0.5209210000000 1.0
C      1  0.4849510000000  0.5740320000000  0.5290590000000 1.0
C      1  0.4231190000000  0.5001800000000  0.4332930000000 1.0
C      1  0.4763970000000  0.3938880000000  0.5093020000000 1.0
C      1  0.5323150000000  0.5785580000000  0.5108800000000 1.0
C      1  0.5630160000000  0.5062660000000  0.4370640000000 1.0
C      1  0.5226370000000  0.4396470000000  0.5137530000000 1.0
C      1  0.5129540000000  0.5944710000000  0.4879770000000 1.0
C      1  0.5138520000000  0.5122300000000  0.4309170000000 1.0
C      1  0.5361620000000  0.4715670000000  0.5495160000000 1.0
C      1  0.4554560000000  0.5083940000000  0.5623450000000 1.0
C      1  0.4704030000000  0.5563150000000  0.4590050000000 1.0
C      1  0.4839100000000  0.4674730000000  0.4085630000000 1.0
C      1  0.4832590000000  0.4863960000000  0.5980560000000 1.0
C      1  0.4759590000000  0.4179900000000  0.4577020000000 1.0
C      1  0.4502630000000  0.4906180000000  0.4680640000000 1.0
C      1  0.5028970000000  0.5059690000000  0.5506810000000 1.0
C      1  0.4232210000000  0.5582530000000  0.4972310000000 1.0
C      1  0.5507020000000  0.5203950000000  0.4963970000000 1.0
C      1  0.5086550000000  0.5239880000000  0.5698120000000 1.0
C      1  0.4349630000000  0.5264310000000  0.4285060000000 1.0
C      1  0.5510710000000  0.5476350000000  0.5638690000000 1.0
C      1  0.5222770000000  0.4091660000000  0.5003940000000 1.0
C      1  0.5660710000000  0.5830450000000  0.4759520000000 1.0
C      1  0.5091810000000  0.5605160000000  0.4186710000000 1.0
C      1  0.4647840000000  0.5874750000000  0.5123060000000 1.0
C      1  0.4252400000000  0.5126970000000  0.5190620000000 1.0
C      1  0.4406080000000  0.5721470000000  0.5181010000000 1.0
C      1  0.4449700000000  0.4234630000000  0.5057420000000 1.0
C      1  0.4879160000000  0.5314720000000  0.5918870000000 1.0
C      1  0.5720630000000  0.5433390000000  0.5435650000000 1.0
C      1  0.4986810000000  0.5135090000000  0.4552630000000 1.0
C      1  0.5009390000000  0.4200610000000  0.4402260000000 1.0
C      1  0.5407810000000  0.4455540000000  0.5350740000000 1.0
C      1  0.5163240000000  0.4594120000000  0.5699250000000 1.0
C      1  0.4066130000000  0.4965020000000  0.4579320000000 1.0
C      1  0.5157530000000  0.5446990000000  0.4854300000000 1.0
C      1  0.4199920000000  0.5399940000000  0.4505840000000 1.0
C      1  0.4247910000000  0.5640830000000  0.4677820000000 1.0
C      1  0.5318050000000  0.5139120000000  0.6045030000000 1.0
C      1  0.4752040000000  0.4647090000000  0.5352410000000 1.0
C      1  0.5237670000000  0.5489860000000  0.5125110000000 1.0
C      1  0.4518360000000  0.5176260000000  0.4746970000000 1.0
C      1  0.4859500000000  0.5892650000000  0.5549030000000 1.0
C      1  0.4069230000000  0.5224250000000  0.4713020000000 1.0
C      1  0.4290840000000  0.4734000000000  0.5731080000000 1.0
C      1  0.5078150000000  0.5167930000000  0.4823560000000 1.0
C      1  0.5893320000000  0.5369580000000  0.4702890000000 1.0
C      1  0.5773390000000  0.5555350000000  0.5165450000000 1.0
C      1  0.5773080000000  0.4457560000000  0.5616870000000 1.0
C      1  0.5336650000000  0.4607770000000  0.4976250000000 1.0
C      1  0.5313480000000  0.4611410000000  0.4358660000000 1.0
C      1  0.5694150000000  0.4560760000000  0.4498610000000 1.0
C      1  0.4830310000000  0.4457040000000  0.4672970000000 1.0
C      1  0.5055400000000  0.4611080000000  0.4575280000000 1.0
C      1  0.6017190000000  0.5142470000000  0.5160800000000 1.0
C      1  0.5184060000000  0.5923230000000  0.4597660000000 1.0
C      1  0.5660630000000  0.4325390000000  0.5364010000000 1.0
C      1  0.5433940000000  0.5399660000000  0.4775270000000 1.0
C      1  0.4083240000000  0.4553630000000  0.5233370000000 1.0
C      1  0.4985140000000  0.3960540000000  0.5014820000000 1.0
C      1  0.5552560000000  0.5686140000000  0.4378480000000 1.0
C      1  0.4772950000000  0.3983010000000  0.5371810000000 1.0
C      1  0.5347200000000  0.5889440000000  0.5403320000000 1.0
C      1  0.5473280000000  0.5907650000000  0.4548710000000 1.0
C      1  0.4879390000000  0.5631680000000  0.4797870000000 1.0
C      1  0.4945420000000  0.4443160000000  0.5278430000000 1.0
C      1  0.5396570000000  0.4074900000000  0.4767690000000 1.0
C      1  0.4023530000000  0.4703890000000  0.4983830000000 1.0
C      1  0.4092710000000  0.4701350000000  0.4707580000000 1.0
C      1  0.5960360000000  0.4855400000000  0.5200690000000 1.0
C      1  0.4440550000000  0.4801910000000  0.4400530000000 1.0
C      1  0.4759320000000  0.4595500000000  0.5884030000000 1.0
C      1  0.5371250000000  0.5517100000000  0.4229360000000 1.0
C      1  0.4507180000000  0.5128920000000  0.5022290000000 1.0
C      1  0.5069380000000  0.5230580000000  0.6153220000000 1.0
C      1  0.5090180000000  0.4950690000000  0.6110640000000 1.0
C      1  0.4102350000000  0.4908590000000  0.5618630000000 1.0
C      1  0.5286770000000  0.4183940000000  0.4504820000000 1.0
C      1  0.4395890000000  0.4511870000000  0.4375430000000 1.0
C      1  0.4997290000000  0.5058080000000  0.5073620000000 1.0
C      1  0.4488310000000  0.5592150000000  0.5439570000000 1.0
C      1  0.4746670000000  0.5710490000000  0.4368310000000 1.0
C      1  0.5412560000000  0.5231770000000  0.4279740000000 1.0
C      1  0.4953970000000  0.4414680000000  0.5755660000000 1.0
C      1  0.4317970000000  0.4374140000000  0.5265060000000 1.0
C      1  0.4755830000000  0.4959980000000  0.4099010000000 1.0
C      1  0.5045490000000  0.5777880000000  0.5748310000000 1.0
C      1  0.5859780000000  0.4598070000000  0.5004420000000 1.0
C      1  0.4517170000000  0.4406530000000  0.5492300000000 1.0
C      1  0.4730650000000  0.5474740000000  0.5328130000000 1.0
C      1  0.4615040000000  0.4092950000000  0.4895680000000 1.0
C      1  0.5864390000000  0.5136930000000  0.4535710000000 1.0
C      1  0.4851270000000  0.4386920000000  0.4227120000000 1.0
C      1  0.5652600000000  0.5545290000000  0.4634780000000 1.0
C      1  0.5145970000000  0.4742800000000  0.4806810000000 1.0
C      1  0.5084580000000  0.4761340000000  0.3940170000000 1.0
C      1  0.4709670000000  0.5276110000000  0.4544180000000 1.0
C      1  0.5365100000000  0.5259600000000  0.5777760000000 1.0
C      1  0.4300290000000  0.4494420000000  0.4649500000000 1.0
C      1  0.4764770000000  0.4987710000000  0.5429330000000 1.0
C      1  0.4641120000000  0.5259620000000  0.4220630000000 1.0
C      1  0.4825420000000  0.5624450000000  0.5858770000000 1.0
C      1  0.4603290000000  0.4302530000000  0.4337570000000 1.0
C      1  0.4841770000000  0.5901500000000  0.4895880000000 1.0
C      1  0.5589600000000  0.4718710000000  0.5014050000000 1.0
C      1  0.5884010000000  0.4919370000000  0.4730260000000 1.0
C      1  0.4293000000000  0.5100870000000  0.5507570000000 1.0
C      1  0.4004420000000  0.4949400000000  0.5153860000000 1.0
C      1  0.5226400000000  0.5004200000000  0.5316570000000 1.0
C      1  0.5559690000000  0.4779920000000  0.4372450000000 1.0
C      1  0.4636300000000  0.5735730000000  0.5663360000000 1.0
C      1  0.4952110000000  0.4209380000000  0.5483150000000 1.0
C      1  0.4569410000000  0.4512470000000  0.4783080000000 1.0
C      1  0.5895900000000  0.5199270000000  0.5427890000000 1.0
C      1  0.4741820000000  0.5189050000000  0.5190260000000 1.0
C      1  0.5011940000000  0.5816350000000  0.4372010000000 1.0
C      1  0.5265800000000  0.4660430000000  0.4117770000000 1.0
C      1  0.5659560000000  0.4967360000000  0.4908200000000 1.0
C      1  0.4914860000000  0.4823310000000  0.4960220000000 1.0
C      1  0.5333140000000  0.5721730000000  0.5633550000000 1.0
C      1  0.5615880000000  0.4178990000000  0.4913660000000 1.0
C      1  0.5478620000000  0.4378250000000  0.4418990000000 1.0
C      1  0.5652870000000  0.4726960000000  0.5603110000000 1.0
C      1  0.4647630000000  0.4753990000000  0.4880440000000 1.0
C      1  0.3998410000000  0.4783300000000  0.5384360000000 1.0
C      1  0.5625160000000  0.5772320000000  0.5038750000000 1.0
C      1  0.4482290000000  0.4543820000000  0.5770290000000 1.0
C      1  0.5925770000000  0.5372200000000  0.4988260000000 1.0
C      1  0.4107410000000  0.5317050000000  0.4990080000000 1.0
C      1  0.5785310000000  0.4305060000000  0.5092820000000 1.0
C      1  0.4675400000000  0.5087720000000  0.5887710000000 1.0
C      1  0.5858130000000  0.4899520000000  0.5465650000000 1.0
END
