TITL C-884135-4325-420 20.1341737209084 125000 -22005.9276038472 0 0 148 (C1) n - 1
REM
REM in /home/nfs/bkarasulu/CARBON/AIRSS/Generating-Clusters/ReaxFF-fromJPCA2015/Units_Real/with-SteepDescent/Only-C1/SD-CG/Try1-3A/FIRE-CG
REM
REM
REM
REM
REM
REM ./C.cell (11c1c37f851c82e70ff6c80c92926a4b)
REM
REM compiler GCC version 9.2.1 20190827 (Red Hat 9.2.1-1)
REM options -cpp -mtune=generic -march=x86-64 -g -O0 -fpre-include=/usr/include/finclude/math-vector-fortran.h
REM seed -451733316 411820032 -259999051 1909817529 -1450197541 -494066939 1893846922 1052571655 -1108659054 -1834922752 1459205574 673272395 -1046944 -1853022791 -833358498 826247756 -1728887338 428300977 2139560725 -710877781 -2076769724 -901550347 1920747573 -1844129271 269930973 1791952500 240912462 1941150103 -1929082262 208514179 1212062957 -1849591884 1428486500
REM
CELL 1.54180   50.00000   50.00000   50.00000   90.00000   90.00000   90.00000
LATT -1
SFAC C  
C      1  0.4423450000000  0.5660040000000  0.4595910000000 1.0
C      1  0.4978210000000  0.5079530000000  0.5111530000000 1.0
C      1  0.5722140000000  0.5489970000000  0.4866170000000 1.0
C      1  0.4316770000000  0.4564450000000  0.5611250000000 1.0
C      1  0.5271800000000  0.4894170000000  0.4075070000000 1.0
C      1  0.4992300000000  0.5044460000000  0.4119560000000 1.0
C      1  0.4094040000000  0.4594640000000  0.5233710000000 1.0
C      1  0.5622950000000  0.5710370000000  0.5321080000000 1.0
C      1  0.4900330000000  0.5868020000000  0.4455640000000 1.0
C      1  0.4787120000000  0.4829820000000  0.4030610000000 1.0
C      1  0.5230500000000  0.5891300000000  0.4779400000000 1.0
C      1  0.5897920000000  0.5183900000000  0.4435090000000 1.0
C      1  0.5002880000000  0.5383900000000  0.5096400000000 1.0
C      1  0.4276560000000  0.5198610000000  0.4401560000000 1.0
C      1  0.4126230000000  0.5091300000000  0.4907400000000 1.0
C      1  0.5087660000000  0.5241960000000  0.4618840000000 1.0
C      1  0.4541760000000  0.4087030000000  0.5216910000000 1.0
C      1  0.4615660000000  0.5437710000000  0.4524220000000 1.0
C      1  0.5307910000000  0.4581780000000  0.4704300000000 1.0
C      1  0.5698610000000  0.5384340000000  0.4357420000000 1.0
C      1  0.5125150000000  0.4028820000000  0.4774540000000 1.0
C      1  0.4213950000000  0.5431110000000  0.4559200000000 1.0
C      1  0.4093430000000  0.4843820000000  0.5377800000000 1.0
C      1  0.4836420000000  0.4391230000000  0.4289700000000 1.0
C      1  0.4908100000000  0.4244830000000  0.5744210000000 1.0
C      1  0.5709700000000  0.5036810000000  0.5274440000000 1.0
C      1  0.5447670000000  0.4230140000000  0.4424060000000 1.0
C      1  0.5044490000000  0.5590590000000  0.5286290000000 1.0
C      1  0.5219550000000  0.4671210000000  0.5943090000000 1.0
C      1  0.4149000000000  0.5366900000000  0.4831070000000 1.0
C      1  0.4589130000000  0.5302990000000  0.4969630000000 1.0
C      1  0.4916330000000  0.5913590000000  0.4731940000000 1.0
C      1  0.4970030000000  0.5335220000000  0.4057610000000 1.0
C      1  0.4828550000000  0.5042300000000  0.6028080000000 1.0
C      1  0.4920460000000  0.5093590000000  0.4432490000000 1.0
C      1  0.5499840000000  0.5054560000000  0.4117950000000 1.0
C      1  0.5782210000000  0.4983970000000  0.5533780000000 1.0
C      1  0.5328280000000  0.5128080000000  0.5532500000000 1.0
C      1  0.5629360000000  0.4526720000000  0.4178570000000 1.0
C      1  0.5592240000000  0.5992640000000  0.5160770000000 1.0
C      1  0.4592840000000  0.4093990000000  0.4628020000000 1.0
C      1  0.5042480000000  0.5106010000000  0.5571730000000 1.0
C      1  0.4338600000000  0.4120010000000  0.4752860000000 1.0
C      1  0.4300910000000  0.5353780000000  0.5589400000000 1.0
C      1  0.4210620000000  0.4945060000000  0.4522190000000 1.0
C      1  0.5198240000000  0.5475990000000  0.4171640000000 1.0
C      1  0.5360740000000  0.5740210000000  0.4542090000000 1.0
C      1  0.5047830000000  0.4570280000000  0.5430370000000 1.0
C      1  0.5872380000000  0.5490560000000  0.5384900000000 1.0
C      1  0.5559790000000  0.4246930000000  0.4914750000000 1.0
C      1  0.5986720000000  0.5514420000000  0.5608800000000 1.0
C      1  0.4888760000000  0.4735020000000  0.5662140000000 1.0
C      1  0.5909800000000  0.4633820000000  0.5002500000000 1.0
C      1  0.5474050000000  0.4656350000000  0.5793750000000 1.0
C      1  0.5571990000000  0.4695520000000  0.4678950000000 1.0
C      1  0.4569310000000  0.4269320000000  0.4377800000000 1.0
C      1  0.4791600000000  0.4466640000000  0.5380220000000 1.0
C      1  0.5512590000000  0.4569540000000  0.5286100000000 1.0
C      1  0.4096200000000  0.4588070000000  0.4944540000000 1.0
C      1  0.4557250000000  0.5626410000000  0.5396770000000 1.0
C      1  0.4915180000000  0.4811520000000  0.4483030000000 1.0
C      1  0.5484240000000  0.5171880000000  0.4650050000000 1.0
C      1  0.5080230000000  0.5442730000000  0.4830630000000 1.0
C      1  0.4214660000000  0.4848760000000  0.4794440000000 1.0
C      1  0.4589360000000  0.5365520000000  0.5242320000000 1.0
C      1  0.5182440000000  0.4149800000000  0.4520070000000 1.0
C      1  0.4893350000000  0.5009440000000  0.5362640000000 1.0
C      1  0.5594910000000  0.4942240000000  0.4545190000000 1.0
C      1  0.4217180000000  0.4383010000000  0.5434300000000 1.0
C      1  0.5901960000000  0.5231540000000  0.5224630000000 1.0
C      1  0.4663910000000  0.4341590000000  0.5607840000000 1.0
C      1  0.4711010000000  0.5305350000000  0.4733270000000 1.0
C      1  0.4627200000000  0.5810350000000  0.4380190000000 1.0
C      1  0.5633910000000  0.4291340000000  0.4640060000000 1.0
C      1  0.5690360000000  0.4440000000000  0.5094010000000 1.0
C      1  0.4634550000000  0.4814070000000  0.4538630000000 1.0
C      1  0.4832600000000  0.4078000000000  0.4823980000000 1.0
C      1  0.5442070000000  0.5758840000000  0.5558110000000 1.0
C      1  0.5836920000000  0.4655190000000  0.4294550000000 1.0
C      1  0.5405400000000  0.4384020000000  0.4160050000000 1.0
C      1  0.4712140000000  0.5550810000000  0.4282960000000 1.0
C      1  0.4642700000000  0.4547940000000  0.4945940000000 1.0
C      1  0.4521180000000  0.4902440000000  0.4105460000000 1.0
C      1  0.5306670000000  0.5531960000000  0.5688840000000 1.0
C      1  0.5014200000000  0.5654740000000  0.5960730000000 1.0
C      1  0.4694990000000  0.5871550000000  0.4922520000000 1.0
C      1  0.4602640000000  0.5931890000000  0.5360780000000 1.0
C      1  0.4258280000000  0.5538820000000  0.5056350000000 1.0
C      1  0.5273270000000  0.4152840000000  0.4996900000000 1.0
C      1  0.4683940000000  0.5355190000000  0.4077470000000 1.0
C      1  0.5906510000000  0.5277140000000  0.4932220000000 1.0
C      1  0.5494140000000  0.4475180000000  0.5565570000000 1.0
C      1  0.5759330000000  0.4955280000000  0.4282400000000 1.0
C      1  0.5237800000000  0.4345750000000  0.5506430000000 1.0
C      1  0.5219010000000  0.4609940000000  0.4076750000000 1.0
C      1  0.4469740000000  0.5176030000000  0.4162840000000 1.0
C      1  0.4762950000000  0.4635610000000  0.5913610000000 1.0
C      1  0.5527840000000  0.5571500000000  0.5062890000000 1.0
C      1  0.4395670000000  0.4759630000000  0.4357870000000 1.0
C      1  0.5218760000000  0.5944790000000  0.5551210000000 1.0
C      1  0.4445220000000  0.4194290000000  0.5470120000000 1.0
C      1  0.5324150000000  0.6006870000000  0.5065860000000 1.0
C      1  0.5161520000000  0.5711160000000  0.4346700000000 1.0
C      1  0.5467110000000  0.5333600000000  0.4177340000000 1.0
C      1  0.5103110000000  0.5912390000000  0.5260450000000 1.0
C      1  0.5661550000000  0.4888030000000  0.5769800000000 1.0
C      1  0.4731430000000  0.5055110000000  0.4889860000000 1.0
C      1  0.4805040000000  0.5496980000000  0.5772180000000 1.0
C      1  0.4182240000000  0.5398750000000  0.5313300000000 1.0
C      1  0.5242050000000  0.5465150000000  0.5968480000000 1.0
C      1  0.5037120000000  0.5529890000000  0.5566600000000 1.0
C      1  0.4431960000000  0.4274620000000  0.5000660000000 1.0
C      1  0.4893910000000  0.4413250000000  0.4820580000000 1.0
C      1  0.5156040000000  0.4807430000000  0.4635560000000 1.0
C      1  0.4467580000000  0.5110880000000  0.5302060000000 1.0
C      1  0.4343420000000  0.5085880000000  0.5746540000000 1.0
C      1  0.4162620000000  0.5108320000000  0.5217960000000 1.0
C      1  0.4810960000000  0.5990550000000  0.5167930000000 1.0
C      1  0.5245730000000  0.4960430000000  0.5084110000000 1.0
C      1  0.5428180000000  0.5081380000000  0.5273410000000 1.0
C      1  0.4632580000000  0.4887450000000  0.5336370000000 1.0
C      1  0.5957930000000  0.4789180000000  0.4767190000000 1.0
C      1  0.5276670000000  0.5629170000000  0.4921010000000 1.0
C      1  0.4510410000000  0.5535020000000  0.5666170000000 1.0
C      1  0.5014380000000  0.4444900000000  0.5932460000000 1.0
C      1  0.5951710000000  0.5086450000000  0.4711550000000 1.0
C      1  0.4989320000000  0.4379300000000  0.4534540000000 1.0
C      1  0.4901120000000  0.5214010000000  0.5801330000000 1.0
C      1  0.4648510000000  0.4622980000000  0.5217750000000 1.0
C      1  0.5247620000000  0.4659230000000  0.5178030000000 1.0
C      1  0.5811440000000  0.4546920000000  0.4578190000000 1.0
C      1  0.4443240000000  0.5712050000000  0.4899700000000 1.0
C      1  0.4348800000000  0.4440930000000  0.4337280000000 1.0
C      1  0.5253620000000  0.5050520000000  0.4753320000000 1.0
C      1  0.4922890000000  0.4576160000000  0.4078220000000 1.0
C      1  0.5292250000000  0.5173280000000  0.6002480000000 1.0
C      1  0.5065880000000  0.4065450000000  0.5260160000000 1.0
C      1  0.4810840000000  0.4021680000000  0.5135870000000 1.0
C      1  0.4217470000000  0.4829940000000  0.5638520000000 1.0
C      1  0.5087590000000  0.4101710000000  0.5550550000000 1.0
C      1  0.5173200000000  0.4457430000000  0.4944550000000 1.0
C      1  0.5076320000000  0.5902440000000  0.5806610000000 1.0
C      1  0.4550760000000  0.4804870000000  0.4815910000000 1.0
C      1  0.4560310000000  0.5025720000000  0.5914350000000 1.0
C      1  0.5563400000000  0.5488020000000  0.4602960000000 1.0
C      1  0.5486850000000  0.5126760000000  0.5784890000000 1.0
C      1  0.4151150000000  0.4316000000000  0.4878920000000 1.0
C      1  0.5118160000000  0.4938950000000  0.6024600000000 1.0
END
