TITL C-883739-1268-341 7.4498405690009 125000 -18460.995517887 0 0 124 (C1) n - 1
REM
REM in /home/nfs/bkarasulu/CARBON/AIRSS/Generating-Clusters/ReaxFF-fromJPCA2015/Units_Real/with-SteepDescent/Only-C1/SD-CG/Try1-3A/FIRE-CG
REM
REM
REM
REM
REM
REM ./C.cell (11c1c37f851c82e70ff6c80c92926a4b)
REM
REM compiler GCC version 9.2.1 20190827 (Red Hat 9.2.1-1)
REM options -cpp -mtune=generic -march=x86-64 -g -O0 -fpre-include=/usr/include/finclude/math-vector-fortran.h
REM seed 393633145 895411177 -2096279063 -1308858393 1322791774 491610015 930033570 -1564078314 -820082046 829691466 -422643479 2072341022 527818219 47411284 1237142164 943826138 -656872066 -1467474421 -367438107 -325311709 -1586868801 1852733743 2031937993 -1751222553 1044351477 -1035060078 1685114604 1108142472 649027275 -391525418 -1527482666 -1614617997 -343138136
REM
CELL 1.54180   50.00000   50.00000   50.00000   90.00000   90.00000   90.00000
LATT -1
SFAC C  
C      1  0.4231250000000  0.4442990000000  0.5430930000000 1.0
C      1  0.5374130000000  0.5272530000000  0.5581200000000 1.0
C      1  0.5376580000000  0.5018070000000  0.5731490000000 1.0
C      1  0.5145030000000  0.5561370000000  0.4457370000000 1.0
C      1  0.5047380000000  0.4547850000000  0.4485850000000 1.0
C      1  0.4962510000000  0.4767470000000  0.4104310000000 1.0
C      1  0.4479740000000  0.5210710000000  0.4985600000000 1.0
C      1  0.4971190000000  0.4212940000000  0.5357560000000 1.0
C      1  0.5448220000000  0.5178950000000  0.4478960000000 1.0
C      1  0.5406650000000  0.4301050000000  0.5535370000000 1.0
C      1  0.5797760000000  0.4891430000000  0.5333420000000 1.0
C      1  0.4874160000000  0.5431590000000  0.5866600000000 1.0
C      1  0.4886050000000  0.5119280000000  0.4698050000000 1.0
C      1  0.4690390000000  0.4086770000000  0.4503320000000 1.0
C      1  0.5819900000000  0.4599220000000  0.5352280000000 1.0
C      1  0.4255420000000  0.4738270000000  0.5028630000000 1.0
C      1  0.4398460000000  0.5613350000000  0.5274420000000 1.0
C      1  0.5105400000000  0.4694450000000  0.4731710000000 1.0
C      1  0.5371060000000  0.4121790000000  0.4755330000000 1.0
C      1  0.4828040000000  0.5979930000000  0.4452790000000 1.0
C      1  0.5564590000000  0.4316300000000  0.4642920000000 1.0
C      1  0.4003440000000  0.5204230000000  0.4954630000000 1.0
C      1  0.5453890000000  0.4194830000000  0.5026620000000 1.0
C      1  0.5735240000000  0.5210400000000  0.4460500000000 1.0
C      1  0.4689510000000  0.5788450000000  0.4941930000000 1.0
C      1  0.4836720000000  0.5301590000000  0.5425700000000 1.0
C      1  0.4836480000000  0.5891300000000  0.5236390000000 1.0
C      1  0.5467600000000  0.4913610000000  0.4945380000000 1.0
C      1  0.4639220000000  0.4488800000000  0.4231290000000 1.0
C      1  0.5392340000000  0.5252890000000  0.5287380000000 1.0
C      1  0.5440560000000  0.4567800000000  0.5611350000000 1.0
C      1  0.4276940000000  0.5405180000000  0.5440630000000 1.0
C      1  0.4846930000000  0.5517130000000  0.4909220000000 1.0
C      1  0.5179250000000  0.5356860000000  0.5117020000000 1.0
C      1  0.4844920000000  0.5035600000000  0.4075620000000 1.0
C      1  0.4403120000000  0.5085000000000  0.5741820000000 1.0
C      1  0.6028060000000  0.4729840000000  0.4744580000000 1.0
C      1  0.4356350000000  0.5006850000000  0.5140420000000 1.0
C      1  0.5070040000000  0.4399550000000  0.5862650000000 1.0
C      1  0.6056380000000  0.4729580000000  0.5010280000000 1.0
C      1  0.5004810000000  0.5780680000000  0.4319370000000 1.0
C      1  0.5004090000000  0.5117690000000  0.5550420000000 1.0
C      1  0.5124560000000  0.4526610000000  0.4035750000000 1.0
C      1  0.4750450000000  0.5911840000000  0.4711140000000 1.0
C      1  0.5258230000000  0.5318980000000  0.4293400000000 1.0
C      1  0.5525540000000  0.4986000000000  0.5228800000000 1.0
C      1  0.4736200000000  0.4206680000000  0.4221860000000 1.0
C      1  0.4122060000000  0.5455700000000  0.4970360000000 1.0
C      1  0.3970170000000  0.5418820000000  0.4740260000000 1.0
C      1  0.4649180000000  0.5359240000000  0.4396670000000 1.0
C      1  0.4898510000000  0.4619160000000  0.4983050000000 1.0
C      1  0.4304060000000  0.5581750000000  0.4366320000000 1.0
C      1  0.5348230000000  0.4662480000000  0.4935060000000 1.0
C      1  0.5243630000000  0.5838820000000  0.4860980000000 1.0
C      1  0.4919520000000  0.5107690000000  0.5836220000000 1.0
C      1  0.4654650000000  0.4610640000000  0.5561320000000 1.0
C      1  0.5074290000000  0.4879780000000  0.5409950000000 1.0
C      1  0.4961810000000  0.4295790000000  0.4076880000000 1.0
C      1  0.5537620000000  0.4485370000000  0.4405480000000 1.0
C      1  0.4432330000000  0.4620100000000  0.4365170000000 1.0
C      1  0.4733790000000  0.4828540000000  0.5094300000000 1.0
C      1  0.4117370000000  0.4697960000000  0.5511170000000 1.0
C      1  0.5722310000000  0.5570090000000  0.5313330000000 1.0
C      1  0.4742610000000  0.5086290000000  0.4957330000000 1.0
C      1  0.5024700000000  0.5651040000000  0.5791160000000 1.0
C      1  0.5352830000000  0.5068060000000  0.4729620000000 1.0
C      1  0.5999020000000  0.4730110000000  0.4472040000000 1.0
C      1  0.4831380000000  0.4656050000000  0.4331600000000 1.0
C      1  0.4221660000000  0.4971500000000  0.4582680000000 1.0
C      1  0.6060000000000  0.5252600000000  0.5103880000000 1.0
C      1  0.4751130000000  0.5807380000000  0.4230020000000 1.0
C      1  0.4200820000000  0.4971230000000  0.5560440000000 1.0
C      1  0.4884760000000  0.5312260000000  0.5139810000000 1.0
C      1  0.5398770000000  0.5715140000000  0.5636600000000 1.0
C      1  0.5152860000000  0.4582480000000  0.5135160000000 1.0
C      1  0.5737750000000  0.4683800000000  0.4323680000000 1.0
C      1  0.5869180000000  0.4515750000000  0.5080070000000 1.0
C      1  0.4639130000000  0.4971280000000  0.5858740000000 1.0
C      1  0.5661710000000  0.4437550000000  0.5543750000000 1.0
C      1  0.5606660000000  0.4434840000000  0.4925590000000 1.0
C      1  0.5953830000000  0.5300020000000  0.4873650000000 1.0
C      1  0.5351810000000  0.4820720000000  0.5502540000000 1.0
C      1  0.5795260000000  0.5395770000000  0.4692180000000 1.0
C      1  0.5915040000000  0.5384180000000  0.5266440000000 1.0
C      1  0.4669750000000  0.4363180000000  0.4971130000000 1.0
C      1  0.5258030000000  0.4480570000000  0.4300720000000 1.0
C      1  0.4402800000000  0.5491950000000  0.4997840000000 1.0
C      1  0.5122470000000  0.4273280000000  0.5600610000000 1.0
C      1  0.4423430000000  0.4503240000000  0.4878620000000 1.0
C      1  0.4703270000000  0.4263980000000  0.5264850000000 1.0
C      1  0.5113820000000  0.5898340000000  0.5325770000000 1.0
C      1  0.5575660000000  0.5513430000000  0.5576970000000 1.0
C      1  0.4114640000000  0.4610430000000  0.5246340000000 1.0
C      1  0.5364890000000  0.5682150000000  0.4645420000000 1.0
C      1  0.5569390000000  0.5693010000000  0.5089400000000 1.0
C      1  0.4611000000000  0.5782570000000  0.5337600000000 1.0
C      1  0.4451840000000  0.4206810000000  0.4588910000000 1.0
C      1  0.5089210000000  0.4136040000000  0.4837680000000 1.0
C      1  0.4514880000000  0.4374780000000  0.5458450000000 1.0
C      1  0.4806190000000  0.4766590000000  0.5364770000000 1.0
C      1  0.4862350000000  0.4547710000000  0.5997580000000 1.0
C      1  0.4557600000000  0.5599410000000  0.4247120000000 1.0
C      1  0.5585330000000  0.5593860000000  0.4803880000000 1.0
C      1  0.4430210000000  0.5355680000000  0.5665080000000 1.0
C      1  0.4178210000000  0.5149550000000  0.5328320000000 1.0
C      1  0.4087020000000  0.4948290000000  0.4832830000000 1.0
C      1  0.4647150000000  0.4685710000000  0.5847440000000 1.0
C      1  0.5156840000000  0.5853590000000  0.5625360000000 1.0
C      1  0.5131860000000  0.4666280000000  0.5994540000000 1.0
C      1  0.5105220000000  0.4964720000000  0.4679620000000 1.0
C      1  0.5077120000000  0.5156700000000  0.4165820000000 1.0
C      1  0.5123360000000  0.5578840000000  0.4957400000000 1.0
C      1  0.4414000000000  0.4911450000000  0.4362230000000 1.0
C      1  0.4694660000000  0.5455240000000  0.5637060000000 1.0
C      1  0.5341330000000  0.5872530000000  0.5138020000000 1.0
C      1  0.5172150000000  0.4944620000000  0.5920140000000 1.0
C      1  0.4329990000000  0.4461870000000  0.4604990000000 1.0
C      1  0.4126110000000  0.5511600000000  0.4531840000000 1.0
C      1  0.5836490000000  0.4957770000000  0.4353720000000 1.0
C      1  0.4876970000000  0.5392520000000  0.4599870000000 1.0
C      1  0.6029360000000  0.4987130000000  0.5196460000000 1.0
C      1  0.5173240000000  0.4281960000000  0.5132380000000 1.0
C      1  0.4825150000000  0.4164430000000  0.4759170000000 1.0
C      1  0.4611770000000  0.5103910000000  0.4258260000000 1.0
END
