TITL C-884139-6216-76 16.455223810466 125000 -11065.1112396509 0 0 76 (C1) n - 1
REM
REM in /home/nfs/bkarasulu/CARBON/AIRSS/Generating-Clusters/ReaxFF-fromJPCA2015/Units_Real/with-SteepDescent/Only-C1/SD-CG/Try1-3A/FIRE-CG
REM
REM
REM
REM
REM
REM ./C.cell (11c1c37f851c82e70ff6c80c92926a4b)
REM
REM compiler GCC version 9.2.1 20190827 (Red Hat 9.2.1-1)
REM options -cpp -mtune=generic -march=x86-64 -g -O0 -fpre-include=/usr/include/finclude/math-vector-fortran.h
REM seed -1081598229 1870840706 -820563327 -1549950376 569561062 -174039650 -1890256593 2145909386 -882944724 269402899 1718712039 521074950 -1081233820 2018499154 1604396375 95456193 2066425501 1317064112 474458141 -1335935986 1591041475 713940579 -998089144 1613605099 -249554384 1592922418 877319555 -2115805052 -645412031 -742774086 2034376906 982011773 1075477374
REM
CELL 1.54180   50.00000   50.00000   50.00000   90.00000   90.00000   90.00000
LATT -1
SFAC C  
C      1  0.4849960000000  0.5450890000000  0.4450720000000 1.0
C      1  0.5445750000000  0.5789060000000  0.5046760000000 1.0
C      1  0.5524040000000  0.4537320000000  0.5004590000000 1.0
C      1  0.5010570000000  0.4949410000000  0.4634930000000 1.0
C      1  0.5220490000000  0.5384640000000  0.5151000000000 1.0
C      1  0.4475430000000  0.4652700000000  0.4471830000000 1.0
C      1  0.4750830000000  0.4550560000000  0.4508810000000 1.0
C      1  0.5267340000000  0.4378970000000  0.5428820000000 1.0
C      1  0.4419510000000  0.5465210000000  0.4651270000000 1.0
C      1  0.4396410000000  0.4810890000000  0.5532170000000 1.0
C      1  0.5190420000000  0.5854840000000  0.5169690000000 1.0
C      1  0.4176580000000  0.5002220000000  0.4805220000000 1.0
C      1  0.4617510000000  0.5017480000000  0.5098420000000 1.0
C      1  0.4650710000000  0.4944260000000  0.5629190000000 1.0
C      1  0.4939730000000  0.5015180000000  0.4125620000000 1.0
C      1  0.4253600000000  0.5262830000000  0.4747210000000 1.0
C      1  0.5102700000000  0.4630890000000  0.5735650000000 1.0
C      1  0.4830520000000  0.4744430000000  0.4742790000000 1.0
C      1  0.5433320000000  0.5047040000000  0.5506690000000 1.0
C      1  0.4792650000000  0.4407640000000  0.5077520000000 1.0
C      1  0.5368200000000  0.4592690000000  0.5590310000000 1.0
C      1  0.4521230000000  0.4503850000000  0.5148900000000 1.0
C      1  0.5063310000000  0.4756000000000  0.4179360000000 1.0
C      1  0.4993400000000  0.4391640000000  0.5590990000000 1.0
C      1  0.4762530000000  0.4983330000000  0.5345110000000 1.0
C      1  0.5434480000000  0.5326980000000  0.4479750000000 1.0
C      1  0.4988760000000  0.5551840000000  0.4685090000000 1.0
C      1  0.5685000000000  0.4726910000000  0.5207040000000 1.0
C      1  0.4326880000000  0.4904870000000  0.4541920000000 1.0
C      1  0.5057610000000  0.5353590000000  0.4916170000000 1.0
C      1  0.4269860000000  0.5009640000000  0.5366510000000 1.0
C      1  0.5337950000000  0.5181070000000  0.5758520000000 1.0
C      1  0.4601140000000  0.5250310000000  0.5632740000000 1.0
C      1  0.4596640000000  0.5361110000000  0.4432020000000 1.0
C      1  0.4543950000000  0.5525060000000  0.4917280000000 1.0
C      1  0.5221420000000  0.4989250000000  0.4132830000000 1.0
C      1  0.4963880000000  0.5278710000000  0.4267990000000 1.0
C      1  0.4898860000000  0.4677800000000  0.5055620000000 1.0
C      1  0.5123260000000  0.5112680000000  0.4788010000000 1.0
C      1  0.4906600000000  0.5807230000000  0.5096390000000 1.0
C      1  0.5594250000000  0.4784120000000  0.4539170000000 1.0
C      1  0.5460630000000  0.5773530000000  0.4743150000000 1.0
C      1  0.5365640000000  0.4997380000000  0.4802900000000 1.0
C      1  0.5227250000000  0.4437060000000  0.4554650000000 1.0
C      1  0.5339450000000  0.4771960000000  0.4979130000000 1.0
C      1  0.4475350000000  0.4536740000000  0.5447350000000 1.0
C      1  0.5061130000000  0.5604690000000  0.5247260000000 1.0
C      1  0.4933860000000  0.4858010000000  0.5786820000000 1.0
C      1  0.5482210000000  0.4556090000000  0.4659870000000 1.0
C      1  0.4528160000000  0.5302820000000  0.5124010000000 1.0
C      1  0.4883760000000  0.5314390000000  0.5678780000000 1.0
C      1  0.5205300000000  0.4149700000000  0.4990250000000 1.0
C      1  0.5208660000000  0.5080840000000  0.5311500000000 1.0
C      1  0.5592230000000  0.5087290000000  0.4623760000000 1.0
C      1  0.5698370000000  0.5347770000000  0.5031490000000 1.0
C      1  0.5125090000000  0.4215320000000  0.4714500000000 1.0
C      1  0.5257440000000  0.5448120000000  0.5760690000000 1.0
C      1  0.5555930000000  0.4788520000000  0.5469650000000 1.0
C      1  0.4454240000000  0.4767400000000  0.5030010000000 1.0
C      1  0.4778960000000  0.5691890000000  0.4867730000000 1.0
C      1  0.5039440000000  0.5114410000000  0.5846030000000 1.0
C      1  0.5796800000000  0.5144260000000  0.4874100000000 1.0
C      1  0.5017140000000  0.4553150000000  0.4380760000000 1.0
C      1  0.4731640000000  0.4450380000000  0.5520170000000 1.0
C      1  0.5512010000000  0.5516560000000  0.5136520000000 1.0
C      1  0.5260330000000  0.5241520000000  0.4266850000000 1.0
C      1  0.5317710000000  0.5564220000000  0.4597080000000 1.0
C      1  0.4761940000000  0.5013520000000  0.4662890000000 1.0
C      1  0.4559920000000  0.5068010000000  0.4460760000000 1.0
C      1  0.4424450000000  0.5268130000000  0.5398270000000 1.0
C      1  0.5127490000000  0.4806800000000  0.5170880000000 1.0
C      1  0.4208130000000  0.4905980000000  0.5091450000000 1.0
C      1  0.4921850000000  0.4191940000000  0.4928030000000 1.0
C      1  0.4949470000000  0.5183250000000  0.5419850000000 1.0
C      1  0.5360210000000  0.4331530000000  0.5158740000000 1.0
C      1  0.5770550000000  0.4951760000000  0.5073470000000 1.0
END
