TITL C-884134-5972-36 5895750.14809691 125000 -22077.3121738769 0 0 148 (C1) n - 1
REM
REM in /home/nfs/bkarasulu/CARBON/AIRSS/Generating-Clusters/ReaxFF-fromJPCA2015/Units_Real/with-SteepDescent/Only-C1/SD-CG/Try1-3A/FIRE-CG
REM
REM
REM
REM
REM
REM ./C.cell (11c1c37f851c82e70ff6c80c92926a4b)
REM
REM compiler GCC version 9.2.1 20190827 (Red Hat 9.2.1-1)
REM options -cpp -mtune=generic -march=x86-64 -g -O0 -fpre-include=/usr/include/finclude/math-vector-fortran.h
REM seed -1539800813 969889066 -3634121 -1400097007 -711674358 -213971940 1304680530 1556571631 363646095 -1038610446 67682259 828321498 2043884433 2107107722 -1300446491 1802974349 1584646033 593655417 -1257400683 2083988342 920373378 -1496039374 1614792663 -1146783636 141804287 -596506078 -1704827041 -1275066673 -1684814850 -1858366095 2133472132 -822588720 1522551091
REM
CELL 1.54180   50.00000   50.00000   50.00000   90.00000   90.00000   90.00000
LATT -1
SFAC C  
C      1  0.5227900000000  0.4793320000000  0.5678480000000 1.0
C      1  0.5375930000000  0.5232630000000  0.4103630000000 1.0
C      1  0.4732020000000  0.4172400000000  0.4602350000000 1.0
C      1  0.5897960000000  0.4783010000000  0.5122140000000 1.0
C      1  0.4151450000000  0.5414990000000  0.4564510000000 1.0
C      1  0.4108200000000  0.4588730000000  0.4808610000000 1.0
C      1  0.4295630000000  0.4698610000000  0.4277240000000 1.0
C      1  0.4339840000000  0.5548470000000  0.5495450000000 1.0
C      1  0.5200800000000  0.5911760000000  0.4949970000000 1.0
C      1  0.4675750000000  0.4583360000000  0.5324240000000 1.0
C      1  0.4001490000000  0.5332710000000  0.4798520000000 1.0
C      1  0.5421700000000  0.5250950000000  0.4629280000000 1.0
C      1  0.4229070000000  0.4809200000000  0.5599460000000 1.0
C      1  0.4747370000000  0.4539350000000  0.4833000000000 1.0
C      1  0.4134420000000  0.4543860000000  0.5102110000000 1.0
C      1  0.4656410000000  0.5083320000000  0.5384840000000 1.0
C      1  0.4312070000000  0.4220150000000  0.4884100000000 1.0
C      1  0.6065490000000  0.5018580000000  0.5126240000000 1.0
C      1  0.6074400000000  0.5204450000000  0.4902170000000 1.0
C      1  0.4570960000000  0.5615220000000  0.5730060000000 1.0
C      1  0.5006200000000  0.5069870000000  0.4498130000000 1.0
C      1  0.4312720000000  0.4433960000000  0.4637910000000 1.0
C      1  0.4687030000000  0.5930030000000  0.5195000000000 1.0
C      1  0.5249670000000  0.4759650000000  0.4101230000000 1.0
C      1  0.4597370000000  0.4628130000000  0.4592850000000 1.0
C      1  0.5568290000000  0.4240170000000  0.4730700000000 1.0
C      1  0.4726510000000  0.6049230000000  0.4938110000000 1.0
C      1  0.4750920000000  0.4846790000000  0.4978220000000 1.0
C      1  0.5987250000000  0.5176710000000  0.5358400000000 1.0
C      1  0.5979170000000  0.4545150000000  0.5242290000000 1.0
C      1  0.4498150000000  0.5720460000000  0.5134880000000 1.0
C      1  0.4133290000000  0.5339660000000  0.5569700000000 1.0
C      1  0.5742010000000  0.5083640000000  0.5488870000000 1.0
C      1  0.5338840000000  0.4530580000000  0.5596620000000 1.0
C      1  0.5000170000000  0.5336070000000  0.5193260000000 1.0
C      1  0.4908620000000  0.4163490000000  0.4232450000000 1.0
C      1  0.5698660000000  0.4861250000000  0.5673140000000 1.0
C      1  0.4563140000000  0.4084030000000  0.4834690000000 1.0
C      1  0.4494800000000  0.4367040000000  0.5390850000000 1.0
C      1  0.5005130000000  0.4883420000000  0.5096480000000 1.0
C      1  0.5625190000000  0.5045030000000  0.4171460000000 1.0
C      1  0.4892270000000  0.5049840000000  0.4000780000000 1.0
C      1  0.4463440000000  0.5979020000000  0.4821940000000 1.0
C      1  0.5735980000000  0.5602560000000  0.5372790000000 1.0
C      1  0.5866030000000  0.5360540000000  0.4807720000000 1.0
C      1  0.4817790000000  0.5329750000000  0.3988920000000 1.0
C      1  0.5789840000000  0.5160960000000  0.4372050000000 1.0
C      1  0.4508880000000  0.5190660000000  0.4314380000000 1.0
C      1  0.5121960000000  0.4302370000000  0.4849080000000 1.0
C      1  0.4291260000000  0.4318400000000  0.5165610000000 1.0
C      1  0.4586110000000  0.4847240000000  0.5243920000000 1.0
C      1  0.5672810000000  0.4165380000000  0.5037010000000 1.0
C      1  0.4742360000000  0.5179520000000  0.4579270000000 1.0
C      1  0.4860750000000  0.5557600000000  0.4155220000000 1.0
C      1  0.5968990000000  0.5458460000000  0.5279110000000 1.0
C      1  0.5412270000000  0.4616200000000  0.5073890000000 1.0
C      1  0.4409790000000  0.5138630000000  0.5897330000000 1.0
C      1  0.5250430000000  0.4082900000000  0.5367780000000 1.0
C      1  0.4722680000000  0.4835360000000  0.4119890000000 1.0
C      1  0.4089920000000  0.4760150000000  0.5326250000000 1.0
C      1  0.5047430000000  0.5421730000000  0.5907050000000 1.0
C      1  0.5325060000000  0.5696160000000  0.4390080000000 1.0
C      1  0.5124980000000  0.4331540000000  0.5543910000000 1.0
C      1  0.4850050000000  0.5747320000000  0.4600460000000 1.0
C      1  0.5610790000000  0.4836470000000  0.5062350000000 1.0
C      1  0.4700420000000  0.4270600000000  0.5007240000000 1.0
C      1  0.4635330000000  0.4226930000000  0.4327600000000 1.0
C      1  0.4450160000000  0.4916600000000  0.4157420000000 1.0
C      1  0.5375250000000  0.4815080000000  0.4656150000000 1.0
C      1  0.4900900000000  0.4193210000000  0.5183090000000 1.0
C      1  0.5393180000000  0.5859450000000  0.5363500000000 1.0
C      1  0.4982510000000  0.4457520000000  0.5308910000000 1.0
C      1  0.5472190000000  0.5123130000000  0.5097230000000 1.0
C      1  0.5501140000000  0.5222180000000  0.5351980000000 1.0
C      1  0.5828170000000  0.4430730000000  0.5448860000000 1.0
C      1  0.5149250000000  0.5922580000000  0.5234140000000 1.0
C      1  0.4389670000000  0.5575220000000  0.4640120000000 1.0
C      1  0.5190270000000  0.4116310000000  0.4363180000000 1.0
C      1  0.4566970000000  0.4413790000000  0.5677740000000 1.0
C      1  0.5523970000000  0.5310350000000  0.5793940000000 1.0
C      1  0.5848720000000  0.4673240000000  0.4595260000000 1.0
C      1  0.4614100000000  0.5038890000000  0.4802740000000 1.0
C      1  0.4979860000000  0.5072030000000  0.5311280000000 1.0
C      1  0.4224400000000  0.5183830000000  0.4403200000000 1.0
C      1  0.4823770000000  0.5275700000000  0.6011120000000 1.0
C      1  0.4537800000000  0.5815570000000  0.4595820000000 1.0
C      1  0.4276170000000  0.5879520000000  0.5029460000000 1.0
C      1  0.5238790000000  0.5223210000000  0.4420900000000 1.0
C      1  0.4442090000000  0.5222730000000  0.4941430000000 1.0
C      1  0.5283610000000  0.4371820000000  0.4273990000000 1.0
C      1  0.5621760000000  0.4582990000000  0.5589230000000 1.0
C      1  0.3922750000000  0.4950390000000  0.5218980000000 1.0
C      1  0.5220990000000  0.5258140000000  0.5696110000000 1.0
C      1  0.4825890000000  0.5514640000000  0.5316710000000 1.0
C      1  0.4831970000000  0.5445970000000  0.4757990000000 1.0
C      1  0.4932940000000  0.4388270000000  0.4653120000000 1.0
C      1  0.6034220000000  0.5468920000000  0.4993790000000 1.0
C      1  0.4816680000000  0.5754750000000  0.5672820000000 1.0
C      1  0.5350950000000  0.5664940000000  0.5608470000000 1.0
C      1  0.5124360000000  0.4802940000000  0.4570430000000 1.0
C      1  0.5622790000000  0.4827050000000  0.4740710000000 1.0
C      1  0.4770480000000  0.4670680000000  0.4360500000000 1.0
C      1  0.5072810000000  0.4599470000000  0.4330830000000 1.0
C      1  0.4960420000000  0.5951860000000  0.4793830000000 1.0
C      1  0.5530090000000  0.4762680000000  0.4160880000000 1.0
C      1  0.4367520000000  0.4415930000000  0.4345150000000 1.0
C      1  0.5354510000000  0.5519020000000  0.4168310000000 1.0
C      1  0.4571070000000  0.5387920000000  0.5912060000000 1.0
C      1  0.5300780000000  0.5403140000000  0.5472880000000 1.0
C      1  0.5326150000000  0.4859520000000  0.5948200000000 1.0
C      1  0.5382040000000  0.4422680000000  0.4878390000000 1.0
C      1  0.4882960000000  0.5824560000000  0.5360410000000 1.0
C      1  0.4249540000000  0.5739260000000  0.5272460000000 1.0
C      1  0.3944340000000  0.5053370000000  0.4907220000000 1.0
C      1  0.5463330000000  0.5771720000000  0.4887700000000 1.0
C      1  0.5333970000000  0.4045400000000  0.4616420000000 1.0
C      1  0.5561230000000  0.5028880000000  0.5876930000000 1.0
C      1  0.4441910000000  0.4680940000000  0.5742180000000 1.0
C      1  0.4556700000000  0.5480760000000  0.4878730000000 1.0
C      1  0.5024140000000  0.5679000000000  0.4362230000000 1.0
C      1  0.5157450000000  0.4006420000000  0.4841670000000 1.0
C      1  0.4169470000000  0.5225030000000  0.4976370000000 1.0
C      1  0.4863350000000  0.4392950000000  0.5738870000000 1.0
C      1  0.5684450000000  0.5395290000000  0.4589650000000 1.0
C      1  0.5170980000000  0.5012700000000  0.3999650000000 1.0
C      1  0.5147930000000  0.4652550000000  0.5167260000000 1.0
C      1  0.5711540000000  0.4425770000000  0.4526190000000 1.0
C      1  0.5478300000000  0.4117780000000  0.5217270000000 1.0
C      1  0.5066690000000  0.5672110000000  0.5781060000000 1.0
C      1  0.5053910000000  0.4802730000000  0.6055780000000 1.0
C      1  0.5095860000000  0.3980680000000  0.5136970000000 1.0
C      1  0.5874560000000  0.4288110000000  0.5203720000000 1.0
C      1  0.5511930000000  0.5664230000000  0.4628230000000 1.0
C      1  0.5301120000000  0.5242650000000  0.4893270000000 1.0
C      1  0.5555230000000  0.4494080000000  0.4295260000000 1.0
C      1  0.4553890000000  0.4890600000000  0.5925420000000 1.0
C      1  0.4136600000000  0.4900800000000  0.4441910000000 1.0
C      1  0.4189430000000  0.5086160000000  0.5706490000000 1.0
C      1  0.4616630000000  0.5407700000000  0.4149910000000 1.0
C      1  0.4816200000000  0.4977670000000  0.6024970000000 1.0
C      1  0.4025450000000  0.4833460000000  0.4698550000000 1.0
C      1  0.5899310000000  0.4911880000000  0.4447170000000 1.0
C      1  0.5050950000000  0.5368480000000  0.4932160000000 1.0
C      1  0.5132060000000  0.5022430000000  0.5557080000000 1.0
C      1  0.5583750000000  0.5758140000000  0.5173010000000 1.0
C      1  0.5628170000000  0.5542670000000  0.5658800000000 1.0
C      1  0.4944030000000  0.4589420000000  0.5905450000000 1.0
C      1  0.4598940000000  0.5363290000000  0.5389470000000 1.0
END
