TITL C-883735-9890-131 -18.0784131434447 125000 -16326.6103723669 0 0 108 (C1) n - 1
REM
REM in /home/nfs/bkarasulu/CARBON/AIRSS/Generating-Clusters/ReaxFF-fromJPCA2015/Units_Real/with-SteepDescent/Only-C1/SD-CG/Try1-3A/FIRE-CG
REM
REM
REM
REM
REM
REM ./C.cell (11c1c37f851c82e70ff6c80c92926a4b)
REM
REM compiler GCC version 9.2.1 20190827 (Red Hat 9.2.1-1)
REM options -cpp -mtune=generic -march=x86-64 -g -O0 -fpre-include=/usr/include/finclude/math-vector-fortran.h
REM seed -815321249 2043679878 -605592019 903177303 -990932033 2140653779 -436164340 313977574 112141441 51261297 1170295862 -2019132451 625330895 -817325705 -1195263074 1323646711 -1475002295 1514318123 1648164032 992511056 1689936562 -654060949 103891151 -731765323 1568626417 160712129 -1558522688 -1223623279 -162669620 -846074164 -1543822455 -1218911280 1716733423
REM
CELL 1.54180   50.00000   50.00000   50.00000   90.00000   90.00000   90.00000
LATT -1
SFAC C  
C      1  0.4562640000000  0.4947290000000  0.5855560000000 1.0
C      1  0.5088420000000  0.4844890000000  0.4485440000000 1.0
C      1  0.5784100000000  0.5342840000000  0.5148430000000 1.0
C      1  0.4050050000000  0.4961870000000  0.4970790000000 1.0
C      1  0.4688300000000  0.5722300000000  0.5436780000000 1.0
C      1  0.4852340000000  0.4974560000000  0.5808900000000 1.0
C      1  0.4508800000000  0.4880630000000  0.4680790000000 1.0
C      1  0.4516410000000  0.5543810000000  0.4567200000000 1.0
C      1  0.4367950000000  0.4357770000000  0.5227940000000 1.0
C      1  0.5148170000000  0.5191510000000  0.5394550000000 1.0
C      1  0.5404230000000  0.5429950000000  0.4210060000000 1.0
C      1  0.5064860000000  0.5598090000000  0.5712300000000 1.0
C      1  0.5338410000000  0.5465360000000  0.5745180000000 1.0
C      1  0.4389700000000  0.4737350000000  0.5067520000000 1.0
C      1  0.5216820000000  0.4719980000000  0.4250480000000 1.0
C      1  0.5436330000000  0.5643200000000  0.5281430000000 1.0
C      1  0.5691200000000  0.4656830000000  0.5260510000000 1.0
C      1  0.4659580000000  0.5203670000000  0.5094840000000 1.0
C      1  0.4220930000000  0.5394820000000  0.5245280000000 1.0
C      1  0.5060200000000  0.4969380000000  0.4988510000000 1.0
C      1  0.4815410000000  0.5090440000000  0.4064760000000 1.0
C      1  0.4714100000000  0.4594810000000  0.5570690000000 1.0
C      1  0.4874380000000  0.5186070000000  0.5598080000000 1.0
C      1  0.4380220000000  0.4381930000000  0.4643680000000 1.0
C      1  0.4566540000000  0.5013390000000  0.4426560000000 1.0
C      1  0.5468080000000  0.5595180000000  0.4837390000000 1.0
C      1  0.5347480000000  0.5834900000000  0.4922500000000 1.0
C      1  0.5193670000000  0.4335430000000  0.4395990000000 1.0
C      1  0.4553570000000  0.5312410000000  0.4383480000000 1.0
C      1  0.5346890000000  0.4175400000000  0.5132120000000 1.0
C      1  0.4621550000000  0.4221200000000  0.5304100000000 1.0
C      1  0.5065460000000  0.5466870000000  0.4995120000000 1.0
C      1  0.4076700000000  0.5146090000000  0.4561260000000 1.0
C      1  0.4390140000000  0.5305850000000  0.5503160000000 1.0
C      1  0.5850260000000  0.4496510000000  0.4792000000000 1.0
C      1  0.5222820000000  0.5088280000000  0.4534900000000 1.0
C      1  0.4797340000000  0.5426810000000  0.4958240000000 1.0
C      1  0.5635030000000  0.4585930000000  0.5540170000000 1.0
C      1  0.5641370000000  0.5595530000000  0.5075330000000 1.0
C      1  0.5191510000000  0.5584610000000  0.4283770000000 1.0
C      1  0.5867410000000  0.4776040000000  0.4659750000000 1.0
C      1  0.4365390000000  0.4467970000000  0.4956310000000 1.0
C      1  0.5495520000000  0.4842370000000  0.5167090000000 1.0
C      1  0.4974850000000  0.4725860000000  0.4910720000000 1.0
C      1  0.4832880000000  0.4412230000000  0.4626150000000 1.0
C      1  0.4892970000000  0.4569080000000  0.5126230000000 1.0
C      1  0.4060250000000  0.5250490000000  0.5056040000000 1.0
C      1  0.4342280000000  0.5051130000000  0.5685120000000 1.0
C      1  0.5110220000000  0.5894450000000  0.4835110000000 1.0
C      1  0.5262200000000  0.5112890000000  0.4819470000000 1.0
C      1  0.4497720000000  0.4675100000000  0.5758540000000 1.0
C      1  0.5084130000000  0.5033220000000  0.4019330000000 1.0
C      1  0.5354790000000  0.4269940000000  0.4620410000000 1.0
C      1  0.5055440000000  0.4281300000000  0.5608490000000 1.0
C      1  0.5427360000000  0.5132110000000  0.4322920000000 1.0
C      1  0.4753660000000  0.5356060000000  0.4190210000000 1.0
C      1  0.5578980000000  0.5568390000000  0.4379880000000 1.0
C      1  0.4746070000000  0.4570920000000  0.4243440000000 1.0
C      1  0.5644570000000  0.5041050000000  0.5513730000000 1.0
C      1  0.4748200000000  0.5710540000000  0.4521270000000 1.0
C      1  0.5078140000000  0.4520320000000  0.5757820000000 1.0
C      1  0.4197240000000  0.4913220000000  0.4709880000000 1.0
C      1  0.4816850000000  0.5451220000000  0.5761440000000 1.0
C      1  0.5037930000000  0.4481450000000  0.4211290000000 1.0
C      1  0.4981900000000  0.5689080000000  0.5453070000000 1.0
C      1  0.5334670000000  0.4950400000000  0.4095530000000 1.0
C      1  0.5730390000000  0.5185370000000  0.4449520000000 1.0
C      1  0.4616260000000  0.4385760000000  0.4434030000000 1.0
C      1  0.4307280000000  0.4641110000000  0.5331060000000 1.0
C      1  0.4229740000000  0.4256990000000  0.4486380000000 1.0
C      1  0.4275600000000  0.4781260000000  0.5590940000000 1.0
C      1  0.4762990000000  0.4302610000000  0.5551000000000 1.0
C      1  0.4545910000000  0.4966440000000  0.4956680000000 1.0
C      1  0.4863180000000  0.4734380000000  0.5352760000000 1.0
C      1  0.5280860000000  0.4210790000000  0.5420280000000 1.0
C      1  0.5553560000000  0.4307620000000  0.5475990000000 1.0
C      1  0.5770130000000  0.5434860000000  0.4499460000000 1.0
C      1  0.5890250000000  0.5076940000000  0.4676770000000 1.0
C      1  0.5390120000000  0.5017440000000  0.5367100000000 1.0
C      1  0.5726090000000  0.5314580000000  0.5436960000000 1.0
C      1  0.5343550000000  0.5198130000000  0.5822080000000 1.0
C      1  0.5211460000000  0.4189410000000  0.4869720000000 1.0
C      1  0.4327140000000  0.5605950000000  0.5079860000000 1.0
C      1  0.5244700000000  0.5401780000000  0.4798200000000 1.0
C      1  0.5633120000000  0.4237740000000  0.5196470000000 1.0
C      1  0.5578430000000  0.4758670000000  0.4642960000000 1.0
C      1  0.5355990000000  0.4925600000000  0.5863550000000 1.0
C      1  0.4913230000000  0.5593270000000  0.4296440000000 1.0
C      1  0.5535670000000  0.5520360000000  0.5523700000000 1.0
C      1  0.4647430000000  0.5202740000000  0.5384840000000 1.0
C      1  0.5783750000000  0.5133860000000  0.4945130000000 1.0
C      1  0.5154210000000  0.5511900000000  0.5260230000000 1.0
C      1  0.4822460000000  0.4286790000000  0.5101810000000 1.0
C      1  0.4924300000000  0.4218880000000  0.4836140000000 1.0
C      1  0.4545900000000  0.5774600000000  0.5182440000000 1.0
C      1  0.4312060000000  0.5550030000000  0.4781690000000 1.0
C      1  0.5589410000000  0.4823660000000  0.5707440000000 1.0
C      1  0.4999230000000  0.4976820000000  0.5258800000000 1.0
C      1  0.5585940000000  0.4465350000000  0.4654420000000 1.0
C      1  0.4711410000000  0.5706650000000  0.4954410000000 1.0
C      1  0.4683170000000  0.4858440000000  0.4214880000000 1.0
C      1  0.5542830000000  0.4951900000000  0.4896870000000 1.0
C      1  0.4573710000000  0.5538940000000  0.5631670000000 1.0
C      1  0.4843310000000  0.5876350000000  0.4745100000000 1.0
C      1  0.4095510000000  0.5361630000000  0.4775120000000 1.0
C      1  0.5077110000000  0.4785450000000  0.5854040000000 1.0
C      1  0.4882900000000  0.4707320000000  0.4650250000000 1.0
C      1  0.5796120000000  0.4451030000000  0.5077740000000 1.0
END
