TITL C-884138-6203-63 18.2451202953398 125000 -17478.0672573166 0 0 116 (C1) n - 1
REM
REM in /home/nfs/bkarasulu/CARBON/AIRSS/Generating-Clusters/ReaxFF-fromJPCA2015/Units_Real/with-SteepDescent/Only-C1/SD-CG/Try1-3A/FIRE-CG
REM
REM
REM
REM
REM
REM ./C.cell (11c1c37f851c82e70ff6c80c92926a4b)
REM
REM compiler GCC version 9.2.1 20190827 (Red Hat 9.2.1-1)
REM options -cpp -mtune=generic -march=x86-64 -g -O0 -fpre-include=/usr/include/finclude/math-vector-fortran.h
REM seed 245787455 -592618024 -691474294 -1692219593 -1494818553 -1828367102 944154869 1143777451 -1001880852 -1759771693 -346279573 -1387298227 -1620865568 -1134638590 -1602074778 -1656920399 287837056 1138141739 -1469933024 -222828393 -1214179112 -1231405939 1931749576 -1145184287 570358963 1264825241 1999685827 -552079464 53081066 1338001904 1106776581 890221367 -182535361
REM
CELL 1.54180   50.00000   50.00000   50.00000   90.00000   90.00000   90.00000
LATT -1
SFAC C  
C      1  0.5363220000000  0.5260180000000  0.4358630000000 1.0
C      1  0.4590690000000  0.4853780000000  0.4805970000000 1.0
C      1  0.4353170000000  0.4270090000000  0.5054250000000 1.0
C      1  0.5333370000000  0.5000350000000  0.5670850000000 1.0
C      1  0.5373210000000  0.5529150000000  0.4393080000000 1.0
C      1  0.4357630000000  0.5420980000000  0.4494180000000 1.0
C      1  0.4695860000000  0.4991680000000  0.5345860000000 1.0
C      1  0.5058580000000  0.4332830000000  0.4521270000000 1.0
C      1  0.4955560000000  0.4667530000000  0.5787160000000 1.0
C      1  0.5201750000000  0.5860630000000  0.5614800000000 1.0
C      1  0.5579900000000  0.5098680000000  0.4294110000000 1.0
C      1  0.5872430000000  0.4854390000000  0.4656490000000 1.0
C      1  0.5980050000000  0.4957740000000  0.5208740000000 1.0
C      1  0.5939750000000  0.5207460000000  0.5109280000000 1.0
C      1  0.4947510000000  0.4342100000000  0.5352040000000 1.0
C      1  0.4303580000000  0.5224300000000  0.5471080000000 1.0
C      1  0.5452650000000  0.4377950000000  0.5276330000000 1.0
C      1  0.5104390000000  0.4985260000000  0.4118980000000 1.0
C      1  0.5831030000000  0.4866210000000  0.5477460000000 1.0
C      1  0.5757140000000  0.4648020000000  0.5029780000000 1.0
C      1  0.5470900000000  0.4255530000000  0.4827270000000 1.0
C      1  0.4462510000000  0.4764320000000  0.5681570000000 1.0
C      1  0.5575730000000  0.4460800000000  0.4424770000000 1.0
C      1  0.5386400000000  0.4678480000000  0.4352070000000 1.0
C      1  0.4857460000000  0.4087330000000  0.4915390000000 1.0
C      1  0.5106530000000  0.5942340000000  0.5062320000000 1.0
C      1  0.5053010000000  0.5956790000000  0.4788650000000 1.0
C      1  0.4335040000000  0.5672620000000  0.4875570000000 1.0
C      1  0.4584310000000  0.4218170000000  0.4882590000000 1.0
C      1  0.5667060000000  0.5047150000000  0.5648710000000 1.0
C      1  0.4136000000000  0.5202970000000  0.4924300000000 1.0
C      1  0.5323240000000  0.5887770000000  0.5234250000000 1.0
C      1  0.5774330000000  0.5355000000000  0.4661210000000 1.0
C      1  0.4557190000000  0.5206010000000  0.5879170000000 1.0
C      1  0.5087400000000  0.4621990000000  0.5349880000000 1.0
C      1  0.5012530000000  0.5299370000000  0.5965760000000 1.0
C      1  0.5744020000000  0.5321870000000  0.5636370000000 1.0
C      1  0.5100670000000  0.5644700000000  0.4759760000000 1.0
C      1  0.4202530000000  0.4478000000000  0.4908350000000 1.0
C      1  0.4922540000000  0.5502220000000  0.5756900000000 1.0
C      1  0.5588620000000  0.5728440000000  0.4799500000000 1.0
C      1  0.4794340000000  0.5115990000000  0.6033430000000 1.0
C      1  0.4618290000000  0.5077970000000  0.4947610000000 1.0
C      1  0.5877010000000  0.5411740000000  0.4942740000000 1.0
C      1  0.4293940000000  0.5028850000000  0.4081040000000 1.0
C      1  0.4962720000000  0.5092690000000  0.4663920000000 1.0
C      1  0.4222070000000  0.5425480000000  0.4760970000000 1.0
C      1  0.4147810000000  0.4883080000000  0.5256580000000 1.0
C      1  0.5229330000000  0.5092770000000  0.4550280000000 1.0
C      1  0.4591040000000  0.4142770000000  0.4600660000000 1.0
C      1  0.5714580000000  0.4428520000000  0.4830790000000 1.0
C      1  0.4881730000000  0.4108900000000  0.4629380000000 1.0
C      1  0.4089710000000  0.4732680000000  0.5013610000000 1.0
C      1  0.4694840000000  0.4353860000000  0.5487360000000 1.0
C      1  0.5443650000000  0.5257030000000  0.5302610000000 1.0
C      1  0.5765870000000  0.5097280000000  0.4525740000000 1.0
C      1  0.5467870000000  0.5102010000000  0.5077080000000 1.0
C      1  0.5076080000000  0.5435270000000  0.5483400000000 1.0
C      1  0.5174500000000  0.4708020000000  0.4819140000000 1.0
C      1  0.4898430000000  0.4830410000000  0.5205950000000 1.0
C      1  0.5587250000000  0.5806560000000  0.5060690000000 1.0
C      1  0.5670370000000  0.4646230000000  0.5514380000000 1.0
C      1  0.4452630000000  0.5482090000000  0.5508250000000 1.0
C      1  0.5398240000000  0.4910040000000  0.4167920000000 1.0
C      1  0.4578310000000  0.5749770000000  0.4696510000000 1.0
C      1  0.4434330000000  0.4352720000000  0.4460050000000 1.0
C      1  0.4655580000000  0.4435650000000  0.4317980000000 1.0
C      1  0.4255380000000  0.4531980000000  0.4627570000000 1.0
C      1  0.4892850000000  0.5169890000000  0.4240960000000 1.0
C      1  0.4865610000000  0.5445430000000  0.4350810000000 1.0
C      1  0.4693720000000  0.4580920000000  0.5688810000000 1.0
C      1  0.4144590000000  0.5165190000000  0.5228520000000 1.0
C      1  0.5195470000000  0.5072520000000  0.5925710000000 1.0
C      1  0.5076880000000  0.5453710000000  0.4980860000000 1.0
C      1  0.4444010000000  0.5651180000000  0.5124470000000 1.0
C      1  0.4719450000000  0.4621500000000  0.5106850000000 1.0
C      1  0.5315110000000  0.4615900000000  0.5139540000000 1.0
C      1  0.5039150000000  0.4171820000000  0.5130110000000 1.0
C      1  0.4780530000000  0.5902060000000  0.4820900000000 1.0
C      1  0.4975360000000  0.4881120000000  0.5983920000000 1.0
C      1  0.5209940000000  0.4687010000000  0.5623470000000 1.0
C      1  0.4986350000000  0.4718280000000  0.4109860000000 1.0
C      1  0.4991100000000  0.4527490000000  0.4722510000000 1.0
C      1  0.5038810000000  0.4954920000000  0.4920550000000 1.0
C      1  0.5525390000000  0.4815990000000  0.5103430000000 1.0
C      1  0.4492760000000  0.4584630000000  0.5239590000000 1.0
C      1  0.4434800000000  0.4806400000000  0.5381710000000 1.0
C      1  0.4623900000000  0.5449800000000  0.5741180000000 1.0
C      1  0.5313020000000  0.4826160000000  0.4593190000000 1.0
C      1  0.4091790000000  0.4939430000000  0.4803430000000 1.0
C      1  0.5761480000000  0.5592700000000  0.5155600000000 1.0
C      1  0.4324840000000  0.4838700000000  0.3936920000000 1.0
C      1  0.5016940000000  0.5826180000000  0.5809300000000 1.0
C      1  0.5243680000000  0.5196900000000  0.5474360000000 1.0
C      1  0.4388380000000  0.5045330000000  0.5701340000000 1.0
C      1  0.4724040000000  0.4539910000000  0.4828510000000 1.0
C      1  0.4274500000000  0.5241420000000  0.4262990000000 1.0
C      1  0.5330260000000  0.4196390000000  0.5085340000000 1.0
C      1  0.5441590000000  0.4492020000000  0.5549390000000 1.0
C      1  0.4894590000000  0.5467110000000  0.5224180000000 1.0
C      1  0.5372240000000  0.4303490000000  0.4561520000000 1.0
C      1  0.5212920000000  0.5190390000000  0.4975410000000 1.0
C      1  0.5099980000000  0.5576610000000  0.4469000000000 1.0
C      1  0.5607890000000  0.5475300000000  0.5392800000000 1.0
C      1  0.4488560000000  0.4977190000000  0.4560730000000 1.0
C      1  0.5791970000000  0.4576850000000  0.4593080000000 1.0
C      1  0.4909270000000  0.4470450000000  0.4251900000000 1.0
C      1  0.5314640000000  0.5666810000000  0.5446270000000 1.0
C      1  0.4446540000000  0.4329010000000  0.5325050000000 1.0
C      1  0.4766260000000  0.5023130000000  0.4459440000000 1.0
C      1  0.4235730000000  0.4818330000000  0.4576500000000 1.0
C      1  0.4618760000000  0.5545520000000  0.4479930000000 1.0
C      1  0.4625730000000  0.5621550000000  0.5308630000000 1.0
C      1  0.5615060000000  0.5584300000000  0.4562010000000 1.0
C      1  0.4697790000000  0.5216300000000  0.5171780000000 1.0
C      1  0.5970410000000  0.4825200000000  0.4937310000000 1.0
END
