TITL C-884142-5251-18 23088248.664353 125000 -28290.1844463115 0 0 193 (C1) n - 1
REM
REM in /home/nfs/bkarasulu/CARBON/AIRSS/Generating-Clusters/ReaxFF-fromJPCA2015/Units_Real/with-SteepDescent/Only-C1/SD-CG/Try1-3A/FIRE-CG
REM
REM
REM
REM
REM
REM ./C.cell (11c1c37f851c82e70ff6c80c92926a4b)
REM
REM compiler GCC version 9.2.1 20190827 (Red Hat 9.2.1-1)
REM options -cpp -mtune=generic -march=x86-64 -g -O0 -fpre-include=/usr/include/finclude/math-vector-fortran.h
REM seed 994191460 2119049775 285902583 -23282804 -304429706 1145127853 1505154643 -1321009628 -315246561 770564646 1604918384 -348678134 252122301 -558068867 467434815 -779414452 923540912 -638193076 1851774409 -1139738103 168980676 1135960028 625126589 633994465 -1224106241 340712349 1856546266 2045792356 -1374216929 -54564465 -1319185103 -93555858 -1454825480
REM
CELL 1.54180   50.00000   50.00000   50.00000   90.00000   90.00000   90.00000
LATT -1
SFAC C  
C      1  0.5019480000000  0.4426630000000  0.4550550000000 1.0
C      1  0.5107710000000  0.4865300000000  0.5434980000000 1.0
C      1  0.4814970000000  0.5598250000000  0.4703410000000 1.0
C      1  0.6092890000000  0.4794190000000  0.4913580000000 1.0
C      1  0.5228190000000  0.5243180000000  0.6058290000000 1.0
C      1  0.5302460000000  0.5536560000000  0.4967120000000 1.0
C      1  0.5401650000000  0.4503660000000  0.5798990000000 1.0
C      1  0.5218540000000  0.3903160000000  0.5509090000000 1.0
C      1  0.4126710000000  0.5581800000000  0.5341520000000 1.0
C      1  0.4746320000000  0.5596070000000  0.5914530000000 1.0
C      1  0.4387480000000  0.5310530000000  0.3995590000000 1.0
C      1  0.5299580000000  0.4476350000000  0.4596180000000 1.0
C      1  0.5150980000000  0.4743570000000  0.6087220000000 1.0
C      1  0.4002110000000  0.5110670000000  0.5612130000000 1.0
C      1  0.4442550000000  0.5744730000000  0.5001780000000 1.0
C      1  0.5695900000000  0.4224730000000  0.4659870000000 1.0
C      1  0.4462090000000  0.5533330000000  0.5891720000000 1.0
C      1  0.5844500000000  0.4217150000000  0.5252330000000 1.0
C      1  0.4774550000000  0.5904930000000  0.4271540000000 1.0
C      1  0.5200080000000  0.6007080000000  0.4465170000000 1.0
C      1  0.4683340000000  0.4650660000000  0.4391760000000 1.0
C      1  0.5014030000000  0.4836480000000  0.4556820000000 1.0
C      1  0.4588640000000  0.5097970000000  0.3929580000000 1.0
C      1  0.4694090000000  0.4658140000000  0.5391520000000 1.0
C      1  0.5399470000000  0.5145680000000  0.4616190000000 1.0
C      1  0.4796380000000  0.4929710000000  0.4726020000000 1.0
C      1  0.4292710000000  0.4383780000000  0.5529570000000 1.0
C      1  0.4794530000000  0.5566400000000  0.3983480000000 1.0
C      1  0.4919300000000  0.4882070000000  0.6188960000000 1.0
C      1  0.4952630000000  0.3986040000000  0.5060510000000 1.0
C      1  0.5354300000000  0.6075670000000  0.5418350000000 1.0
C      1  0.4666780000000  0.4297040000000  0.5905400000000 1.0
C      1  0.4384750000000  0.4823690000000  0.5430200000000 1.0
C      1  0.4217540000000  0.4311690000000  0.4786070000000 1.0
C      1  0.5537330000000  0.5689040000000  0.4960330000000 1.0
C      1  0.4555150000000  0.4197060000000  0.4408010000000 1.0
C      1  0.4905200000000  0.6047450000000  0.4487230000000 1.0
C      1  0.5724990000000  0.4279260000000  0.5647620000000 1.0
C      1  0.5101010000000  0.6035630000000  0.5296240000000 1.0
C      1  0.6029920000000  0.5054180000000  0.5028560000000 1.0
C      1  0.4760810000000  0.3840510000000  0.5254420000000 1.0
C      1  0.5277530000000  0.3951510000000  0.4649060000000 1.0
C      1  0.5160780000000  0.4467530000000  0.5969120000000 1.0
C      1  0.4961250000000  0.4285040000000  0.5850240000000 1.0
C      1  0.5472410000000  0.5000370000000  0.5767120000000 1.0
C      1  0.4426020000000  0.4527390000000  0.4802810000000 1.0
C      1  0.4945300000000  0.5033310000000  0.4359640000000 1.0
C      1  0.5386700000000  0.5829230000000  0.4296600000000 1.0
C      1  0.4090570000000  0.5375340000000  0.4454740000000 1.0
C      1  0.5526590000000  0.5045620000000  0.5157800000000 1.0
C      1  0.4820810000000  0.5410950000000  0.4228890000000 1.0
C      1  0.4297570000000  0.5027570000000  0.4620800000000 1.0
C      1  0.4192970000000  0.4322110000000  0.5076590000000 1.0
C      1  0.5681850000000  0.5018740000000  0.4078290000000 1.0
C      1  0.4659330000000  0.5703090000000  0.5201800000000 1.0
C      1  0.5929430000000  0.5270060000000  0.4648410000000 1.0
C      1  0.4108460000000  0.5121600000000  0.5037770000000 1.0
C      1  0.4182440000000  0.5609870000000  0.5051570000000 1.0
C      1  0.4598010000000  0.4877360000000  0.5866280000000 1.0
C      1  0.4481050000000  0.4674350000000  0.4554660000000 1.0
C      1  0.5431820000000  0.3910570000000  0.5045670000000 1.0
C      1  0.4013390000000  0.4472360000000  0.4627140000000 1.0
C      1  0.5175650000000  0.4375550000000  0.5155200000000 1.0
C      1  0.4679200000000  0.4409520000000  0.5232380000000 1.0
C      1  0.4316800000000  0.5104560000000  0.5265190000000 1.0
C      1  0.4081090000000  0.4427280000000  0.4350250000000 1.0
C      1  0.5702770000000  0.4520780000000  0.5781130000000 1.0
C      1  0.4302300000000  0.5294010000000  0.5937930000000 1.0
C      1  0.5332260000000  0.4214420000000  0.4231420000000 1.0
C      1  0.5477440000000  0.6078250000000  0.5172190000000 1.0
C      1  0.5050750000000  0.4835450000000  0.5130830000000 1.0
C      1  0.4201090000000  0.5300050000000  0.5461840000000 1.0
C      1  0.4087650000000  0.5425850000000  0.4854460000000 1.0
C      1  0.5581930000000  0.4810400000000  0.5307280000000 1.0
C      1  0.4427600000000  0.4107190000000  0.4642660000000 1.0
C      1  0.4980040000000  0.5462070000000  0.4468470000000 1.0
C      1  0.4767540000000  0.4883870000000  0.5220670000000 1.0
C      1  0.4362060000000  0.5741100000000  0.4516600000000 1.0
C      1  0.4027150000000  0.4521360000000  0.5180890000000 1.0
C      1  0.4869430000000  0.4629900000000  0.4240540000000 1.0
C      1  0.3865280000000  0.4709410000000  0.5032300000000 1.0
C      1  0.5544280000000  0.4011020000000  0.4771720000000 1.0
C      1  0.5526710000000  0.4365200000000  0.4423520000000 1.0
C      1  0.5973300000000  0.4650750000000  0.4686020000000 1.0
C      1  0.4770270000000  0.5979550000000  0.5573980000000 1.0
C      1  0.4929800000000  0.3849550000000  0.5492970000000 1.0
C      1  0.5289200000000  0.4675400000000  0.3961090000000 1.0
C      1  0.5585340000000  0.5292710000000  0.4081990000000 1.0
C      1  0.5887360000000  0.4757340000000  0.5666540000000 1.0
C      1  0.4442570000000  0.5341370000000  0.5692300000000 1.0
C      1  0.4681840000000  0.4763850000000  0.6100330000000 1.0
C      1  0.3880360000000  0.4964100000000  0.5174090000000 1.0
C      1  0.4839440000000  0.4997670000000  0.3867090000000 1.0
C      1  0.5991510000000  0.4745380000000  0.5425390000000 1.0
C      1  0.4508420000000  0.5767820000000  0.4270690000000 1.0
C      1  0.5293640000000  0.4886400000000  0.4663470000000 1.0
C      1  0.5181300000000  0.3868710000000  0.4915310000000 1.0
C      1  0.4804440000000  0.5084530000000  0.5452270000000 1.0
C      1  0.5680470000000  0.5207520000000  0.5747350000000 1.0
C      1  0.4540550000000  0.5795010000000  0.4731590000000 1.0
C      1  0.5757900000000  0.5464470000000  0.4236610000000 1.0
C      1  0.4829840000000  0.5315790000000  0.5938890000000 1.0
C      1  0.5372060000000  0.4438080000000  0.5325570000000 1.0
C      1  0.5111200000000  0.4916250000000  0.3903100000000 1.0
C      1  0.5392160000000  0.4891280000000  0.5510610000000 1.0
C      1  0.5249350000000  0.5444340000000  0.5832790000000 1.0
C      1  0.4489240000000  0.5239730000000  0.4644150000000 1.0
C      1  0.4355570000000  0.4344980000000  0.4258220000000 1.0
C      1  0.5921930000000  0.5054930000000  0.5686520000000 1.0
C      1  0.4693940000000  0.5128280000000  0.5731940000000 1.0
C      1  0.4396040000000  0.4226010000000  0.5273310000000 1.0
C      1  0.4314720000000  0.4862470000000  0.4379760000000 1.0
C      1  0.5510680000000  0.5974420000000  0.4906220000000 1.0
C      1  0.4618130000000  0.4953630000000  0.4941550000000 1.0
C      1  0.5162900000000  0.4054870000000  0.4396060000000 1.0
C      1  0.4961610000000  0.4644490000000  0.5546130000000 1.0
C      1  0.5650200000000  0.5706410000000  0.4361570000000 1.0
C      1  0.5708350000000  0.4073690000000  0.5445160000000 1.0
C      1  0.5221120000000  0.4499230000000  0.5569950000000 1.0
C      1  0.5210890000000  0.5291960000000  0.5006590000000 1.0
C      1  0.5817600000000  0.5265560000000  0.5495530000000 1.0
C      1  0.5675080000000  0.4600290000000  0.4283890000000 1.0
C      1  0.5975960000000  0.4372060000000  0.5076730000000 1.0
C      1  0.5363210000000  0.4646920000000  0.4826930000000 1.0
C      1  0.5130930000000  0.5093120000000  0.4138710000000 1.0
C      1  0.3927920000000  0.4890850000000  0.5446240000000 1.0
C      1  0.4575200000000  0.5234030000000  0.5075840000000 1.0
C      1  0.5544500000000  0.4750860000000  0.4074600000000 1.0
C      1  0.5411840000000  0.5821930000000  0.5580180000000 1.0
C      1  0.4222270000000  0.5237320000000  0.4240690000000 1.0
C      1  0.4687190000000  0.4513540000000  0.6059700000000 1.0
C      1  0.5325190000000  0.4966650000000  0.6017600000000 1.0
C      1  0.4835120000000  0.4117890000000  0.4848970000000 1.0
C      1  0.5448200000000  0.3937220000000  0.5335270000000 1.0
C      1  0.4215660000000  0.4901810000000  0.4860920000000 1.0
C      1  0.4571630000000  0.3999020000000  0.4869330000000 1.0
C      1  0.4660890000000  0.4472970000000  0.4951420000000 1.0
C      1  0.5895440000000  0.4386760000000  0.4784330000000 1.0
C      1  0.5953350000000  0.5274800000000  0.4359890000000 1.0
C      1  0.5048280000000  0.5759720000000  0.5267190000000 1.0
C      1  0.4639920000000  0.5378080000000  0.4827510000000 1.0
C      1  0.5249700000000  0.5354460000000  0.4462520000000 1.0
C      1  0.4848340000000  0.6137060000000  0.5338130000000 1.0
C      1  0.4540060000000  0.5835490000000  0.5458100000000 1.0
C      1  0.4131770000000  0.4637070000000  0.5422390000000 1.0
C      1  0.5227590000000  0.5681160000000  0.4117750000000 1.0
C      1  0.5899080000000  0.5002460000000  0.4269250000000 1.0
C      1  0.5061190000000  0.5647890000000  0.5020150000000 1.0
C      1  0.4521260000000  0.3967230000000  0.5163140000000 1.0
C      1  0.4936980000000  0.4380580000000  0.4112660000000 1.0
C      1  0.6071850000000  0.4654150000000  0.5172900000000 1.0
C      1  0.5888120000000  0.5518220000000  0.5368210000000 1.0
C      1  0.5011940000000  0.5784080000000  0.4818620000000 1.0
C      1  0.5877160000000  0.4745020000000  0.4421870000000 1.0
C      1  0.4773480000000  0.6149850000000  0.5052220000000 1.0
C      1  0.4892280000000  0.4219170000000  0.4363790000000 1.0
C      1  0.5189850000000  0.5389560000000  0.5550430000000 1.0
C      1  0.4948870000000  0.5325510000000  0.5405940000000 1.0
C      1  0.4178800000000  0.5051440000000  0.5832090000000 1.0
C      1  0.5735910000000  0.5741100000000  0.5514720000000 1.0
C      1  0.4273910000000  0.5772150000000  0.5482270000000 1.0
C      1  0.3991590000000  0.4721390000000  0.4770240000000 1.0
C      1  0.5936340000000  0.5885430000000  0.5547920000000 1.0
C      1  0.4962890000000  0.5788730000000  0.4071770000000 1.0
C      1  0.4450500000000  0.4417660000000  0.5744390000000 1.0
C      1  0.5778970000000  0.6040180000000  0.4714700000000 1.0
C      1  0.4489030000000  0.5253770000000  0.4367530000000 1.0
C      1  0.5251510000000  0.5047120000000  0.5047400000000 1.0
C      1  0.4124000000000  0.5542870000000  0.4609820000000 1.0
C      1  0.5117730000000  0.4574240000000  0.4978480000000 1.0
C      1  0.6088490000000  0.5314400000000  0.4899390000000 1.0
C      1  0.5198220000000  0.5730260000000  0.5801070000000 1.0
C      1  0.5006100000000  0.4131780000000  0.5575210000000 1.0
C      1  0.4945710000000  0.4256290000000  0.5278290000000 1.0
C      1  0.4692670000000  0.5141220000000  0.4230220000000 1.0
C      1  0.4347860000000  0.4823190000000  0.5725800000000 1.0
C      1  0.4910330000000  0.5798670000000  0.5767540000000 1.0
C      1  0.5213860000000  0.4399260000000  0.4030570000000 1.0
C      1  0.5972360000000  0.5519920000000  0.5075820000000 1.0
C      1  0.5265210000000  0.5623720000000  0.5409260000000 1.0
C      1  0.5223370000000  0.5957370000000  0.4742630000000 1.0
C      1  0.5786440000000  0.5594870000000  0.4869960000000 1.0
C      1  0.4505510000000  0.5575810000000  0.4036230000000 1.0
C      1  0.5805650000000  0.5780410000000  0.4609000000000 1.0
C      1  0.5666390000000  0.5207660000000  0.4734820000000 1.0
C      1  0.5505100000000  0.4596930000000  0.5132210000000 1.0
C      1  0.4962780000000  0.5174740000000  0.6153940000000 1.0
C      1  0.5737020000000  0.5111480000000  0.4989410000000 1.0
C      1  0.5301050000000  0.5368040000000  0.4153580000000 1.0
C      1  0.4773360000000  0.6120260000000  0.4765600000000 1.0
C      1  0.4244860000000  0.4628480000000  0.4224410000000 1.0
C      1  0.4755000000000  0.5425310000000  0.5218430000000 1.0
C      1  0.4904030000000  0.4409360000000  0.4813630000000 1.0
END
