TITL C-883731-9874-24 223869.93487152 125000 -24911.660647692 0 0 167 (C1) n - 1
REM
REM in /home/nfs/bkarasulu/CARBON/AIRSS/Generating-Clusters/ReaxFF-fromJPCA2015/Units_Real/with-SteepDescent/Only-C1/SD-CG/Try1-3A/FIRE-CG
REM
REM
REM
REM
REM
REM ./C.cell (11c1c37f851c82e70ff6c80c92926a4b)
REM
REM compiler GCC version 9.2.1 20190827 (Red Hat 9.2.1-1)
REM options -cpp -mtune=generic -march=x86-64 -g -O0 -fpre-include=/usr/include/finclude/math-vector-fortran.h
REM seed -308422770 2136986593 2117051518 -1855998519 1747759359 1039246074 -36024792 -1442475062 1156504909 -1325766714 2104470724 1698077198 686130045 1354045031 -982043566 -1083822302 501382552 -1947527919 -15537466 1146470627 1610909920 1237823688 -2056333366 -795171808 -243067930 -255363863 1099461967 909980943 -1756454764 1796753204 -924870452 2147090066 1759139712
REM
CELL 1.54180   50.00000   50.00000   50.00000   90.00000   90.00000   90.00000
LATT -1
SFAC C  
C      1  0.5406800000000  0.5583700000000  0.4160030000000 1.0
C      1  0.4598230000000  0.4811030000000  0.5687260000000 1.0
C      1  0.4424320000000  0.4059090000000  0.5337910000000 1.0
C      1  0.4867660000000  0.3988790000000  0.4800630000000 1.0
C      1  0.5179450000000  0.5378900000000  0.4674410000000 1.0
C      1  0.4978140000000  0.5482870000000  0.6147940000000 1.0
C      1  0.5285800000000  0.5954990000000  0.5464770000000 1.0
C      1  0.5170460000000  0.5572730000000  0.5730810000000 1.0
C      1  0.5561420000000  0.4031500000000  0.4760040000000 1.0
C      1  0.5059090000000  0.5818560000000  0.5621050000000 1.0
C      1  0.4617190000000  0.5688600000000  0.5789430000000 1.0
C      1  0.5319120000000  0.5826790000000  0.4317690000000 1.0
C      1  0.5198740000000  0.5518140000000  0.3966980000000 1.0
C      1  0.5555650000000  0.3985980000000  0.5170170000000 1.0
C      1  0.4464680000000  0.5009610000000  0.5534620000000 1.0
C      1  0.4136030000000  0.4804630000000  0.5269460000000 1.0
C      1  0.4701850000000  0.5409340000000  0.5487450000000 1.0
C      1  0.5871050000000  0.5375760000000  0.5593420000000 1.0
C      1  0.4952030000000  0.4818880000000  0.4341340000000 1.0
C      1  0.5378160000000  0.4010410000000  0.4577780000000 1.0
C      1  0.4345380000000  0.5777780000000  0.5256630000000 1.0
C      1  0.5532410000000  0.5760090000000  0.4908400000000 1.0
C      1  0.4736420000000  0.5308550000000  0.6166340000000 1.0
C      1  0.5517090000000  0.5283510000000  0.5158120000000 1.0
C      1  0.4218660000000  0.5332010000000  0.4246680000000 1.0
C      1  0.5155470000000  0.4053540000000  0.5497440000000 1.0
C      1  0.4242990000000  0.5551570000000  0.5395910000000 1.0
C      1  0.4376260000000  0.5537130000000  0.4113320000000 1.0
C      1  0.5237730000000  0.5497720000000  0.6000300000000 1.0
C      1  0.5461430000000  0.5207490000000  0.5431970000000 1.0
C      1  0.4597750000000  0.4556510000000  0.6042280000000 1.0
C      1  0.5074890000000  0.5055370000000  0.5683760000000 1.0
C      1  0.4950960000000  0.5333260000000  0.5388290000000 1.0
C      1  0.5519740000000  0.5333070000000  0.4241310000000 1.0
C      1  0.5639250000000  0.4827590000000  0.5770700000000 1.0
C      1  0.5449290000000  0.4736020000000  0.6033070000000 1.0
C      1  0.5306620000000  0.4901460000000  0.4835590000000 1.0
C      1  0.5238910000000  0.4788750000000  0.5300010000000 1.0
C      1  0.5176300000000  0.5268360000000  0.3834790000000 1.0
C      1  0.5821760000000  0.4892020000000  0.4290950000000 1.0
C      1  0.4455270000000  0.4595780000000  0.4068460000000 1.0
C      1  0.4514250000000  0.5299260000000  0.4625440000000 1.0
C      1  0.4748640000000  0.6037720000000  0.5139540000000 1.0
C      1  0.4274240000000  0.5059680000000  0.5735160000000 1.0
C      1  0.4257380000000  0.5232540000000  0.4517520000000 1.0
C      1  0.4816620000000  0.5633330000000  0.4823450000000 1.0
C      1  0.6045990000000  0.5156340000000  0.5056000000000 1.0
C      1  0.4840620000000  0.4771810000000  0.5032000000000 1.0
C      1  0.4733230000000  0.4443860000000  0.5388610000000 1.0
C      1  0.5716980000000  0.5307790000000  0.4456150000000 1.0
C      1  0.5225110000000  0.4314490000000  0.5370330000000 1.0
C      1  0.5566670000000  0.5007570000000  0.5591060000000 1.0
C      1  0.4101880000000  0.4777320000000  0.4425720000000 1.0
C      1  0.4613810000000  0.5914860000000  0.5346780000000 1.0
C      1  0.5179150000000  0.4705120000000  0.6181730000000 1.0
C      1  0.4015540000000  0.4477000000000  0.4789940000000 1.0
C      1  0.4595460000000  0.5916660000000  0.4603590000000 1.0
C      1  0.4744800000000  0.4616510000000  0.4010180000000 1.0
C      1  0.5700800000000  0.5744930000000  0.4672390000000 1.0
C      1  0.5364990000000  0.4598010000000  0.4728920000000 1.0
C      1  0.5515800000000  0.4823830000000  0.5210800000000 1.0
C      1  0.4796550000000  0.4359820000000  0.4144450000000 1.0
C      1  0.5716720000000  0.5452780000000  0.5827630000000 1.0
C      1  0.5533410000000  0.4409510000000  0.4286140000000 1.0
C      1  0.5987130000000  0.5392760000000  0.4893410000000 1.0
C      1  0.5474490000000  0.4589170000000  0.4086750000000 1.0
C      1  0.4967950000000  0.3976930000000  0.4550740000000 1.0
C      1  0.4343660000000  0.4783470000000  0.4266430000000 1.0
C      1  0.4523380000000  0.4851440000000  0.5967780000000 1.0
C      1  0.5551490000000  0.5925010000000  0.5586750000000 1.0
C      1  0.5045450000000  0.5902040000000  0.4440550000000 1.0
C      1  0.4097240000000  0.4494140000000  0.4517060000000 1.0
C      1  0.5346140000000  0.4496250000000  0.5867110000000 1.0
C      1  0.4770950000000  0.5856410000000  0.5608040000000 1.0
C      1  0.5064960000000  0.5501320000000  0.4908050000000 1.0
C      1  0.5976280000000  0.5348400000000  0.5338860000000 1.0
C      1  0.4971250000000  0.4988890000000  0.4576560000000 1.0
C      1  0.5148130000000  0.4019480000000  0.4403880000000 1.0
C      1  0.4752100000000  0.5275200000000  0.5039430000000 1.0
C      1  0.5717440000000  0.4353580000000  0.5604530000000 1.0
C      1  0.4398980000000  0.5248550000000  0.4024680000000 1.0
C      1  0.4770700000000  0.5420310000000  0.4073500000000 1.0
C      1  0.5885510000000  0.4367620000000  0.4962860000000 1.0
C      1  0.4082860000000  0.5009080000000  0.4613640000000 1.0
C      1  0.4360930000000  0.5168850000000  0.5010220000000 1.0
C      1  0.5001460000000  0.5327660000000  0.5111130000000 1.0
C      1  0.4158680000000  0.5640680000000  0.4817550000000 1.0
C      1  0.5155940000000  0.5020650000000  0.3963040000000 1.0
C      1  0.4722910000000  0.5577360000000  0.6043020000000 1.0
C      1  0.4711230000000  0.5018590000000  0.6135080000000 1.0
C      1  0.5078340000000  0.5991340000000  0.4705770000000 1.0
C      1  0.4410300000000  0.4193860000000  0.4693910000000 1.0
C      1  0.5988960000000  0.4496700000000  0.4474210000000 1.0
C      1  0.4332620000000  0.4979480000000  0.5246460000000 1.0
C      1  0.4100770000000  0.5204370000000  0.5587240000000 1.0
C      1  0.5031810000000  0.5407920000000  0.4190510000000 1.0
C      1  0.4807610000000  0.5948920000000  0.4836610000000 1.0
C      1  0.5352670000000  0.3924730000000  0.5336560000000 1.0
C      1  0.5299610000000  0.5955750000000  0.4913380000000 1.0
C      1  0.4933970000000  0.3974740000000  0.5319880000000 1.0
C      1  0.5294340000000  0.4379200000000  0.4144000000000 1.0
C      1  0.4018530000000  0.4359880000000  0.5276840000000 1.0
C      1  0.5784820000000  0.4968680000000  0.4790310000000 1.0
C      1  0.5411130000000  0.5056280000000  0.6037740000000 1.0
C      1  0.4985780000000  0.4926820000000  0.6181530000000 1.0
C      1  0.5944670000000  0.4618710000000  0.5093620000000 1.0
C      1  0.4632060000000  0.5664220000000  0.4169850000000 1.0
C      1  0.5842200000000  0.4362060000000  0.4674920000000 1.0
C      1  0.4698800000000  0.4208520000000  0.4760840000000 1.0
C      1  0.5147570000000  0.4433350000000  0.4830890000000 1.0
C      1  0.4870170000000  0.4902060000000  0.4060280000000 1.0
C      1  0.5227580000000  0.5102040000000  0.4645340000000 1.0
C      1  0.4794670000000  0.4935350000000  0.4806730000000 1.0
C      1  0.4042270000000  0.5338580000000  0.5341600000000 1.0
C      1  0.5799130000000  0.5051450000000  0.4521290000000 1.0
C      1  0.4461860000000  0.4655660000000  0.4753640000000 1.0
C      1  0.4177860000000  0.4150490000000  0.5200350000000 1.0
C      1  0.5176910000000  0.4267190000000  0.5082210000000 1.0
C      1  0.4833960000000  0.4614740000000  0.5601740000000 1.0
C      1  0.5570210000000  0.4849310000000  0.4149730000000 1.0
C      1  0.5070280000000  0.4813100000000  0.5539470000000 1.0
C      1  0.4598550000000  0.5155430000000  0.4857790000000 1.0
C      1  0.5106490000000  0.4848400000000  0.5054390000000 1.0
C      1  0.5554770000000  0.5016270000000  0.4983550000000 1.0
C      1  0.5179720000000  0.5304180000000  0.5567140000000 1.0
C      1  0.4883860000000  0.4434270000000  0.4694010000000 1.0
C      1  0.4164340000000  0.5360820000000  0.4918200000000 1.0
C      1  0.4330700000000  0.5853740000000  0.4707090000000 1.0
C      1  0.5018050000000  0.4029080000000  0.5044610000000 1.0
C      1  0.6005560000000  0.4884380000000  0.4959420000000 1.0
C      1  0.5757930000000  0.4707710000000  0.5305240000000 1.0
C      1  0.5904600000000  0.5541990000000  0.5136600000000 1.0
C      1  0.4670550000000  0.5158230000000  0.4027920000000 1.0
C      1  0.4432820000000  0.4551320000000  0.4994540000000 1.0
C      1  0.5283870000000  0.5959230000000  0.5186750000000 1.0
C      1  0.5099630000000  0.4476010000000  0.6018520000000 1.0
C      1  0.5792660000000  0.4647340000000  0.5596260000000 1.0
C      1  0.4503460000000  0.4337640000000  0.4208620000000 1.0
C      1  0.5057430000000  0.4249610000000  0.4247230000000 1.0
C      1  0.3969550000000  0.4984110000000  0.4880930000000 1.0
C      1  0.5833190000000  0.5483990000000  0.4652480000000 1.0
C      1  0.4752790000000  0.5851810000000  0.4366910000000 1.0
C      1  0.3902550000000  0.4701550000000  0.4942060000000 1.0
C      1  0.4697250000000  0.4152680000000  0.5394580000000 1.0
C      1  0.4235100000000  0.4300010000000  0.4913750000000 1.0
C      1  0.5636480000000  0.5745050000000  0.5784080000000 1.0
C      1  0.4991360000000  0.5446180000000  0.4469400000000 1.0
C      1  0.3960170000000  0.5223990000000  0.5067920000000 1.0
C      1  0.3919700000000  0.4625460000000  0.5240340000000 1.0
C      1  0.5409040000000  0.5082430000000  0.4117040000000 1.0
C      1  0.5126820000000  0.5070020000000  0.5968720000000 1.0
C      1  0.5725470000000  0.5744500000000  0.5551190000000 1.0
C      1  0.4520930000000  0.4754460000000  0.4506700000000 1.0
C      1  0.5417840000000  0.4363580000000  0.5605400000000 1.0
C      1  0.4326070000000  0.4309340000000  0.4447330000000 1.0
C      1  0.4240030000000  0.5853500000000  0.4995220000000 1.0
C      1  0.6003380000000  0.4677030000000  0.4329620000000 1.0
C      1  0.5605670000000  0.5555020000000  0.5110130000000 1.0
C      1  0.4473080000000  0.5493030000000  0.5601010000000 1.0
C      1  0.5734160000000  0.4098460000000  0.4984250000000 1.0
C      1  0.5580290000000  0.4488570000000  0.4567480000000 1.0
C      1  0.4831250000000  0.4475680000000  0.5891770000000 1.0
C      1  0.4802550000000  0.4619230000000  0.4488310000000 1.0
C      1  0.4669680000000  0.4585730000000  0.5158090000000 1.0
C      1  0.4727130000000  0.5491870000000  0.4586360000000 1.0
C      1  0.5569240000000  0.5901950000000  0.4447780000000 1.0
C      1  0.5486480000000  0.5327190000000  0.5984160000000 1.0
END
