TITL C-883733-4178-51 -115955.926744466 125000 -7266.30548645966 0 0 49 (C1) n - 1
REM
REM in /home/nfs/bkarasulu/CARBON/AIRSS/Generating-Clusters/ReaxFF-fromJPCA2015/Units_Real/with-SteepDescent/Only-C1/SD-CG/Try1-3A/FIRE-CG
REM
REM
REM
REM
REM
REM ./C.cell (11c1c37f851c82e70ff6c80c92926a4b)
REM
REM compiler GCC version 9.2.1 20190827 (Red Hat 9.2.1-1)
REM options -cpp -mtune=generic -march=x86-64 -g -O0 -fpre-include=/usr/include/finclude/math-vector-fortran.h
REM seed 897039945 -1385599533 -935292036 1235531269 -787717649 -1019611658 -1478498514 -450904858 -28871691 -968943556 -1104125486 1898488042 1635123031 -1927742347 781307322 -935161183 -772239908 1367944245 1422776077 1020346811 729285445 574901647 -680712063 -1560534242 414799701 171857151 -1444131244 -1461422837 -919834106 -1892412920 -1110506460 1616639357 -1881413987
REM
CELL 1.54180   50.00000   50.00000   50.00000   90.00000   90.00000   90.00000
LATT -1
SFAC C  
C      1  0.5066840000000  0.4664330000000  0.5160260000000 1.0
C      1  0.4491510000000  0.5424090000000  0.4964640000000 1.0
C      1  0.4576410000000  0.4803850000000  0.5232560000000 1.0
C      1  0.4867620000000  0.5500410000000  0.5432000000000 1.0
C      1  0.5275400000000  0.4851690000000  0.4487220000000 1.0
C      1  0.4476070000000  0.4714200000000  0.4972550000000 1.0
C      1  0.5244430000000  0.5313800000000  0.4531840000000 1.0
C      1  0.4303930000000  0.4470390000000  0.4921080000000 1.0
C      1  0.4999180000000  0.4928890000000  0.4443720000000 1.0
C      1  0.5526030000000  0.4416280000000  0.4618840000000 1.0
C      1  0.5058050000000  0.5690320000000  0.4787340000000 1.0
C      1  0.4768640000000  0.5066720000000  0.4883770000000 1.0
C      1  0.4534670000000  0.5355680000000  0.5223200000000 1.0
C      1  0.5530830000000  0.5143150000000  0.4860260000000 1.0
C      1  0.4433610000000  0.4206380000000  0.4892040000000 1.0
C      1  0.5485130000000  0.5319280000000  0.5429390000000 1.0
C      1  0.5008440000000  0.4473320000000  0.4610950000000 1.0
C      1  0.5040040000000  0.5413690000000  0.5207110000000 1.0
C      1  0.5419770000000  0.5085960000000  0.4598250000000 1.0
C      1  0.5180060000000  0.4907060000000  0.5057840000000 1.0
C      1  0.5485390000000  0.5419380000000  0.4922470000000 1.0
C      1  0.4580510000000  0.5257550000000  0.4756410000000 1.0
C      1  0.5496570000000  0.4943710000000  0.5096000000000 1.0
C      1  0.4941310000000  0.5670860000000  0.5053930000000 1.0
C      1  0.5454040000000  0.5031300000000  0.5408350000000 1.0
C      1  0.4974270000000  0.5222160000000  0.4459780000000 1.0
C      1  0.4690210000000  0.5035090000000  0.5570790000000 1.0
C      1  0.5082970000000  0.4382690000000  0.5096060000000 1.0
C      1  0.5237530000000  0.4910210000000  0.5530460000000 1.0
C      1  0.5293010000000  0.5527840000000  0.4723340000000 1.0
C      1  0.4723640000000  0.4205730000000  0.4984460000000 1.0
C      1  0.4670130000000  0.4805680000000  0.4775400000000 1.0
C      1  0.4830500000000  0.4329440000000  0.5231230000000 1.0
C      1  0.5280730000000  0.4562120000000  0.4543310000000 1.0
C      1  0.4969210000000  0.4289640000000  0.4837740000000 1.0
C      1  0.4541360000000  0.5075920000000  0.5333180000000 1.0
C      1  0.4840080000000  0.4706960000000  0.4561660000000 1.0
C      1  0.5006650000000  0.4757470000000  0.5570470000000 1.0
C      1  0.5691600000000  0.4490020000000  0.4861250000000 1.0
C      1  0.5498760000000  0.5496500000000  0.5205920000000 1.0
C      1  0.4884640000000  0.4959740000000  0.5715640000000 1.0
C      1  0.4787870000000  0.5648240000000  0.4674830000000 1.0
C      1  0.5000980000000  0.5126050000000  0.5039640000000 1.0
C      1  0.5663980000000  0.4690060000000  0.5068580000000 1.0
C      1  0.4746550000000  0.5383300000000  0.4553390000000 1.0
C      1  0.4589840000000  0.5559930000000  0.5462660000000 1.0
C      1  0.5270450000000  0.5490010000000  0.5372370000000 1.0
C      1  0.4663100000000  0.5646210000000  0.4953760000000 1.0
C      1  0.4817460000000  0.4626660000000  0.5322050000000 1.0
END
