TITL C-883741-3679-274 11.5347538736804 125000 -13814.3437141663 0 0 91 (C1) n - 1
REM
REM in /home/nfs/bkarasulu/CARBON/AIRSS/Generating-Clusters/ReaxFF-fromJPCA2015/Units_Real/with-SteepDescent/Only-C1/SD-CG/Try1-3A/FIRE-CG
REM
REM
REM
REM
REM
REM ./C.cell (11c1c37f851c82e70ff6c80c92926a4b)
REM
REM compiler GCC version 9.2.1 20190827 (Red Hat 9.2.1-1)
REM options -cpp -mtune=generic -march=x86-64 -g -O0 -fpre-include=/usr/include/finclude/math-vector-fortran.h
REM seed 900799386 -1395351474 1570315127 38002400 -689519014 -493942234 1961696490 2040374290 -217315397 1668649968 -1178050063 -1026127887 -148742569 -862828510 -1699342626 1279039148 -1258650342 -49243822 976308233 -1871303372 -1905518658 518837762 -961957249 -2035217175 339013511 1291452350 -1259466178 451320161 274976402 -617249113 -1617945504 188196889 -785127405
REM
CELL 1.54180   50.00000   50.00000   50.00000   90.00000   90.00000   90.00000
LATT -1
SFAC C  
C      1  0.5580290000000  0.5256470000000  0.5567800000000 1.0
C      1  0.5604610000000  0.5532390000000  0.4743020000000 1.0
C      1  0.5258880000000  0.4147730000000  0.4997720000000 1.0
C      1  0.5030960000000  0.5357640000000  0.4825100000000 1.0
C      1  0.4931270000000  0.5849400000000  0.4770160000000 1.0
C      1  0.4900160000000  0.5190230000000  0.5868250000000 1.0
C      1  0.4237690000000  0.4750810000000  0.4660380000000 1.0
C      1  0.5216850000000  0.5847110000000  0.4820400000000 1.0
C      1  0.4708550000000  0.4740490000000  0.5818880000000 1.0
C      1  0.4914710000000  0.4565090000000  0.5867260000000 1.0
C      1  0.5019980000000  0.4759690000000  0.5285800000000 1.0
C      1  0.4951350000000  0.5623930000000  0.5472510000000 1.0
C      1  0.5754250000000  0.5018290000000  0.4655740000000 1.0
C      1  0.4992480000000  0.4046040000000  0.5073640000000 1.0
C      1  0.5041620000000  0.4472490000000  0.5350240000000 1.0
C      1  0.5180340000000  0.4371170000000  0.5600480000000 1.0
C      1  0.5167770000000  0.5262330000000  0.5766370000000 1.0
C      1  0.4349530000000  0.4662280000000  0.5360140000000 1.0
C      1  0.4797980000000  0.4326920000000  0.5432490000000 1.0
C      1  0.5349790000000  0.4669030000000  0.4265630000000 1.0
C      1  0.5765140000000  0.4862130000000  0.5348150000000 1.0
C      1  0.5194790000000  0.5109490000000  0.4428830000000 1.0
C      1  0.4768810000000  0.5796790000000  0.5016500000000 1.0
C      1  0.5119560000000  0.5197890000000  0.5197390000000 1.0
C      1  0.5050410000000  0.4075940000000  0.4790330000000 1.0
C      1  0.5175980000000  0.4599200000000  0.4658190000000 1.0
C      1  0.5426660000000  0.4383060000000  0.5030000000000 1.0
C      1  0.4610290000000  0.5189000000000  0.5832120000000 1.0
C      1  0.4428890000000  0.4556180000000  0.4548120000000 1.0
C      1  0.4717900000000  0.5564760000000  0.4370220000000 1.0
C      1  0.5448010000000  0.4838340000000  0.4997930000000 1.0
C      1  0.4607190000000  0.4757410000000  0.5054270000000 1.0
C      1  0.4536260000000  0.5402100000000  0.5635470000000 1.0
C      1  0.5181280000000  0.4587970000000  0.4056100000000 1.0
C      1  0.5211230000000  0.4598750000000  0.5782370000000 1.0
C      1  0.4317370000000  0.4884170000000  0.5526520000000 1.0
C      1  0.4920010000000  0.5732410000000  0.4499740000000 1.0
C      1  0.4293810000000  0.5410100000000  0.5468110000000 1.0
C      1  0.4585040000000  0.5223030000000  0.4949550000000 1.0
C      1  0.5818600000000  0.5274070000000  0.5123530000000 1.0
C      1  0.5719940000000  0.4853690000000  0.5076410000000 1.0
C      1  0.5088270000000  0.4401770000000  0.4456020000000 1.0
C      1  0.5587600000000  0.4668030000000  0.5475080000000 1.0
C      1  0.4486210000000  0.5446070000000  0.4505970000000 1.0
C      1  0.5668940000000  0.5283760000000  0.4657330000000 1.0
C      1  0.5373630000000  0.5698540000000  0.4629880000000 1.0
C      1  0.4744660000000  0.4162520000000  0.5188530000000 1.0
C      1  0.4418900000000  0.4525710000000  0.5129600000000 1.0
C      1  0.5403790000000  0.4789270000000  0.5682600000000 1.0
C      1  0.5181730000000  0.5620070000000  0.4426810000000 1.0
C      1  0.4251520000000  0.5132990000000  0.5373100000000 1.0
C      1  0.4768730000000  0.4901440000000  0.5256490000000 1.0
C      1  0.5858670000000  0.5047790000000  0.4936630000000 1.0
C      1  0.5423100000000  0.4917230000000  0.4369680000000 1.0
C      1  0.5589760000000  0.4786160000000  0.4568370000000 1.0
C      1  0.4653340000000  0.4387820000000  0.4738130000000 1.0
C      1  0.4674790000000  0.5126320000000  0.4193290000000 1.0
C      1  0.4809150000000  0.5195510000000  0.5229460000000 1.0
C      1  0.4755060000000  0.4653610000000  0.4836020000000 1.0
C      1  0.5502960000000  0.5642450000000  0.5236230000000 1.0
C      1  0.4319100000000  0.5220920000000  0.5099620000000 1.0
C      1  0.4978740000000  0.4764180000000  0.4726760000000 1.0
C      1  0.5398560000000  0.5079980000000  0.5710350000000 1.0
C      1  0.4446700000000  0.5188520000000  0.4365800000000 1.0
C      1  0.4891500000000  0.4653230000000  0.4049090000000 1.0
C      1  0.5675760000000  0.5513100000000  0.5042530000000 1.0
C      1  0.5455570000000  0.5515040000000  0.5495480000000 1.0
C      1  0.4911360000000  0.4303740000000  0.5706390000000 1.0
C      1  0.5190350000000  0.5513390000000  0.5610260000000 1.0
C      1  0.4558560000000  0.4292570000000  0.5014820000000 1.0
C      1  0.4475360000000  0.5464730000000  0.4796700000000 1.0
C      1  0.4897510000000  0.4245860000000  0.4616710000000 1.0
C      1  0.5203370000000  0.5421870000000  0.5027600000000 1.0
C      1  0.4854230000000  0.5358170000000  0.4211100000000 1.0
C      1  0.4963160000000  0.5782610000000  0.5230010000000 1.0
C      1  0.5229690000000  0.4929880000000  0.5168200000000 1.0
C      1  0.4754310000000  0.5408740000000  0.5444700000000 1.0
C      1  0.4500240000000  0.5666690000000  0.5003250000000 1.0
C      1  0.4303910000000  0.4935780000000  0.4413380000000 1.0
C      1  0.5778750000000  0.5151360000000  0.5385410000000 1.0
C      1  0.4328110000000  0.5503080000000  0.5184280000000 1.0
C      1  0.4700950000000  0.4835730000000  0.4165610000000 1.0
C      1  0.4976900000000  0.5014860000000  0.4599360000000 1.0
C      1  0.5137390000000  0.5357540000000  0.4291790000000 1.0
C      1  0.5505340000000  0.4488000000000  0.5267350000000 1.0
C      1  0.4992170000000  0.4433500000000  0.4183350000000 1.0
C      1  0.5242280000000  0.5747750000000  0.5107680000000 1.0
C      1  0.5424080000000  0.4630590000000  0.4790380000000 1.0
C      1  0.4805840000000  0.5213150000000  0.4737340000000 1.0
C      1  0.4465770000000  0.4720670000000  0.4301960000000 1.0
C      1  0.4507360000000  0.4911670000000  0.5771660000000 1.0
END
