TITL C-883736-9678-143 -19.4493531505611 125000 -12302.2427160203 0 0 84 (C1) n - 1
REM
REM in /home/nfs/bkarasulu/CARBON/AIRSS/Generating-Clusters/ReaxFF-fromJPCA2015/Units_Real/with-SteepDescent/Only-C1/SD-CG/Try1-3A/FIRE-CG
REM
REM
REM
REM
REM
REM ./C.cell (11c1c37f851c82e70ff6c80c92926a4b)
REM
REM compiler GCC version 9.2.1 20190827 (Red Hat 9.2.1-1)
REM options -cpp -mtune=generic -march=x86-64 -g -O0 -fpre-include=/usr/include/finclude/math-vector-fortran.h
REM seed -1830726636 -2050541020 -1001754963 -263911326 530344895 1936621981 -1281121555 1360081423 -1422296422 727685682 -796822612 -2064005420 706645264 -1284811063 -611812321 1148170923 -376204195 889410983 -381745509 1391576204 1759343088 -1623037702 1376482205 759377519 745391529 -306885915 -810597478 -1208522541 -593211926 1809457807 1995885865 806123072 1310567482
REM
CELL 1.54180   50.00000   50.00000   50.00000   90.00000   90.00000   90.00000
LATT -1
SFAC C  
C      1  0.5418020000000  0.4889680000000  0.4968880000000 1.0
C      1  0.4611230000000  0.5143980000000  0.5685680000000 1.0
C      1  0.4550000000000  0.4733390000000  0.4504580000000 1.0
C      1  0.5290810000000  0.5199640000000  0.5790540000000 1.0
C      1  0.4639970000000  0.4505300000000  0.5418880000000 1.0
C      1  0.5170100000000  0.4019710000000  0.5413320000000 1.0
C      1  0.4483920000000  0.5397960000000  0.4899770000000 1.0
C      1  0.4535540000000  0.5111330000000  0.4875850000000 1.0
C      1  0.5224970000000  0.4850310000000  0.5176780000000 1.0
C      1  0.4930460000000  0.5546330000000  0.5643900000000 1.0
C      1  0.5676830000000  0.4957000000000  0.5106450000000 1.0
C      1  0.5143410000000  0.5265510000000  0.4885400000000 1.0
C      1  0.5164500000000  0.5208820000000  0.4201960000000 1.0
C      1  0.4976890000000  0.5441690000000  0.5024860000000 1.0
C      1  0.5443140000000  0.4797000000000  0.5540460000000 1.0
C      1  0.5617400000000  0.5490440000000  0.5285260000000 1.0
C      1  0.4488600000000  0.4679070000000  0.5593430000000 1.0
C      1  0.5364310000000  0.5306070000000  0.4959050000000 1.0
C      1  0.5649470000000  0.5464470000000  0.4624200000000 1.0
C      1  0.5004710000000  0.5783820000000  0.4662850000000 1.0
C      1  0.5325340000000  0.4336810000000  0.4801910000000 1.0
C      1  0.4552180000000  0.4678430000000  0.5183570000000 1.0
C      1  0.4747470000000  0.5440330000000  0.4386220000000 1.0
C      1  0.5359830000000  0.4168770000000  0.5271290000000 1.0
C      1  0.4778200000000  0.4960120000000  0.4862460000000 1.0
C      1  0.4358800000000  0.5258620000000  0.5595370000000 1.0
C      1  0.5546910000000  0.5208840000000  0.4535700000000 1.0
C      1  0.4830160000000  0.4262710000000  0.4796160000000 1.0
C      1  0.5242030000000  0.4908640000000  0.5745330000000 1.0
C      1  0.5092020000000  0.4925470000000  0.4196440000000 1.0
C      1  0.5623370000000  0.4977060000000  0.5411640000000 1.0
C      1  0.4843880000000  0.5274090000000  0.5561210000000 1.0
C      1  0.5041840000000  0.4631810000000  0.4530890000000 1.0
C      1  0.5304040000000  0.5313870000000  0.5498730000000 1.0
C      1  0.5441210000000  0.5672100000000  0.4618360000000 1.0
C      1  0.4374000000000  0.5481040000000  0.5413280000000 1.0
C      1  0.5318030000000  0.4538950000000  0.4576430000000 1.0
C      1  0.5502980000000  0.4258420000000  0.5019360000000 1.0
C      1  0.5371760000000  0.4845650000000  0.4311580000000 1.0
C      1  0.5415000000000  0.5783940000000  0.4885520000000 1.0
C      1  0.5630520000000  0.5672730000000  0.5068980000000 1.0
C      1  0.5610650000000  0.5267810000000  0.5455990000000 1.0
C      1  0.4929540000000  0.4081210000000  0.5433420000000 1.0
C      1  0.4867350000000  0.5703050000000  0.5402610000000 1.0
C      1  0.4963990000000  0.4851830000000  0.5751210000000 1.0
C      1  0.4273520000000  0.4986630000000  0.4814330000000 1.0
C      1  0.5053330000000  0.5689190000000  0.5175840000000 1.0
C      1  0.4534230000000  0.4120790000000  0.5156080000000 1.0
C      1  0.5362270000000  0.4611550000000  0.5317740000000 1.0
C      1  0.4873430000000  0.4496400000000  0.4330700000000 1.0
C      1  0.4274870000000  0.4990900000000  0.5166390000000 1.0
C      1  0.5826340000000  0.4665400000000  0.5037430000000 1.0
C      1  0.5085030000000  0.4329190000000  0.4958630000000 1.0
C      1  0.4679820000000  0.4860020000000  0.5743350000000 1.0
C      1  0.4539660000000  0.4228330000000  0.4878180000000 1.0
C      1  0.4341080000000  0.4449900000000  0.4814290000000 1.0
C      1  0.4809350000000  0.4757390000000  0.4656910000000 1.0
C      1  0.4318110000000  0.4705440000000  0.4687530000000 1.0
C      1  0.4233750000000  0.5230370000000  0.5321020000000 1.0
C      1  0.4765810000000  0.4331960000000  0.4538770000000 1.0
C      1  0.5643830000000  0.5230640000000  0.4964580000000 1.0
C      1  0.5190220000000  0.5464460000000  0.5746010000000 1.0
C      1  0.5178230000000  0.5648030000000  0.4485730000000 1.0
C      1  0.5376090000000  0.4994890000000  0.4692790000000 1.0
C      1  0.4838230000000  0.4782680000000  0.4202140000000 1.0
C      1  0.5130940000000  0.5831490000000  0.4930170000000 1.0
C      1  0.5036680000000  0.5148260000000  0.5394640000000 1.0
C      1  0.4525450000000  0.5590520000000  0.4699970000000 1.0
C      1  0.5030040000000  0.5431250000000  0.4332810000000 1.0
C      1  0.4608520000000  0.5614040000000  0.5301120000000 1.0
C      1  0.5150380000000  0.4377120000000  0.5247370000000 1.0
C      1  0.4684030000000  0.5498040000000  0.5058660000000 1.0
C      1  0.4735600000000  0.5692880000000  0.4547220000000 1.0
C      1  0.4324310000000  0.4774160000000  0.5349280000000 1.0
C      1  0.5448710000000  0.4761720000000  0.4551940000000 1.0
C      1  0.5445510000000  0.5136330000000  0.4274930000000 1.0
C      1  0.4599160000000  0.4923460000000  0.4289180000000 1.0
C      1  0.5623090000000  0.4502950000000  0.5137330000000 1.0
C      1  0.5777240000000  0.5478610000000  0.4895920000000 1.0
C      1  0.4536430000000  0.5204780000000  0.4385790000000 1.0
C      1  0.4967140000000  0.4921480000000  0.5266050000000 1.0
C      1  0.4302360000000  0.5170290000000  0.4551970000000 1.0
C      1  0.4753360000000  0.4870480000000  0.5115610000000 1.0
C      1  0.4668490000000  0.4204180000000  0.5405840000000 1.0
END
