TITL C-883736-9678-262 107.963534633409 125000 -18877.0425047497 0 0 129 (C1) n - 1
REM
REM in /home/nfs/bkarasulu/CARBON/AIRSS/Generating-Clusters/ReaxFF-fromJPCA2015/Units_Real/with-SteepDescent/Only-C1/SD-CG/Try1-3A/FIRE-CG
REM
REM
REM
REM
REM
REM ./C.cell (11c1c37f851c82e70ff6c80c92926a4b)
REM
REM compiler GCC version 9.2.1 20190827 (Red Hat 9.2.1-1)
REM options -cpp -mtune=generic -march=x86-64 -g -O0 -fpre-include=/usr/include/finclude/math-vector-fortran.h
REM seed 1330533473 1958281787 -1238423385 -769312827 1992220196 1610302246 261544056 482534103 -1922378832 948440045 -1368010498 320969893 -2079545326 419308588 1031045567 2138167138 1078463040 -1121603845 773799048 -1399941397 -985558764 2024636194 -1106142688 685029879 1487704930 1798277549 -1050670117 34700489 662404868 -2012736857 -1830186636 143219150 341181159
REM
CELL 1.54180   50.00000   50.00000   50.00000   90.00000   90.00000   90.00000
LATT -1
SFAC C  
C      1  0.4522510000000  0.4997340000000  0.5762630000000 1.0
C      1  0.4953390000000  0.5833460000000  0.4613910000000 1.0
C      1  0.5904580000000  0.4547870000000  0.4895300000000 1.0
C      1  0.4476330000000  0.4303830000000  0.5553000000000 1.0
C      1  0.4953230000000  0.4648250000000  0.4519340000000 1.0
C      1  0.5436230000000  0.4307730000000  0.5078860000000 1.0
C      1  0.5111000000000  0.5643390000000  0.4434710000000 1.0
C      1  0.4788020000000  0.4672490000000  0.5631070000000 1.0
C      1  0.5571250000000  0.4943530000000  0.5749270000000 1.0
C      1  0.4535850000000  0.4209520000000  0.4821130000000 1.0
C      1  0.4806760000000  0.5537480000000  0.4998410000000 1.0
C      1  0.4939370000000  0.4824170000000  0.4992340000000 1.0
C      1  0.5047900000000  0.5050380000000  0.5885770000000 1.0
C      1  0.4845460000000  0.4477320000000  0.4277140000000 1.0
C      1  0.4688100000000  0.5971560000000  0.5141610000000 1.0
C      1  0.4125200000000  0.4968570000000  0.5457160000000 1.0
C      1  0.5509620000000  0.4539170000000  0.5688370000000 1.0
C      1  0.4516040000000  0.5326570000000  0.4353920000000 1.0
C      1  0.5082310000000  0.5429700000000  0.4641620000000 1.0
C      1  0.5099910000000  0.5048910000000  0.4095840000000 1.0
C      1  0.4473700000000  0.5368960000000  0.5438840000000 1.0
C      1  0.4042390000000  0.4963400000000  0.4682440000000 1.0
C      1  0.4477620000000  0.5084010000000  0.4857470000000 1.0
C      1  0.5082030000000  0.4509440000000  0.5917120000000 1.0
C      1  0.4386660000000  0.5695580000000  0.5054030000000 1.0
C      1  0.4806440000000  0.4712200000000  0.4088180000000 1.0
C      1  0.4188920000000  0.4681360000000  0.5343610000000 1.0
C      1  0.5560080000000  0.4808070000000  0.5233850000000 1.0
C      1  0.5752330000000  0.5236610000000  0.5513280000000 1.0
C      1  0.4166690000000  0.4907610000000  0.4417770000000 1.0
C      1  0.5574700000000  0.5120980000000  0.4305700000000 1.0
C      1  0.4333050000000  0.5128480000000  0.5590450000000 1.0
C      1  0.5449580000000  0.5064870000000  0.5282650000000 1.0
C      1  0.4271860000000  0.5507460000000  0.5204560000000 1.0
C      1  0.5878700000000  0.5121500000000  0.4853600000000 1.0
C      1  0.5156400000000  0.5544630000000  0.4007330000000 1.0
C      1  0.4846710000000  0.4431510000000  0.5757440000000 1.0
C      1  0.5045670000000  0.4429330000000  0.4682620000000 1.0
C      1  0.4844750000000  0.4302830000000  0.4881380000000 1.0
C      1  0.5949210000000  0.5212000000000  0.5138360000000 1.0
C      1  0.4956500000000  0.4214810000000  0.5168100000000 1.0
C      1  0.4232580000000  0.5136910000000  0.4825070000000 1.0
C      1  0.5841140000000  0.4513460000000  0.5191220000000 1.0
C      1  0.4109330000000  0.5316940000000  0.5043810000000 1.0
C      1  0.5145900000000  0.4361720000000  0.4277250000000 1.0
C      1  0.5323470000000  0.5805240000000  0.5444390000000 1.0
C      1  0.4695580000000  0.5819930000000  0.5458020000000 1.0
C      1  0.4830900000000  0.4722810000000  0.5363930000000 1.0
C      1  0.4783830000000  0.4579070000000  0.4961620000000 1.0
C      1  0.5448670000000  0.4746450000000  0.5895720000000 1.0
C      1  0.5704370000000  0.4885770000000  0.4422980000000 1.0
C      1  0.5315250000000  0.5087980000000  0.4845970000000 1.0
C      1  0.4136370000000  0.4549340000000  0.5030770000000 1.0
C      1  0.5081880000000  0.5504960000000  0.5803900000000 1.0
C      1  0.5207550000000  0.5188010000000  0.4592750000000 1.0
C      1  0.4996760000000  0.5465140000000  0.5401640000000 1.0
C      1  0.4334050000000  0.4536190000000  0.5581390000000 1.0
C      1  0.4437420000000  0.4607030000000  0.4571560000000 1.0
C      1  0.5278890000000  0.5721850000000  0.4925550000000 1.0
C      1  0.4812370000000  0.5619010000000  0.5272790000000 1.0
C      1  0.5092860000000  0.4764690000000  0.4055480000000 1.0
C      1  0.5256900000000  0.4384050000000  0.5726180000000 1.0
C      1  0.5280280000000  0.5094090000000  0.4322090000000 1.0
C      1  0.4723520000000  0.4191420000000  0.5597580000000 1.0
C      1  0.5011310000000  0.5251810000000  0.5252620000000 1.0
C      1  0.5579400000000  0.5486660000000  0.5093560000000 1.0
C      1  0.4600630000000  0.5463380000000  0.4595200000000 1.0
C      1  0.5843270000000  0.4350530000000  0.4704590000000 1.0
C      1  0.4502110000000  0.4120780000000  0.4538070000000 1.0
C      1  0.5557940000000  0.4649530000000  0.4333090000000 1.0
C      1  0.4540780000000  0.5871450000000  0.4911370000000 1.0
C      1  0.4967370000000  0.6032170000000  0.5096610000000 1.0
C      1  0.5236030000000  0.5265720000000  0.5817230000000 1.0
C      1  0.5383750000000  0.5491570000000  0.4001320000000 1.0
C      1  0.4814760000000  0.5136410000000  0.4063440000000 1.0
C      1  0.5757120000000  0.5246270000000  0.4641810000000 1.0
C      1  0.5553720000000  0.4686400000000  0.4749120000000 1.0
C      1  0.4723960000000  0.5397930000000  0.4157480000000 1.0
C      1  0.5556600000000  0.5661300000000  0.4862350000000 1.0
C      1  0.5113950000000  0.4760930000000  0.5419190000000 1.0
C      1  0.4613490000000  0.4932810000000  0.4122880000000 1.0
C      1  0.5315680000000  0.4047490000000  0.4996090000000 1.0
C      1  0.4802580000000  0.4885840000000  0.4604830000000 1.0
C      1  0.5824150000000  0.4769720000000  0.5330490000000 1.0
C      1  0.4942600000000  0.5591400000000  0.4173670000000 1.0
C      1  0.5531610000000  0.5206960000000  0.5722740000000 1.0
C      1  0.4855950000000  0.4043940000000  0.5372580000000 1.0
C      1  0.4768490000000  0.5143960000000  0.5840240000000 1.0
C      1  0.5161950000000  0.5773930000000  0.5699540000000 1.0
C      1  0.4687610000000  0.5283830000000  0.4845140000000 1.0
C      1  0.4336390000000  0.4338760000000  0.4997820000000 1.0
C      1  0.4660590000000  0.4942120000000  0.5276400000000 1.0
C      1  0.5430480000000  0.4641800000000  0.5010350000000 1.0
C      1  0.5119790000000  0.6014040000000  0.5352290000000 1.0
C      1  0.5801080000000  0.5421630000000  0.5282080000000 1.0
C      1  0.4607490000000  0.5571030000000  0.5611590000000 1.0
C      1  0.4535030000000  0.4538490000000  0.5086660000000 1.0
C      1  0.5299930000000  0.4589370000000  0.4188140000000 1.0
C      1  0.5180840000000  0.5022360000000  0.5352140000000 1.0
C      1  0.4399850000000  0.5048590000000  0.4296630000000 1.0
C      1  0.5106410000000  0.3985370000000  0.5222170000000 1.0
C      1  0.4952650000000  0.5943700000000  0.5576930000000 1.0
C      1  0.5565950000000  0.4454680000000  0.4560980000000 1.0
C      1  0.5448170000000  0.5579690000000  0.4391000000000 1.0
C      1  0.4534450000000  0.4701160000000  0.5733690000000 1.0
C      1  0.5097810000000  0.5939590000000  0.4843180000000 1.0
C      1  0.4677950000000  0.5740430000000  0.4655850000000 1.0
C      1  0.4516240000000  0.4875260000000  0.4684510000000 1.0
C      1  0.5622850000000  0.5509600000000  0.4611280000000 1.0
C      1  0.5160030000000  0.4787770000000  0.5956960000000 1.0
C      1  0.4713830000000  0.5209930000000  0.5308980000000 1.0
C      1  0.5936830000000  0.5042000000000  0.5377800000000 1.0
C      1  0.5325810000000  0.4513740000000  0.5467650000000 1.0
C      1  0.5437110000000  0.5236800000000  0.5050160000000 1.0
C      1  0.4579020000000  0.4394470000000  0.4431320000000 1.0
C      1  0.5277660000000  0.4006240000000  0.4712880000000 1.0
C      1  0.5807650000000  0.4840400000000  0.4724670000000 1.0
C      1  0.4893980000000  0.5052300000000  0.4822190000000 1.0
C      1  0.4453670000000  0.4756600000000  0.5233120000000 1.0
C      1  0.4049710000000  0.4676320000000  0.4784840000000 1.0
C      1  0.5086040000000  0.5480440000000  0.4933360000000 1.0
C      1  0.5214480000000  0.4828370000000  0.4928740000000 1.0
C      1  0.5268120000000  0.4270170000000  0.4542560000000 1.0
C      1  0.5579330000000  0.5417480000000  0.4193870000000 1.0
C      1  0.5585520000000  0.4398560000000  0.5304490000000 1.0
C      1  0.4156110000000  0.4617240000000  0.4506860000000 1.0
C      1  0.4060350000000  0.5155150000000  0.5264210000000 1.0
C      1  0.4788780000000  0.5431890000000  0.5788780000000 1.0
C      1  0.5258250000000  0.5544850000000  0.5365790000000 1.0
END
