TITL C-884131-4643-296 50.2384641943783 125000 -21404.501113419 0 0 146 (C1) n - 1
REM
REM in /home/nfs/bkarasulu/CARBON/AIRSS/Generating-Clusters/ReaxFF-fromJPCA2015/Units_Real/with-SteepDescent/Only-C1/SD-CG/Try1-3A/FIRE-CG
REM
REM
REM
REM
REM
REM ./C.cell (11c1c37f851c82e70ff6c80c92926a4b)
REM
REM compiler GCC version 9.2.1 20190827 (Red Hat 9.2.1-1)
REM options -cpp -mtune=generic -march=x86-64 -g -O0 -fpre-include=/usr/include/finclude/math-vector-fortran.h
REM seed 101291251 474930748 -561912879 119954467 2128783429 -1961313001 -1939997227 -1072942045 286792772 -663716894 1491786781 1185537052 1615657076 2010673005 -1179046199 -456171525 -1693422951 1665640602 -575722945 -1368435063 -1066172332 -1126832028 -1479185395 -564265880 1369822251 -186517845 -2106164763 745814774 -1045196290 171779561 587846300 1372228924 -204148619
REM
CELL 1.54180   50.00000   50.00000   50.00000   90.00000   90.00000   90.00000
LATT -1
SFAC C  
C      1  0.4266330000000  0.5853830000000  0.5143970000000 1.0
C      1  0.5262200000000  0.4449320000000  0.5446700000000 1.0
C      1  0.5363490000000  0.4502380000000  0.4194140000000 1.0
C      1  0.4950550000000  0.5161640000000  0.5537830000000 1.0
C      1  0.4718260000000  0.4506300000000  0.5211230000000 1.0
C      1  0.4651330000000  0.5038310000000  0.4005490000000 1.0
C      1  0.5090650000000  0.5639220000000  0.5514120000000 1.0
C      1  0.4586030000000  0.5526010000000  0.5040900000000 1.0
C      1  0.5672760000000  0.5570830000000  0.5418210000000 1.0
C      1  0.5984530000000  0.4924000000000  0.5094100000000 1.0
C      1  0.5167750000000  0.5474460000000  0.4474080000000 1.0
C      1  0.5437800000000  0.4873480000000  0.4601230000000 1.0
C      1  0.5424460000000  0.5339040000000  0.5181430000000 1.0
C      1  0.4089680000000  0.5334720000000  0.5135170000000 1.0
C      1  0.4892850000000  0.4564150000000  0.4804360000000 1.0
C      1  0.5130230000000  0.4154740000000  0.4931140000000 1.0
C      1  0.5436810000000  0.5150220000000  0.5374150000000 1.0
C      1  0.4887390000000  0.5119090000000  0.6015370000000 1.0
C      1  0.5334100000000  0.4809500000000  0.5205000000000 1.0
C      1  0.5629870000000  0.4548870000000  0.4271130000000 1.0
C      1  0.5463240000000  0.5009650000000  0.4218000000000 1.0
C      1  0.4100880000000  0.4446340000000  0.5227870000000 1.0
C      1  0.4476800000000  0.5908930000000  0.5358730000000 1.0
C      1  0.4519690000000  0.5485960000000  0.4295030000000 1.0
C      1  0.4041290000000  0.4719500000000  0.5150650000000 1.0
C      1  0.5612600000000  0.5578160000000  0.4514900000000 1.0
C      1  0.4767220000000  0.4812540000000  0.4866660000000 1.0
C      1  0.5596920000000  0.4477330000000  0.5504040000000 1.0
C      1  0.5689690000000  0.4198530000000  0.4835070000000 1.0
C      1  0.5987560000000  0.5007970000000  0.4807200000000 1.0
C      1  0.5055250000000  0.4809950000000  0.5221350000000 1.0
C      1  0.5231140000000  0.5336280000000  0.4732610000000 1.0
C      1  0.5134230000000  0.4959810000000  0.6012040000000 1.0
C      1  0.5839570000000  0.4344740000000  0.5049370000000 1.0
C      1  0.5611390000000  0.5185330000000  0.5752750000000 1.0
C      1  0.4436360000000  0.4627970000000  0.5690610000000 1.0
C      1  0.4213770000000  0.4814490000000  0.5628680000000 1.0
C      1  0.4426230000000  0.4509130000000  0.4337900000000 1.0
C      1  0.4449520000000  0.5430770000000  0.4803890000000 1.0
C      1  0.4746600000000  0.4965010000000  0.5485560000000 1.0
C      1  0.5306920000000  0.5594120000000  0.5740220000000 1.0
C      1  0.4850430000000  0.4526460000000  0.5904080000000 1.0
C      1  0.4474070000000  0.5202250000000  0.4162310000000 1.0
C      1  0.4741940000000  0.4724740000000  0.4022940000000 1.0
C      1  0.5218360000000  0.4053540000000  0.5698490000000 1.0
C      1  0.4673960000000  0.4490040000000  0.4170670000000 1.0
C      1  0.4466180000000  0.5875990000000  0.4657450000000 1.0
C      1  0.5425500000000  0.5494170000000  0.4309450000000 1.0
C      1  0.4650690000000  0.6083200000000  0.5014900000000 1.0
C      1  0.5090610000000  0.5276160000000  0.4059720000000 1.0
C      1  0.5759320000000  0.5330800000000  0.4542980000000 1.0
C      1  0.5047630000000  0.4214560000000  0.5493900000000 1.0
C      1  0.5218610000000  0.5471470000000  0.5304880000000 1.0
C      1  0.5055570000000  0.4795020000000  0.4443080000000 1.0
C      1  0.4273810000000  0.5113100000000  0.5634280000000 1.0
C      1  0.4303080000000  0.5013250000000  0.4314750000000 1.0
C      1  0.5723390000000  0.4752760000000  0.5496680000000 1.0
C      1  0.4424270000000  0.4601420000000  0.4767840000000 1.0
C      1  0.5531970000000  0.5749410000000  0.4747270000000 1.0
C      1  0.4640360000000  0.4963340000000  0.5967010000000 1.0
C      1  0.5917990000000  0.5106090000000  0.5328660000000 1.0
C      1  0.5879290000000  0.5485130000000  0.5001700000000 1.0
C      1  0.5109160000000  0.5469340000000  0.5889780000000 1.0
C      1  0.4298590000000  0.5314500000000  0.5398900000000 1.0
C      1  0.4869280000000  0.4059470000000  0.4783050000000 1.0
C      1  0.4385610000000  0.5992180000000  0.4912020000000 1.0
C      1  0.4892730000000  0.5227820000000  0.5049010000000 1.0
C      1  0.5042780000000  0.5649410000000  0.4906890000000 1.0
C      1  0.5565430000000  0.5467580000000  0.5668310000000 1.0
C      1  0.4745260000000  0.4038010000000  0.5042060000000 1.0
C      1  0.5227210000000  0.4792510000000  0.4203750000000 1.0
C      1  0.5542480000000  0.5767640000000  0.5233780000000 1.0
C      1  0.5025060000000  0.5465230000000  0.5110530000000 1.0
C      1  0.4373290000000  0.5145100000000  0.4796240000000 1.0
C      1  0.5541750000000  0.5008700000000  0.4832280000000 1.0
C      1  0.5809360000000  0.5020680000000  0.5596170000000 1.0
C      1  0.5024000000000  0.4526250000000  0.5188140000000 1.0
C      1  0.5429500000000  0.4610010000000  0.4755260000000 1.0
C      1  0.4162300000000  0.4704920000000  0.4671170000000 1.0
C      1  0.4383300000000  0.5729030000000  0.5557950000000 1.0
C      1  0.4878580000000  0.4311360000000  0.4315920000000 1.0
C      1  0.5864700000000  0.5393980000000  0.5274600000000 1.0
C      1  0.4438450000000  0.4161720000000  0.5020700000000 1.0
C      1  0.5280580000000  0.5883880000000  0.5170980000000 1.0
C      1  0.4464130000000  0.4223860000000  0.4511760000000 1.0
C      1  0.4012880000000  0.4861710000000  0.4877420000000 1.0
C      1  0.4556540000000  0.5052140000000  0.5699730000000 1.0
C      1  0.5553710000000  0.4907610000000  0.5315210000000 1.0
C      1  0.5144990000000  0.4465480000000  0.4913600000000 1.0
C      1  0.5040200000000  0.5886580000000  0.5326630000000 1.0
C      1  0.4153630000000  0.5596980000000  0.5123320000000 1.0
C      1  0.5263540000000  0.4595870000000  0.5688400000000 1.0
C      1  0.5314050000000  0.4186460000000  0.4533950000000 1.0
C      1  0.5921790000000  0.5299960000000  0.4774610000000 1.0
C      1  0.4932670000000  0.4974160000000  0.4628000000000 1.0
C      1  0.5261390000000  0.5863280000000  0.4836930000000 1.0
C      1  0.4924960000000  0.5088900000000  0.3904900000000 1.0
C      1  0.5313950000000  0.4507890000000  0.5950350000000 1.0
C      1  0.4310080000000  0.4788030000000  0.5155350000000 1.0
C      1  0.4205490000000  0.4193860000000  0.5257790000000 1.0
C      1  0.4530830000000  0.4445540000000  0.4997750000000 1.0
C      1  0.4592190000000  0.5387080000000  0.5308850000000 1.0
C      1  0.5617840000000  0.4751340000000  0.4937760000000 1.0
C      1  0.5688020000000  0.5710810000000  0.4980720000000 1.0
C      1  0.4601500000000  0.4674560000000  0.5931500000000 1.0
C      1  0.5342310000000  0.4203130000000  0.5913260000000 1.0
C      1  0.4692190000000  0.5122900000000  0.5228120000000 1.0
C      1  0.4583130000000  0.4690990000000  0.4537520000000 1.0
C      1  0.4833120000000  0.5430280000000  0.5568810000000 1.0
C      1  0.4757210000000  0.5956440000000  0.4744330000000 1.0
C      1  0.5827460000000  0.4595010000000  0.4473670000000 1.0
C      1  0.4097900000000  0.5139760000000  0.4911120000000 1.0
C      1  0.4865760000000  0.4590270000000  0.4506920000000 1.0
C      1  0.5084220000000  0.4668000000000  0.6043030000000 1.0
C      1  0.5184490000000  0.4915700000000  0.5000250000000 1.0
C      1  0.5890980000000  0.4869110000000  0.4562310000000 1.0
C      1  0.4220400000000  0.4741480000000  0.4386660000000 1.0
C      1  0.4524070000000  0.4929740000000  0.5015560000000 1.0
C      1  0.4742530000000  0.5661030000000  0.4308580000000 1.0
C      1  0.5355360000000  0.5050100000000  0.5833120000000 1.0
C      1  0.5879140000000  0.4656570000000  0.5025030000000 1.0
C      1  0.5009200000000  0.4817590000000  0.3973400000000 1.0
C      1  0.4852670000000  0.5382980000000  0.5874490000000 1.0
C      1  0.5235360000000  0.5123960000000  0.5586050000000 1.0
C      1  0.5067990000000  0.5130590000000  0.4845330000000 1.0
C      1  0.4418020000000  0.5604110000000  0.4559750000000 1.0
C      1  0.5042580000000  0.5939380000000  0.4630850000000 1.0
C      1  0.4843250000000  0.4393000000000  0.5646630000000 1.0
C      1  0.4676590000000  0.4584860000000  0.5493750000000 1.0
C      1  0.4520700000000  0.5006150000000  0.4519310000000 1.0
C      1  0.4312760000000  0.4128570000000  0.4733920000000 1.0
C      1  0.4756570000000  0.5978620000000  0.5263220000000 1.0
C      1  0.5676320000000  0.5038530000000  0.4430690000000 1.0
C      1  0.5718060000000  0.4367320000000  0.5285430000000 1.0
C      1  0.5457110000000  0.5283010000000  0.4897300000000 1.0
C      1  0.4981930000000  0.4091790000000  0.5189890000000 1.0
C      1  0.5198030000000  0.4287390000000  0.4308370000000 1.0
C      1  0.5420670000000  0.4094910000000  0.4769450000000 1.0
C      1  0.4954040000000  0.5308070000000  0.4312830000000 1.0
C      1  0.4744180000000  0.4146000000000  0.4529810000000 1.0
C      1  0.5382510000000  0.5269270000000  0.4124830000000 1.0
C      1  0.4307860000000  0.5517420000000  0.5611350000000 1.0
C      1  0.4776620000000  0.5142940000000  0.4472420000000 1.0
C      1  0.5651790000000  0.4420740000000  0.4653160000000 1.0
C      1  0.4781370000000  0.5687990000000  0.4892130000000 1.0
C      1  0.4988810000000  0.5747410000000  0.4429390000000 1.0
END
