TITL C-883735-9890-20 2569614.51832649 125000 -16873.1364772151 0 0 113 (C1) n - 1
REM
REM in /home/nfs/bkarasulu/CARBON/AIRSS/Generating-Clusters/ReaxFF-fromJPCA2015/Units_Real/with-SteepDescent/Only-C1/SD-CG/Try1-3A/FIRE-CG
REM
REM
REM
REM
REM
REM ./C.cell (11c1c37f851c82e70ff6c80c92926a4b)
REM
REM compiler GCC version 9.2.1 20190827 (Red Hat 9.2.1-1)
REM options -cpp -mtune=generic -march=x86-64 -g -O0 -fpre-include=/usr/include/finclude/math-vector-fortran.h
REM seed -1258566381 585959446 1769458478 1750274907 279013581 1733035293 875454441 -1065254074 721910410 185470993 1597481066 1172861796 1972190597 -705276031 -2086857397 -547699337 1204905897 -707116052 1515000556 -147641354 -1232876631 -1959181578 1038590373 417613255 1661253796 -5624898 1490917240 1314301496 -1963097070 -1306330982 -933276866 -941296267 -1951152801
REM
CELL 1.54180   50.00000   50.00000   50.00000   90.00000   90.00000   90.00000
LATT -1
SFAC C  
C      1  0.5577220000000  0.4403840000000  0.4552040000000 1.0
C      1  0.5741460000000  0.5152680000000  0.5540740000000 1.0
C      1  0.4755240000000  0.4839470000000  0.4592620000000 1.0
C      1  0.4966050000000  0.4410990000000  0.5519730000000 1.0
C      1  0.4485300000000  0.4465450000000  0.5594210000000 1.0
C      1  0.4185060000000  0.5376960000000  0.5173090000000 1.0
C      1  0.5291860000000  0.5165910000000  0.4232950000000 1.0
C      1  0.5458650000000  0.4783850000000  0.4297390000000 1.0
C      1  0.4273870000000  0.4573530000000  0.5421970000000 1.0
C      1  0.4505030000000  0.4869800000000  0.5695440000000 1.0
C      1  0.4185490000000  0.5390660000000  0.4887230000000 1.0
C      1  0.4815940000000  0.5055290000000  0.4401710000000 1.0
C      1  0.4272270000000  0.4577200000000  0.4825190000000 1.0
C      1  0.5032830000000  0.5047470000000  0.5809350000000 1.0
C      1  0.5184340000000  0.5778160000000  0.5312380000000 1.0
C      1  0.4569030000000  0.5154110000000  0.4284370000000 1.0
C      1  0.4696040000000  0.5918470000000  0.5111580000000 1.0
C      1  0.4367060000000  0.4346810000000  0.4949580000000 1.0
C      1  0.4518870000000  0.5602160000000  0.4725110000000 1.0
C      1  0.5720980000000  0.5471080000000  0.4575200000000 1.0
C      1  0.5550340000000  0.5061220000000  0.4333370000000 1.0
C      1  0.5640740000000  0.5416050000000  0.5557970000000 1.0
C      1  0.5219250000000  0.4624460000000  0.4201980000000 1.0
C      1  0.4746600000000  0.5511060000000  0.5794120000000 1.0
C      1  0.4606980000000  0.5120990000000  0.4889390000000 1.0
C      1  0.4127100000000  0.4889390000000  0.5062880000000 1.0
C      1  0.4929370000000  0.5902730000000  0.5267350000000 1.0
C      1  0.5705600000000  0.4600070000000  0.5057710000000 1.0
C      1  0.5396170000000  0.4512980000000  0.5571380000000 1.0
C      1  0.4294840000000  0.4340160000000  0.5240500000000 1.0
C      1  0.5321800000000  0.4793230000000  0.4964030000000 1.0
C      1  0.4883480000000  0.5062460000000  0.4895960000000 1.0
C      1  0.5751400000000  0.5437710000000  0.5083530000000 1.0
C      1  0.4288730000000  0.5442950000000  0.4626580000000 1.0
C      1  0.5553690000000  0.5829300000000  0.4979140000000 1.0
C      1  0.4506230000000  0.4897640000000  0.4737260000000 1.0
C      1  0.4615030000000  0.4533720000000  0.4235760000000 1.0
C      1  0.5872230000000  0.5046880000000  0.4783070000000 1.0
C      1  0.4488870000000  0.5526090000000  0.5662460000000 1.0
C      1  0.5494850000000  0.5794480000000  0.5261010000000 1.0
C      1  0.4498010000000  0.4220000000000  0.5419000000000 1.0
C      1  0.5584980000000  0.4722310000000  0.5552520000000 1.0
C      1  0.5209450000000  0.4910820000000  0.5199580000000 1.0
C      1  0.5379410000000  0.5380570000000  0.5664070000000 1.0
C      1  0.5672590000000  0.5582930000000  0.5339020000000 1.0
C      1  0.5200450000000  0.5359690000000  0.5430290000000 1.0
C      1  0.5354600000000  0.5259430000000  0.4760860000000 1.0
C      1  0.5156240000000  0.5881620000000  0.4636950000000 1.0
C      1  0.5117450000000  0.4095310000000  0.5004910000000 1.0
C      1  0.4921560000000  0.5497860000000  0.4933850000000 1.0
C      1  0.4722210000000  0.4270800000000  0.4610100000000 1.0
C      1  0.4614860000000  0.5415770000000  0.4950730000000 1.0
C      1  0.5327440000000  0.4287400000000  0.4554980000000 1.0
C      1  0.5328140000000  0.4248390000000  0.4854900000000 1.0
C      1  0.5281750000000  0.5706600000000  0.4442200000000 1.0
C      1  0.4640800000000  0.5858710000000  0.4805710000000 1.0
C      1  0.4663720000000  0.4699790000000  0.5214560000000 1.0
C      1  0.5188890000000  0.4659360000000  0.4751230000000 1.0
C      1  0.5559820000000  0.4983600000000  0.5690770000000 1.0
C      1  0.5277980000000  0.5811590000000  0.4897010000000 1.0
C      1  0.4215030000000  0.5151890000000  0.5385500000000 1.0
C      1  0.5504600000000  0.4389480000000  0.5046090000000 1.0
C      1  0.5747110000000  0.4748470000000  0.5303390000000 1.0
C      1  0.5344580000000  0.4369120000000  0.5302170000000 1.0
C      1  0.5048370000000  0.4541960000000  0.5268160000000 1.0
C      1  0.4355420000000  0.5263800000000  0.5616840000000 1.0
C      1  0.4972120000000  0.4115680000000  0.5460870000000 1.0
C      1  0.4805980000000  0.5076070000000  0.5351950000000 1.0
C      1  0.4851570000000  0.4566710000000  0.5046430000000 1.0
C      1  0.4942180000000  0.4969670000000  0.5143330000000 1.0
C      1  0.5436560000000  0.5476780000000  0.4541820000000 1.0
C      1  0.5172510000000  0.5699470000000  0.4143700000000 1.0
C      1  0.5785250000000  0.4761740000000  0.4810470000000 1.0
C      1  0.4989540000000  0.5186420000000  0.5538780000000 1.0
C      1  0.4819770000000  0.4085370000000  0.5026940000000 1.0
C      1  0.4906260000000  0.4652400000000  0.4758380000000 1.0
C      1  0.4729150000000  0.4073610000000  0.5305670000000 1.0
C      1  0.4672700000000  0.4647130000000  0.5767490000000 1.0
C      1  0.5129260000000  0.4402630000000  0.4362140000000 1.0
C      1  0.4862540000000  0.5949010000000  0.4638380000000 1.0
C      1  0.4174500000000  0.4864780000000  0.5327200000000 1.0
C      1  0.4399990000000  0.4725110000000  0.4294680000000 1.0
C      1  0.4296180000000  0.4921480000000  0.4535790000000 1.0
C      1  0.5198480000000  0.4098620000000  0.5282140000000 1.0
C      1  0.5474340000000  0.5309830000000  0.5023490000000 1.0
C      1  0.5053480000000  0.5281920000000  0.4813310000000 1.0
C      1  0.4112360000000  0.4809800000000  0.4789990000000 1.0
C      1  0.5328790000000  0.5127750000000  0.5792220000000 1.0
C      1  0.4522880000000  0.5130230000000  0.5816860000000 1.0
C      1  0.5148460000000  0.5585620000000  0.5085980000000 1.0
C      1  0.4612440000000  0.4183590000000  0.4839350000000 1.0
C      1  0.4510480000000  0.4916600000000  0.4107240000000 1.0
C      1  0.5847990000000  0.5022910000000  0.5297320000000 1.0
C      1  0.4590430000000  0.4895490000000  0.5405810000000 1.0
C      1  0.5188470000000  0.5412650000000  0.4151620000000 1.0
C      1  0.5778040000000  0.5654430000000  0.4831710000000 1.0
C      1  0.5331840000000  0.5180550000000  0.5233660000000 1.0
C      1  0.4949790000000  0.4729580000000  0.5794390000000 1.0
C      1  0.5014150000000  0.4793190000000  0.4086310000000 1.0
C      1  0.4732080000000  0.4720880000000  0.4043740000000 1.0
C      1  0.4831640000000  0.4357780000000  0.4381510000000 1.0
C      1  0.4431320000000  0.5532770000000  0.5185070000000 1.0
C      1  0.5390540000000  0.4759100000000  0.4573400000000 1.0
C      1  0.4784870000000  0.5238080000000  0.5889470000000 1.0
C      1  0.5893340000000  0.5164420000000  0.5048030000000 1.0
C      1  0.5147870000000  0.4527310000000  0.5726190000000 1.0
C      1  0.5817510000000  0.4539750000000  0.4568240000000 1.0
C      1  0.5029820000000  0.5043510000000  0.4214310000000 1.0
C      1  0.5488330000000  0.4929030000000  0.4777060000000 1.0
C      1  0.4710000000000  0.5678770000000  0.5544620000000 1.0
C      1  0.5742810000000  0.5181950000000  0.4536430000000 1.0
C      1  0.4542850000000  0.5770230000000  0.5315820000000 1.0
C      1  0.4337160000000  0.5204850000000  0.4448000000000 1.0
END
