TITL C-883740-3686-469 26.5603556490871 125000 -22522.4728995832 0 0 153 (C1) n - 1
REM
REM in /home/nfs/bkarasulu/CARBON/AIRSS/Generating-Clusters/ReaxFF-fromJPCA2015/Units_Real/with-SteepDescent/Only-C1/SD-CG/Try1-3A/FIRE-CG
REM
REM
REM
REM
REM
REM ./C.cell (11c1c37f851c82e70ff6c80c92926a4b)
REM
REM compiler GCC version 9.2.1 20190827 (Red Hat 9.2.1-1)
REM options -cpp -mtune=generic -march=x86-64 -g -O0 -fpre-include=/usr/include/finclude/math-vector-fortran.h
REM seed 431910949 -1066159181 -675806558 1464820714 28383238 -190669324 759185151 728630873 440444052 1798455705 35661210 -1439164762 605359115 -34681141 339082964 1831430797 1383568807 -1000710828 -1142106146 725159678 -2099177146 -494345913 -480253696 -1838333164 1870991935 -1714580095 79644997 533595725 528704530 -2126330826 -1675137798 267753148 1514973854
REM
CELL 1.54180   50.00000   50.00000   50.00000   90.00000   90.00000   90.00000
LATT -1
SFAC C  
C      1  0.4554700000000  0.4487480000000  0.5526340000000 1.0
C      1  0.4906390000000  0.4522170000000  0.4669370000000 1.0
C      1  0.5059630000000  0.3956190000000  0.4524950000000 1.0
C      1  0.5973800000000  0.5242240000000  0.4781620000000 1.0
C      1  0.4758950000000  0.3960080000000  0.4798050000000 1.0
C      1  0.4452590000000  0.5856780000000  0.4979210000000 1.0
C      1  0.5608590000000  0.5892900000000  0.5172910000000 1.0
C      1  0.4871540000000  0.5152840000000  0.6016580000000 1.0
C      1  0.4676540000000  0.5861400000000  0.4761990000000 1.0
C      1  0.5154940000000  0.5640540000000  0.5396080000000 1.0
C      1  0.5014670000000  0.5424340000000  0.5516320000000 1.0
C      1  0.4727880000000  0.5522920000000  0.5174020000000 1.0
C      1  0.4160340000000  0.5453010000000  0.5098690000000 1.0
C      1  0.4541960000000  0.4172170000000  0.5100810000000 1.0
C      1  0.4697930000000  0.4691380000000  0.5381870000000 1.0
C      1  0.5858260000000  0.5331210000000  0.5035990000000 1.0
C      1  0.5564970000000  0.4493910000000  0.5567820000000 1.0
C      1  0.5041890000000  0.3923780000000  0.4805150000000 1.0
C      1  0.4851150000000  0.6015400000000  0.5181310000000 1.0
C      1  0.4890010000000  0.5185190000000  0.5338580000000 1.0
C      1  0.4205670000000  0.4649310000000  0.5043370000000 1.0
C      1  0.5569940000000  0.5326900000000  0.5025720000000 1.0
C      1  0.5187060000000  0.4727480000000  0.5949750000000 1.0
C      1  0.4214500000000  0.5520310000000  0.4682930000000 1.0
C      1  0.4647120000000  0.5247990000000  0.5162650000000 1.0
C      1  0.5662580000000  0.4383380000000  0.4688790000000 1.0
C      1  0.5526770000000  0.4175640000000  0.4845730000000 1.0
C      1  0.4530080000000  0.5273100000000  0.5734730000000 1.0
C      1  0.5019280000000  0.4899310000000  0.3979860000000 1.0
C      1  0.5429410000000  0.5118250000000  0.4884840000000 1.0
C      1  0.4558770000000  0.4945390000000  0.4681120000000 1.0
C      1  0.5195860000000  0.6014810000000  0.4850610000000 1.0
C      1  0.5127450000000  0.4296910000000  0.5750050000000 1.0
C      1  0.4727340000000  0.4906630000000  0.4030210000000 1.0
C      1  0.5104650000000  0.5948700000000  0.5309800000000 1.0
C      1  0.5799520000000  0.4591440000000  0.4873880000000 1.0
C      1  0.4258040000000  0.4904270000000  0.5805820000000 1.0
C      1  0.5224520000000  0.4155030000000  0.5283140000000 1.0
C      1  0.5129500000000  0.4805680000000  0.5438000000000 1.0
C      1  0.5347640000000  0.5921150000000  0.4621650000000 1.0
C      1  0.6203870000000  0.4939290000000  0.5109390000000 1.0
C      1  0.5003170000000  0.4529820000000  0.5929190000000 1.0
C      1  0.4957770000000  0.4100280000000  0.5682670000000 1.0
C      1  0.5043690000000  0.5410190000000  0.4159740000000 1.0
C      1  0.4904210000000  0.6014090000000  0.4900150000000 1.0
C      1  0.4666660000000  0.5452440000000  0.4429500000000 1.0
C      1  0.4976340000000  0.4008820000000  0.5277370000000 1.0
C      1  0.4535240000000  0.4804450000000  0.5918010000000 1.0
C      1  0.4901030000000  0.5575500000000  0.5732080000000 1.0
C      1  0.4571890000000  0.4445710000000  0.4291140000000 1.0
C      1  0.5241050000000  0.4321140000000  0.4471540000000 1.0
C      1  0.5404250000000  0.4887230000000  0.5919960000000 1.0
C      1  0.5031040000000  0.5728980000000  0.4224930000000 1.0
C      1  0.5335500000000  0.5429290000000  0.4168190000000 1.0
C      1  0.5387830000000  0.5173180000000  0.4077200000000 1.0
C      1  0.5570950000000  0.4321370000000  0.5089270000000 1.0
C      1  0.4628530000000  0.4709330000000  0.5107300000000 1.0
C      1  0.4211750000000  0.5701970000000  0.4926540000000 1.0
C      1  0.5482040000000  0.5606660000000  0.4315610000000 1.0
C      1  0.4272460000000  0.5003780000000  0.4111310000000 1.0
C      1  0.4303970000000  0.4373360000000  0.5463520000000 1.0
C      1  0.4615430000000  0.5546300000000  0.5681090000000 1.0
C      1  0.5645440000000  0.5810510000000  0.4673630000000 1.0
C      1  0.5229990000000  0.4885030000000  0.4481000000000 1.0
C      1  0.5685920000000  0.5287010000000  0.5705460000000 1.0
C      1  0.5775240000000  0.5927510000000  0.4927380000000 1.0
C      1  0.4492910000000  0.4065120000000  0.4817990000000 1.0
C      1  0.5477640000000  0.5439680000000  0.5807130000000 1.0
C      1  0.5026470000000  0.5470930000000  0.4670410000000 1.0
C      1  0.5174470000000  0.5536300000000  0.4902930000000 1.0
C      1  0.5277760000000  0.5326620000000  0.4738800000000 1.0
C      1  0.4710290000000  0.4627410000000  0.4095830000000 1.0
C      1  0.5604810000000  0.4865690000000  0.5249750000000 1.0
C      1  0.4523390000000  0.3910520000000  0.5505090000000 1.0
C      1  0.3954640000000  0.4962160000000  0.5134490000000 1.0
C      1  0.4718920000000  0.5042280000000  0.5796670000000 1.0
C      1  0.4852730000000  0.5264290000000  0.4338250000000 1.0
C      1  0.4514080000000  0.5127540000000  0.4067170000000 1.0
C      1  0.4824410000000  0.3911350000000  0.5529190000000 1.0
C      1  0.4580780000000  0.5652160000000  0.5397120000000 1.0
C      1  0.5313820000000  0.4295450000000  0.5519620000000 1.0
C      1  0.4156480000000  0.4839370000000  0.4256710000000 1.0
C      1  0.5808180000000  0.4774770000000  0.4473540000000 1.0
C      1  0.5309490000000  0.6001160000000  0.5124190000000 1.0
C      1  0.4758550000000  0.4764350000000  0.4857980000000 1.0
C      1  0.5177430000000  0.4397080000000  0.4762480000000 1.0
C      1  0.4793670000000  0.5846410000000  0.4293870000000 1.0
C      1  0.5394160000000  0.4991750000000  0.5385880000000 1.0
C      1  0.5634050000000  0.5720590000000  0.4946880000000 1.0
C      1  0.5430230000000  0.5613300000000  0.5571970000000 1.0
C      1  0.5654050000000  0.5679110000000  0.5425830000000 1.0
C      1  0.5542570000000  0.4779480000000  0.4977890000000 1.0
C      1  0.5829260000000  0.4807050000000  0.5437930000000 1.0
C      1  0.5831750000000  0.5459820000000  0.5496870000000 1.0
C      1  0.5711020000000  0.5042280000000  0.4412820000000 1.0
C      1  0.5972780000000  0.5292420000000  0.5305720000000 1.0
C      1  0.5355480000000  0.4551330000000  0.5016340000000 1.0
C      1  0.4594970000000  0.5953700000000  0.4456230000000 1.0
C      1  0.4377540000000  0.4108440000000  0.5342170000000 1.0
C      1  0.5628640000000  0.4536520000000  0.4446880000000 1.0
C      1  0.4247210000000  0.5197590000000  0.5708760000000 1.0
C      1  0.5025200000000  0.5573290000000  0.5141990000000 1.0
C      1  0.4992130000000  0.4949670000000  0.4903890000000 1.0
C      1  0.4763090000000  0.4328880000000  0.4477980000000 1.0
C      1  0.4111310000000  0.4519100000000  0.5292210000000 1.0
C      1  0.5523280000000  0.5105310000000  0.5574030000000 1.0
C      1  0.5831490000000  0.4425500000000  0.5136810000000 1.0
C      1  0.4988880000000  0.4555970000000  0.4189640000000 1.0
C      1  0.5233410000000  0.4148360000000  0.4931240000000 1.0
C      1  0.4999190000000  0.4180170000000  0.4365710000000 1.0
C      1  0.6048500000000  0.5004760000000  0.5348480000000 1.0
C      1  0.5984640000000  0.4756300000000  0.4701150000000 1.0
C      1  0.5442350000000  0.5003660000000  0.4308520000000 1.0
C      1  0.5061740000000  0.5120630000000  0.5117270000000 1.0
C      1  0.4259100000000  0.5536650000000  0.4381030000000 1.0
C      1  0.4716510000000  0.4575560000000  0.5964920000000 1.0
C      1  0.5128210000000  0.5160690000000  0.3953090000000 1.0
C      1  0.5150560000000  0.4611890000000  0.5242640000000 1.0
C      1  0.5537130000000  0.4710570000000  0.5737270000000 1.0
C      1  0.4471560000000  0.5112480000000  0.4961330000000 1.0
C      1  0.4142560000000  0.4668510000000  0.4471560000000 1.0
C      1  0.4450950000000  0.5332450000000  0.4274330000000 1.0
C      1  0.4396340000000  0.4857050000000  0.5104770000000 1.0
C      1  0.4401290000000  0.5777620000000  0.4368000000000 1.0
C      1  0.4376680000000  0.4231700000000  0.4607790000000 1.0
C      1  0.4816170000000  0.4239140000000  0.5179010000000 1.0
C      1  0.4760440000000  0.5571960000000  0.4675280000000 1.0
C      1  0.4229750000000  0.5294150000000  0.4864120000000 1.0
C      1  0.4299300000000  0.4409330000000  0.4408770000000 1.0
C      1  0.4784510000000  0.5045050000000  0.4507690000000 1.0
C      1  0.5108330000000  0.5270220000000  0.6057750000000 1.0
C      1  0.5332000000000  0.5187750000000  0.5167730000000 1.0
C      1  0.4112870000000  0.5253480000000  0.5463680000000 1.0
C      1  0.4110830000000  0.4806030000000  0.5602530000000 1.0
C      1  0.3974140000000  0.5250660000000  0.5227920000000 1.0
C      1  0.5040560000000  0.5019580000000  0.4635860000000 1.0
C      1  0.4253480000000  0.4865910000000  0.4655610000000 1.0
C      1  0.4900510000000  0.4492070000000  0.5319640000000 1.0
C      1  0.5819720000000  0.4516460000000  0.5410280000000 1.0
C      1  0.4516980000000  0.4508550000000  0.5786810000000 1.0
C      1  0.5044040000000  0.4670070000000  0.4448610000000 1.0
C      1  0.4876400000000  0.4926940000000  0.5519400000000 1.0
C      1  0.5350580000000  0.5213050000000  0.5928080000000 1.0
C      1  0.5809850000000  0.5294470000000  0.4543320000000 1.0
C      1  0.5688250000000  0.5549370000000  0.4500150000000 1.0
C      1  0.6114120000000  0.4986110000000  0.4823310000000 1.0
C      1  0.4052490000000  0.4842660000000  0.4880250000000 1.0
C      1  0.5222890000000  0.4659480000000  0.4069620000000 1.0
C      1  0.3966850000000  0.4765580000000  0.5363810000000 1.0
C      1  0.4882500000000  0.5444510000000  0.5991690000000 1.0
C      1  0.4570840000000  0.5901530000000  0.5244610000000 1.0
C      1  0.5376390000000  0.4510140000000  0.4283260000000 1.0
C      1  0.5276780000000  0.5814070000000  0.4370660000000 1.0
END
