TITL C-883736-9678-256 318.31744161758 125000 -28821.1849821597 0 0 196 (C1) n - 1
REM
REM in /home/nfs/bkarasulu/CARBON/AIRSS/Generating-Clusters/ReaxFF-fromJPCA2015/Units_Real/with-SteepDescent/Only-C1/SD-CG/Try1-3A/FIRE-CG
REM
REM
REM
REM
REM
REM ./C.cell (11c1c37f851c82e70ff6c80c92926a4b)
REM
REM compiler GCC version 9.2.1 20190827 (Red Hat 9.2.1-1)
REM options -cpp -mtune=generic -march=x86-64 -g -O0 -fpre-include=/usr/include/finclude/math-vector-fortran.h
REM seed -61370304 1578734365 -999591667 802927995 -1790936093 1684745516 1819058274 1801160080 -895707851 -271457958 1125723880 1143103671 -471986791 -310129917 -1791043500 -370562586 -850943612 -836078075 1766634862 1713223689 -1405125331 2101470234 1415268254 304127783 1549558192 -92305605 -680809294 2015756539 2144249184 147708409 99958462 -1628329687 331874164
REM
CELL 1.54180   50.00000   50.00000   50.00000   90.00000   90.00000   90.00000
LATT -1
SFAC C  
C      1  0.5584050000000  0.4859770000000  0.5098660000000 1.0
C      1  0.5158210000000  0.4352990000000  0.4069000000000 1.0
C      1  0.3991050000000  0.5125250000000  0.5065710000000 1.0
C      1  0.4914270000000  0.4440720000000  0.5078980000000 1.0
C      1  0.5669980000000  0.4702390000000  0.4863300000000 1.0
C      1  0.4751700000000  0.6034280000000  0.5230360000000 1.0
C      1  0.4111350000000  0.5301800000000  0.5593050000000 1.0
C      1  0.5025340000000  0.3917420000000  0.5293540000000 1.0
C      1  0.5884480000000  0.4285380000000  0.4893500000000 1.0
C      1  0.5721630000000  0.5718180000000  0.5536290000000 1.0
C      1  0.6004700000000  0.5234640000000  0.4520710000000 1.0
C      1  0.4322440000000  0.4789250000000  0.5590550000000 1.0
C      1  0.5203410000000  0.4413550000000  0.4953050000000 1.0
C      1  0.5585880000000  0.4878110000000  0.4428760000000 1.0
C      1  0.5723730000000  0.4383720000000  0.5617190000000 1.0
C      1  0.3812140000000  0.4791470000000  0.4741800000000 1.0
C      1  0.4552370000000  0.5820850000000  0.5618740000000 1.0
C      1  0.4947200000000  0.5469030000000  0.4870410000000 1.0
C      1  0.6133660000000  0.5134050000000  0.5063190000000 1.0
C      1  0.5253170000000  0.5777550000000  0.5671890000000 1.0
C      1  0.5492570000000  0.5960560000000  0.4477860000000 1.0
C      1  0.5014520000000  0.5244860000000  0.5255600000000 1.0
C      1  0.4741900000000  0.4877160000000  0.5333470000000 1.0
C      1  0.5921120000000  0.5656970000000  0.4814430000000 1.0
C      1  0.4236480000000  0.4196160000000  0.5270490000000 1.0
C      1  0.4926710000000  0.4930670000000  0.4808430000000 1.0
C      1  0.4706350000000  0.4951540000000  0.5765130000000 1.0
C      1  0.3852680000000  0.5303570000000  0.4898860000000 1.0
C      1  0.4286020000000  0.4502710000000  0.5181180000000 1.0
C      1  0.4893080000000  0.5703880000000  0.5934750000000 1.0
C      1  0.4449630000000  0.5506040000000  0.4081180000000 1.0
C      1  0.5119210000000  0.5431850000000  0.4449940000000 1.0
C      1  0.5717410000000  0.5789730000000  0.4404210000000 1.0
C      1  0.4831640000000  0.5274300000000  0.3997990000000 1.0
C      1  0.5940290000000  0.5254060000000  0.4994490000000 1.0
C      1  0.5803200000000  0.5303090000000  0.5240750000000 1.0
C      1  0.5002240000000  0.5456990000000  0.6075900000000 1.0
C      1  0.5848260000000  0.4926270000000  0.5889950000000 1.0
C      1  0.4624970000000  0.4091240000000  0.5675660000000 1.0
C      1  0.4000920000000  0.5077560000000  0.4312540000000 1.0
C      1  0.4722470000000  0.4756520000000  0.4621300000000 1.0
C      1  0.5172740000000  0.4815670000000  0.5202350000000 1.0
C      1  0.5953120000000  0.4921950000000  0.5629530000000 1.0
C      1  0.5645190000000  0.4536840000000  0.4165140000000 1.0
C      1  0.5791760000000  0.5593760000000  0.5275750000000 1.0
C      1  0.5401230000000  0.5000490000000  0.4928380000000 1.0
C      1  0.4013850000000  0.5549560000000  0.5192980000000 1.0
C      1  0.5588960000000  0.5983550000000  0.5000990000000 1.0
C      1  0.5305710000000  0.4170990000000  0.5620300000000 1.0
C      1  0.4952070000000  0.4533370000000  0.5599490000000 1.0
C      1  0.4599330000000  0.5739430000000  0.4397800000000 1.0
C      1  0.5343380000000  0.3958240000000  0.4612030000000 1.0
C      1  0.5190510000000  0.5862320000000  0.5127000000000 1.0
C      1  0.5435800000000  0.5082440000000  0.4025780000000 1.0
C      1  0.3961110000000  0.4783550000000  0.5383060000000 1.0
C      1  0.5578930000000  0.4136170000000  0.5525920000000 1.0
C      1  0.4601670000000  0.5667810000000  0.4697520000000 1.0
C      1  0.5310200000000  0.4967840000000  0.4454500000000 1.0
C      1  0.4633050000000  0.4186820000000  0.4424920000000 1.0
C      1  0.4592960000000  0.4536990000000  0.4771390000000 1.0
C      1  0.4979330000000  0.5961960000000  0.4595760000000 1.0
C      1  0.5432520000000  0.5988810000000  0.5246930000000 1.0
C      1  0.5798920000000  0.5775110000000  0.5047000000000 1.0
C      1  0.4683390000000  0.4383840000000  0.4213770000000 1.0
C      1  0.3992090000000  0.4558620000000  0.4829090000000 1.0
C      1  0.6128240000000  0.4780790000000  0.4849860000000 1.0
C      1  0.4725530000000  0.5549480000000  0.3995410000000 1.0
C      1  0.5479980000000  0.5893460000000  0.5520130000000 1.0
C      1  0.5033500000000  0.3873760000000  0.5007780000000 1.0
C      1  0.5281030000000  0.5693720000000  0.4894110000000 1.0
C      1  0.5327190000000  0.5841320000000  0.4264580000000 1.0
C      1  0.5308890000000  0.3884470000000  0.4891220000000 1.0
C      1  0.5141440000000  0.4739320000000  0.6117540000000 1.0
C      1  0.5619930000000  0.4717550000000  0.5983910000000 1.0
C      1  0.4268230000000  0.5071610000000  0.5097540000000 1.0
C      1  0.4549540000000  0.5182220000000  0.5569730000000 1.0
C      1  0.5750780000000  0.4805860000000  0.4192520000000 1.0
C      1  0.4382170000000  0.5199170000000  0.4502840000000 1.0
C      1  0.5282910000000  0.4830590000000  0.4055590000000 1.0
C      1  0.4446130000000  0.4843140000000  0.4073530000000 1.0
C      1  0.3994130000000  0.4150850000000  0.5079510000000 1.0
C      1  0.4346920000000  0.4886430000000  0.4868470000000 1.0
C      1  0.3778240000000  0.5018080000000  0.4934360000000 1.0
C      1  0.4247040000000  0.4458450000000  0.4608680000000 1.0
C      1  0.4613560000000  0.5673850000000  0.5869210000000 1.0
C      1  0.5774870000000  0.4866260000000  0.4646390000000 1.0
C      1  0.4389130000000  0.5746110000000  0.5379920000000 1.0
C      1  0.5197880000000  0.5247380000000  0.5779370000000 1.0
C      1  0.5165750000000  0.5499480000000  0.5635950000000 1.0
C      1  0.5067790000000  0.4005020000000  0.5570910000000 1.0
C      1  0.4189420000000  0.4856200000000  0.4217310000000 1.0
C      1  0.4688840000000  0.5973360000000  0.4728590000000 1.0
C      1  0.4413750000000  0.4223600000000  0.4608950000000 1.0
C      1  0.3937410000000  0.5586020000000  0.4937070000000 1.0
C      1  0.4998430000000  0.6072990000000  0.5067400000000 1.0
C      1  0.5273100000000  0.4474580000000  0.5619090000000 1.0
C      1  0.5344650000000  0.5257530000000  0.4476750000000 1.0
C      1  0.4676720000000  0.4151780000000  0.5382790000000 1.0
C      1  0.4924050000000  0.4848460000000  0.5570440000000 1.0
C      1  0.4469720000000  0.5948090000000  0.5162350000000 1.0
C      1  0.5771810000000  0.5191490000000  0.5861690000000 1.0
C      1  0.5457070000000  0.5602310000000  0.4123430000000 1.0
C      1  0.5841630000000  0.5294170000000  0.4280770000000 1.0
C      1  0.5113060000000  0.5651480000000  0.4652150000000 1.0
C      1  0.5140130000000  0.6115040000000  0.4802500000000 1.0
C      1  0.6047340000000  0.4961560000000  0.4623900000000 1.0
C      1  0.4491470000000  0.4079250000000  0.5176580000000 1.0
C      1  0.5214110000000  0.5074010000000  0.5273940000000 1.0
C      1  0.4101080000000  0.4601120000000  0.5575220000000 1.0
C      1  0.4039520000000  0.4636230000000  0.5120790000000 1.0
C      1  0.4878030000000  0.4709140000000  0.6081920000000 1.0
C      1  0.5534350000000  0.4527450000000  0.5790380000000 1.0
C      1  0.5377910000000  0.4748950000000  0.6106140000000 1.0
C      1  0.4819500000000  0.3927670000000  0.4802470000000 1.0
C      1  0.5263700000000  0.5334630000000  0.6046560000000 1.0
C      1  0.4732620000000  0.5642390000000  0.4966560000000 1.0
C      1  0.4507930000000  0.4748600000000  0.5798340000000 1.0
C      1  0.5567310000000  0.5356090000000  0.4634770000000 1.0
C      1  0.5751940000000  0.4347160000000  0.5163620000000 1.0
C      1  0.6134740000000  0.4861640000000  0.5126600000000 1.0
C      1  0.5061870000000  0.5364180000000  0.4165310000000 1.0
C      1  0.4462310000000  0.4929800000000  0.4615780000000 1.0
C      1  0.5990670000000  0.4410440000000  0.4500880000000 1.0
C      1  0.4131650000000  0.5561280000000  0.5426510000000 1.0
C      1  0.4131460000000  0.5602850000000  0.4484430000000 1.0
C      1  0.5521870000000  0.4544040000000  0.4671780000000 1.0
C      1  0.5135090000000  0.4034250000000  0.4431770000000 1.0
C      1  0.4813670000000  0.5750510000000  0.4203380000000 1.0
C      1  0.5564000000000  0.3958510000000  0.5003470000000 1.0
C      1  0.5224880000000  0.4542110000000  0.4685110000000 1.0
C      1  0.4979670000000  0.4655570000000  0.4480790000000 1.0
C      1  0.4580770000000  0.4108050000000  0.4884980000000 1.0
C      1  0.5647710000000  0.5057760000000  0.5307340000000 1.0
C      1  0.5566340000000  0.5376470000000  0.5944020000000 1.0
C      1  0.5320260000000  0.4597790000000  0.5334120000000 1.0
C      1  0.4578110000000  0.4494140000000  0.5898930000000 1.0
C      1  0.5725570000000  0.5562130000000  0.4215910000000 1.0
C      1  0.5270900000000  0.4205490000000  0.4267010000000 1.0
C      1  0.4893620000000  0.4783490000000  0.5100160000000 1.0
C      1  0.4484030000000  0.5261490000000  0.4223100000000 1.0
C      1  0.4689320000000  0.5401090000000  0.5417090000000 1.0
C      1  0.4534000000000  0.5403910000000  0.5953270000000 1.0
C      1  0.4988010000000  0.5882880000000  0.5723290000000 1.0
C      1  0.5325650000000  0.5358110000000  0.4032530000000 1.0
C      1  0.4858050000000  0.4434040000000  0.5864280000000 1.0
C      1  0.5632220000000  0.5565400000000  0.5752400000000 1.0
C      1  0.5391370000000  0.5460240000000  0.5025430000000 1.0
C      1  0.4732490000000  0.4351980000000  0.4887090000000 1.0
C      1  0.5709700000000  0.5601110000000  0.4626900000000 1.0
C      1  0.4090960000000  0.5314030000000  0.4466030000000 1.0
C      1  0.5405910000000  0.5083830000000  0.5466090000000 1.0
C      1  0.5038110000000  0.4763980000000  0.4218390000000 1.0
C      1  0.4458960000000  0.4954030000000  0.5366190000000 1.0
C      1  0.4239720000000  0.4587930000000  0.4337230000000 1.0
C      1  0.4778410000000  0.4980110000000  0.6038220000000 1.0
C      1  0.4967730000000  0.5458290000000  0.5437390000000 1.0
C      1  0.4124050000000  0.5738090000000  0.4754260000000 1.0
C      1  0.4426710000000  0.5405060000000  0.4741290000000 1.0
C      1  0.4779840000000  0.5961350000000  0.5517050000000 1.0
C      1  0.5868980000000  0.4507140000000  0.5402650000000 1.0
C      1  0.5119060000000  0.5378400000000  0.5053510000000 1.0
C      1  0.5383480000000  0.4546160000000  0.4043540000000 1.0
C      1  0.5426010000000  0.4433370000000  0.5127040000000 1.0
C      1  0.6037390000000  0.5398430000000  0.4770450000000 1.0
C      1  0.6068270000000  0.4480540000000  0.4766170000000 1.0
C      1  0.5043840000000  0.5891660000000  0.4303740000000 1.0
C      1  0.5658090000000  0.4072700000000  0.5254750000000 1.0
C      1  0.4647140000000  0.5063290000000  0.4097160000000 1.0
C      1  0.4887350000000  0.4137390000000  0.5775540000000 1.0
C      1  0.3868690000000  0.4967050000000  0.4534470000000 1.0
C      1  0.4317300000000  0.5900740000000  0.4913090000000 1.0
C      1  0.5672400000000  0.4393120000000  0.4438250000000 1.0
C      1  0.4919030000000  0.4501520000000  0.4118320000000 1.0
C      1  0.4850100000000  0.4374090000000  0.5364650000000 1.0
C      1  0.4852380000000  0.4015070000000  0.4535220000000 1.0
C      1  0.5556380000000  0.5245290000000  0.4900060000000 1.0
C      1  0.4428960000000  0.4635140000000  0.4968290000000 1.0
C      1  0.3847740000000  0.4272210000000  0.4872980000000 1.0
C      1  0.4771610000000  0.5268990000000  0.6072130000000 1.0
C      1  0.4211050000000  0.4333220000000  0.5566660000000 1.0
C      1  0.4596660000000  0.5215710000000  0.4848870000000 1.0
C      1  0.5723330000000  0.5084960000000  0.4101130000000 1.0
C      1  0.4413880000000  0.5329680000000  0.5026530000000 1.0
C      1  0.5203330000000  0.4985530000000  0.5649080000000 1.0
C      1  0.5575940000000  0.4101190000000  0.4515130000000 1.0
C      1  0.5709660000000  0.4084980000000  0.4775200000000 1.0
C      1  0.4417870000000  0.4284140000000  0.5760980000000 1.0
C      1  0.4003680000000  0.5056300000000  0.5482790000000 1.0
C      1  0.4339700000000  0.5679530000000  0.4290160000000 1.0
C      1  0.4347660000000  0.5272510000000  0.5769110000000 1.0
C      1  0.4573750000000  0.5527670000000  0.5187280000000 1.0
C      1  0.5216870000000  0.4886830000000  0.4727030000000 1.0
C      1  0.5990000000000  0.4771700000000  0.5394640000000 1.0
C      1  0.4850960000000  0.5203140000000  0.4781020000000 1.0
C      1  0.5426290000000  0.6049490000000  0.4757110000000 1.0
C      1  0.4477070000000  0.4561710000000  0.4167730000000 1.0
END
