TITL C-883734-4173-482 -6.53093774349428 125000 -6223.37723853014 0 0 43 (C1) n - 1
REM
REM in /home/nfs/bkarasulu/CARBON/AIRSS/Generating-Clusters/ReaxFF-fromJPCA2015/Units_Real/with-SteepDescent/Only-C1/SD-CG/Try1-3A/FIRE-CG
REM
REM
REM
REM
REM
REM ./C.cell (11c1c37f851c82e70ff6c80c92926a4b)
REM
REM compiler GCC version 9.2.1 20190827 (Red Hat 9.2.1-1)
REM options -cpp -mtune=generic -march=x86-64 -g -O0 -fpre-include=/usr/include/finclude/math-vector-fortran.h
REM seed 937526893 1571974700 -1478135518 1664606142 1057831053 755189436 800241340 -117171110 -1588940820 -373601983 -1741867759 -2074013786 -1714290753 1191925409 -1683579253 445632265 -2089506121 367477243 1271942847 -532026192 1368848025 2139939936 1207383699 717404233 1661527943 -372267068 -1072164092 -638941626 -1393119178 2050775946 165631218 -1284991772 1769298801
REM
CELL 1.54180   50.00000   50.00000   50.00000   90.00000   90.00000   90.00000
LATT -1
SFAC C  
C      1  0.4613880000000  0.4759400000000  0.4566830000000 1.0
C      1  0.4998840000000  0.4603350000000  0.4506980000000 1.0
C      1  0.4753190000000  0.5095970000000  0.5711950000000 1.0
C      1  0.5372590000000  0.4572350000000  0.5094580000000 1.0
C      1  0.5094950000000  0.5638780000000  0.4532200000000 1.0
C      1  0.5231250000000  0.5493020000000  0.5226360000000 1.0
C      1  0.4742480000000  0.5372000000000  0.5218510000000 1.0
C      1  0.4914310000000  0.5042160000000  0.4778220000000 1.0
C      1  0.4993870000000  0.5383830000000  0.5362290000000 1.0
C      1  0.5027800000000  0.5160690000000  0.4385490000000 1.0
C      1  0.4455240000000  0.4904510000000  0.4762310000000 1.0
C      1  0.5361610000000  0.5494620000000  0.4962790000000 1.0
C      1  0.5404580000000  0.4887180000000  0.5456100000000 1.0
C      1  0.4805730000000  0.5310170000000  0.4746680000000 1.0
C      1  0.4394620000000  0.5079170000000  0.4990000000000 1.0
C      1  0.4768980000000  0.4532090000000  0.4663040000000 1.0
C      1  0.5500120000000  0.4876160000000  0.4761180000000 1.0
C      1  0.5453040000000  0.5033360000000  0.5211400000000 1.0
C      1  0.5012970000000  0.5207100000000  0.5601370000000 1.0
C      1  0.5267030000000  0.4512550000000  0.4594790000000 1.0
C      1  0.5301210000000  0.5471530000000  0.4666660000000 1.0
C      1  0.5309540000000  0.4440170000000  0.4869880000000 1.0
C      1  0.5466500000000  0.5322750000000  0.5176050000000 1.0
C      1  0.5034970000000  0.4727780000000  0.5690310000000 1.0
C      1  0.5327420000000  0.4863970000000  0.4998180000000 1.0
C      1  0.5292050000000  0.5222830000000  0.4489490000000 1.0
C      1  0.4441270000000  0.5475110000000  0.4881850000000 1.0
C      1  0.5471500000000  0.4720010000000  0.4536200000000 1.0
C      1  0.4900870000000  0.5407270000000  0.4477410000000 1.0
C      1  0.4801730000000  0.4924140000000  0.5249760000000 1.0
C      1  0.4680740000000  0.4546200000000  0.5171220000000 1.0
C      1  0.4968390000000  0.4864870000000  0.5006600000000 1.0
C      1  0.5167240000000  0.4511250000000  0.5571370000000 1.0
C      1  0.5488710000000  0.5008160000000  0.4523530000000 1.0
C      1  0.4713550000000  0.5499800000000  0.4956370000000 1.0
C      1  0.4743860000000  0.4807600000000  0.5637470000000 1.0
C      1  0.5191920000000  0.4975300000000  0.5633070000000 1.0
C      1  0.4616790000000  0.4734260000000  0.5367180000000 1.0
C      1  0.4906000000000  0.4897930000000  0.4505680000000 1.0
C      1  0.4836790000000  0.4578470000000  0.4951600000000 1.0
C      1  0.5371870000000  0.4592260000000  0.5403440000000 1.0
C      1  0.4202020000000  0.5331840000000  0.4900940000000 1.0
C      1  0.4597960000000  0.5118030000000  0.5202690000000 1.0
END
