TITL C-884141-4321-321 17.9131893711189 125000 -23758.1446782191 0 0 158 (C1) n - 1
REM
REM in /home/nfs/bkarasulu/CARBON/AIRSS/Generating-Clusters/ReaxFF-fromJPCA2015/Units_Real/with-SteepDescent/Only-C1/SD-CG/Try1-3A/FIRE-CG
REM
REM
REM
REM
REM
REM ./C.cell (11c1c37f851c82e70ff6c80c92926a4b)
REM
REM compiler GCC version 9.2.1 20190827 (Red Hat 9.2.1-1)
REM options -cpp -mtune=generic -march=x86-64 -g -O0 -fpre-include=/usr/include/finclude/math-vector-fortran.h
REM seed 1960337005 -115149625 693730883 -1479346627 1011311955 -3373051 578061600 1285958087 -138155515 2018490962 -1820922780 -67545436 -656702911 -979788834 760351053 -1115032355 1712366257 -955121881 1929689117 516530571 106250724 -1725712391 1380392496 241874285 -887762246 2051138879 -2145321478 744135390 484310647 -367390474 -2129846459 -13415196 -1243792379
REM
CELL 1.54180   50.00000   50.00000   50.00000   90.00000   90.00000   90.00000
LATT -1
SFAC C  
C      1  0.4795790000000  0.5117720000000  0.3869990000000 1.0
C      1  0.4526230000000  0.5127330000000  0.5057790000000 1.0
C      1  0.5069720000000  0.4074130000000  0.5391510000000 1.0
C      1  0.4976740000000  0.4592820000000  0.5780060000000 1.0
C      1  0.5537470000000  0.5154190000000  0.3976360000000 1.0
C      1  0.4910790000000  0.4837410000000  0.4799510000000 1.0
C      1  0.5630090000000  0.4991780000000  0.5489610000000 1.0
C      1  0.5136720000000  0.5534430000000  0.5567540000000 1.0
C      1  0.5591550000000  0.5075480000000  0.5904480000000 1.0
C      1  0.5472620000000  0.4059070000000  0.5025740000000 1.0
C      1  0.5266530000000  0.5731410000000  0.5756140000000 1.0
C      1  0.5050400000000  0.4195260000000  0.4424690000000 1.0
C      1  0.6081340000000  0.5036950000000  0.5604380000000 1.0
C      1  0.5604740000000  0.4800450000000  0.5216550000000 1.0
C      1  0.4176140000000  0.4275490000000  0.5329310000000 1.0
C      1  0.5856190000000  0.5377830000000  0.4885790000000 1.0
C      1  0.5876080000000  0.5067670000000  0.5820950000000 1.0
C      1  0.5231330000000  0.4468890000000  0.5722250000000 1.0
C      1  0.4955470000000  0.5716800000000  0.4295920000000 1.0
C      1  0.4466310000000  0.5640330000000  0.5229260000000 1.0
C      1  0.4493920000000  0.4051040000000  0.4978770000000 1.0
C      1  0.5668610000000  0.4435180000000  0.4752970000000 1.0
C      1  0.4955800000000  0.3963740000000  0.4915250000000 1.0
C      1  0.4500040000000  0.5884780000000  0.5424250000000 1.0
C      1  0.4051980000000  0.5035950000000  0.5398390000000 1.0
C      1  0.5361200000000  0.5142760000000  0.4664800000000 1.0
C      1  0.5493090000000  0.4881920000000  0.4633340000000 1.0
C      1  0.4427720000000  0.5026250000000  0.4443880000000 1.0
C      1  0.4396040000000  0.5086800000000  0.6026620000000 1.0
C      1  0.4132680000000  0.5315460000000  0.5316930000000 1.0
C      1  0.6035430000000  0.4961940000000  0.4879310000000 1.0
C      1  0.5089060000000  0.5231890000000  0.4536890000000 1.0
C      1  0.5692320000000  0.4488110000000  0.5238970000000 1.0
C      1  0.5906140000000  0.4811630000000  0.4411010000000 1.0
C      1  0.4784870000000  0.5552440000000  0.5129380000000 1.0
C      1  0.4744870000000  0.4416150000000  0.5799590000000 1.0
C      1  0.5130690000000  0.5334910000000  0.5786230000000 1.0
C      1  0.5595220000000  0.4381840000000  0.4469400000000 1.0
C      1  0.4687560000000  0.5013130000000  0.5634650000000 1.0
C      1  0.4263840000000  0.5137650000000  0.5796420000000 1.0
C      1  0.5701850000000  0.5840340000000  0.4852330000000 1.0
C      1  0.5322150000000  0.4685450000000  0.5193630000000 1.0
C      1  0.4612520000000  0.5148960000000  0.4635870000000 1.0
C      1  0.5643840000000  0.4417510000000  0.5514130000000 1.0
C      1  0.4838280000000  0.5581500000000  0.4067890000000 1.0
C      1  0.5303390000000  0.5839350000000  0.4578650000000 1.0
C      1  0.5798250000000  0.5341490000000  0.4595460000000 1.0
C      1  0.3948120000000  0.4921820000000  0.5146750000000 1.0
C      1  0.5056870000000  0.5751960000000  0.4746330000000 1.0
C      1  0.5415040000000  0.5308780000000  0.5878660000000 1.0
C      1  0.4382680000000  0.5530660000000  0.4539200000000 1.0
C      1  0.3928190000000  0.4635160000000  0.5107250000000 1.0
C      1  0.5402580000000  0.5228260000000  0.4936640000000 1.0
C      1  0.4629350000000  0.4559770000000  0.5360300000000 1.0
C      1  0.5242180000000  0.4559390000000  0.4956670000000 1.0
C      1  0.5651550000000  0.4314680000000  0.5015330000000 1.0
C      1  0.4933360000000  0.5503440000000  0.4558710000000 1.0
C      1  0.4125580000000  0.5424960000000  0.5032880000000 1.0
C      1  0.4538330000000  0.5030290000000  0.3983690000000 1.0
C      1  0.4580350000000  0.4994780000000  0.6201520000000 1.0
C      1  0.5075820000000  0.5733140000000  0.5995830000000 1.0
C      1  0.4523520000000  0.4541590000000  0.5931360000000 1.0
C      1  0.5533730000000  0.5971600000000  0.5038800000000 1.0
C      1  0.4837120000000  0.4896820000000  0.6070880000000 1.0
C      1  0.5106040000000  0.5024230000000  0.5449230000000 1.0
C      1  0.4616460000000  0.4182850000000  0.4725150000000 1.0
C      1  0.4330450000000  0.4341380000000  0.5560950000000 1.0
C      1  0.5737040000000  0.4597140000000  0.4311060000000 1.0
C      1  0.5504710000000  0.5560130000000  0.5765710000000 1.0
C      1  0.5348100000000  0.4268490000000  0.4354550000000 1.0
C      1  0.5710940000000  0.4729100000000  0.4774880000000 1.0
C      1  0.4620880000000  0.4274810000000  0.5552270000000 1.0
C      1  0.4899600000000  0.4846060000000  0.3886710000000 1.0
C      1  0.5042380000000  0.5607870000000  0.5009200000000 1.0
C      1  0.4576110000000  0.5666350000000  0.4159220000000 1.0
C      1  0.4368950000000  0.4316050000000  0.4601260000000 1.0
C      1  0.4394980000000  0.4623360000000  0.5190180000000 1.0
C      1  0.5162700000000  0.4628440000000  0.4219200000000 1.0
C      1  0.4397600000000  0.5182820000000  0.4197980000000 1.0
C      1  0.4852040000000  0.4621340000000  0.4625010000000 1.0
C      1  0.4874040000000  0.5114250000000  0.4758800000000 1.0
C      1  0.4701490000000  0.5764350000000  0.5598740000000 1.0
C      1  0.4688270000000  0.5855380000000  0.4349680000000 1.0
C      1  0.5044790000000  0.5135230000000  0.4250390000000 1.0
C      1  0.5505170000000  0.5616710000000  0.5246790000000 1.0
C      1  0.5716970000000  0.5292590000000  0.5459120000000 1.0
C      1  0.4798160000000  0.4409540000000  0.4807200000000 1.0
C      1  0.4284190000000  0.5668700000000  0.4987780000000 1.0
C      1  0.5235990000000  0.5430250000000  0.5139800000000 1.0
C      1  0.4520350000000  0.5294680000000  0.5650640000000 1.0
C      1  0.5358450000000  0.5908890000000  0.5240140000000 1.0
C      1  0.4249320000000  0.4173180000000  0.5059720000000 1.0
C      1  0.4846550000000  0.4348990000000  0.4284240000000 1.0
C      1  0.4284470000000  0.5207290000000  0.4916280000000 1.0
C      1  0.4875060000000  0.6068840000000  0.5077370000000 1.0
C      1  0.5536820000000  0.4136920000000  0.5569550000000 1.0
C      1  0.4801870000000  0.5252280000000  0.5083690000000 1.0
C      1  0.5567990000000  0.5769060000000  0.4603990000000 1.0
C      1  0.4510190000000  0.4839250000000  0.5037380000000 1.0
C      1  0.4628090000000  0.4528360000000  0.4211070000000 1.0
C      1  0.4398890000000  0.4525990000000  0.4407230000000 1.0
C      1  0.5010120000000  0.4388620000000  0.5008540000000 1.0
C      1  0.4073200000000  0.4797340000000  0.4701280000000 1.0
C      1  0.4051750000000  0.5026410000000  0.4892160000000 1.0
C      1  0.6037010000000  0.5181710000000  0.5043990000000 1.0
C      1  0.4136040000000  0.4538800000000  0.5256950000000 1.0
C      1  0.4912920000000  0.5491270000000  0.5933480000000 1.0
C      1  0.5691370000000  0.5209660000000  0.4206900000000 1.0
C      1  0.5246130000000  0.5761300000000  0.4316560000000 1.0
C      1  0.4937690000000  0.5697470000000  0.5408410000000 1.0
C      1  0.3992920000000  0.4553260000000  0.4833970000000 1.0
C      1  0.4372750000000  0.5757210000000  0.4723690000000 1.0
C      1  0.4980890000000  0.5318680000000  0.4017300000000 1.0
C      1  0.5108180000000  0.4616050000000  0.4501980000000 1.0
C      1  0.5038960000000  0.5250580000000  0.5281990000000 1.0
C      1  0.5329040000000  0.5355210000000  0.4040540000000 1.0
C      1  0.4370930000000  0.5418480000000  0.5417080000000 1.0
C      1  0.4326210000000  0.4613540000000  0.5702190000000 1.0
C      1  0.4730700000000  0.3968710000000  0.5118510000000 1.0
C      1  0.4377760000000  0.5470700000000  0.4251560000000 1.0
C      1  0.4159990000000  0.4914680000000  0.5641130000000 1.0
C      1  0.6144510000000  0.5177780000000  0.5342300000000 1.0
C      1  0.5246460000000  0.4189820000000  0.5604280000000 1.0
C      1  0.4652960000000  0.5426440000000  0.4602620000000 1.0
C      1  0.5727880000000  0.5601470000000  0.5021960000000 1.0
C      1  0.5357520000000  0.4432510000000  0.4118760000000 1.0
C      1  0.5372620000000  0.5075620000000  0.5432190000000 1.0
C      1  0.5636900000000  0.5540940000000  0.4456880000000 1.0
C      1  0.5599890000000  0.4611090000000  0.4048440000000 1.0
C      1  0.4915960000000  0.4899630000000  0.5784290000000 1.0
C      1  0.5555050000000  0.4856470000000  0.3906840000000 1.0
C      1  0.4646580000000  0.4750440000000  0.4009190000000 1.0
C      1  0.5424290000000  0.5547380000000  0.4234250000000 1.0
C      1  0.5490760000000  0.4592730000000  0.5702410000000 1.0
C      1  0.4635830000000  0.4702960000000  0.6146110000000 1.0
C      1  0.5547010000000  0.4863050000000  0.5726340000000 1.0
C      1  0.4888450000000  0.4600960000000  0.5227010000000 1.0
C      1  0.5970720000000  0.5383860000000  0.5412850000000 1.0
C      1  0.4613030000000  0.5916690000000  0.4628520000000 1.0
C      1  0.5095640000000  0.4888380000000  0.4108980000000 1.0
C      1  0.4669180000000  0.6040830000000  0.5270370000000 1.0
C      1  0.5613150000000  0.5541200000000  0.5504840000000 1.0
C      1  0.4171830000000  0.4321710000000  0.4813220000000 1.0
C      1  0.5855740000000  0.5110700000000  0.4403720000000 1.0
C      1  0.5107170000000  0.4750180000000  0.5350650000000 1.0
C      1  0.5566530000000  0.3841280000000  0.4941240000000 1.0
C      1  0.4668380000000  0.5532940000000  0.5771520000000 1.0
C      1  0.4537870000000  0.4783350000000  0.5551470000000 1.0
C      1  0.5069070000000  0.5943110000000  0.5272890000000 1.0
C      1  0.5151900000000  0.4090390000000  0.5098260000000 1.0
C      1  0.4787520000000  0.4772000000000  0.5033970000000 1.0
C      1  0.4841320000000  0.5965610000000  0.4798660000000 1.0
C      1  0.5521460000000  0.5009360000000  0.5031580000000 1.0
C      1  0.4787470000000  0.4065140000000  0.5387790000000 1.0
C      1  0.4911170000000  0.4048240000000  0.4640610000000 1.0
C      1  0.4273100000000  0.4778060000000  0.4490280000000 1.0
C      1  0.5316690000000  0.4650470000000  0.4695130000000 1.0
C      1  0.5999700000000  0.4765630000000  0.4685620000000 1.0
END
