TITL C-884137-4758-176 45.0091900055177 125000 -27370.1051969048 0 0 183 (C1) n - 1
REM
REM in /home/nfs/bkarasulu/CARBON/AIRSS/Generating-Clusters/ReaxFF-fromJPCA2015/Units_Real/with-SteepDescent/Only-C1/SD-CG/Try1-3A/FIRE-CG
REM
REM
REM
REM
REM
REM ./C.cell (11c1c37f851c82e70ff6c80c92926a4b)
REM
REM compiler GCC version 9.2.1 20190827 (Red Hat 9.2.1-1)
REM options -cpp -mtune=generic -march=x86-64 -g -O0 -fpre-include=/usr/include/finclude/math-vector-fortran.h
REM seed 1399866682 -1897342133 1341680413 1042283 -2120322006 834789189 -1820011446 -1842732394 -203810344 -1144065141 -1631561571 -735021983 -521696735 -330434384 111926173 1954411855 280951585 -381232050 1039661384 -659012376 270056950 -2024136814 1372721674 1372444431 1557724153 142243018 -1463208074 -1503820934 86000373 827329700 1331943661 1533703616 1454640794
REM
CELL 1.54180   50.00000   50.00000   50.00000   90.00000   90.00000   90.00000
LATT -1
SFAC C  
C      1  0.4454370000000  0.5780750000000  0.4420590000000 1.0
C      1  0.5266400000000  0.4545760000000  0.4648410000000 1.0
C      1  0.5575890000000  0.5954650000000  0.4867640000000 1.0
C      1  0.4863490000000  0.4711210000000  0.4886340000000 1.0
C      1  0.4607880000000  0.5388710000000  0.4933740000000 1.0
C      1  0.5973840000000  0.5474080000000  0.5271770000000 1.0
C      1  0.5053730000000  0.5676390000000  0.4977370000000 1.0
C      1  0.5888760000000  0.4851400000000  0.4368250000000 1.0
C      1  0.5086820000000  0.5352880000000  0.4108800000000 1.0
C      1  0.4278940000000  0.5530330000000  0.5626390000000 1.0
C      1  0.4242410000000  0.4267710000000  0.5295220000000 1.0
C      1  0.4678810000000  0.5430250000000  0.5960390000000 1.0
C      1  0.4892560000000  0.4431640000000  0.5868900000000 1.0
C      1  0.4290000000000  0.5734610000000  0.4645510000000 1.0
C      1  0.4811180000000  0.5209550000000  0.6089650000000 1.0
C      1  0.5707770000000  0.5408250000000  0.5159180000000 1.0
C      1  0.4549460000000  0.4496590000000  0.5557850000000 1.0
C      1  0.5416960000000  0.4402050000000  0.5992710000000 1.0
C      1  0.5451560000000  0.4789650000000  0.4261170000000 1.0
C      1  0.5652860000000  0.5494430000000  0.5820700000000 1.0
C      1  0.4401520000000  0.5865740000000  0.5256520000000 1.0
C      1  0.5287460000000  0.5093090000000  0.6046610000000 1.0
C      1  0.4645830000000  0.5504890000000  0.3982230000000 1.0
C      1  0.4669780000000  0.4933440000000  0.5638230000000 1.0
C      1  0.4428090000000  0.4593840000000  0.4254560000000 1.0
C      1  0.4521890000000  0.4417670000000  0.4862310000000 1.0
C      1  0.4635910000000  0.5950700000000  0.5106620000000 1.0
C      1  0.5302830000000  0.4125950000000  0.5680340000000 1.0
C      1  0.5637940000000  0.5303090000000  0.4398140000000 1.0
C      1  0.4727910000000  0.4719890000000  0.5423160000000 1.0
C      1  0.5239050000000  0.5499180000000  0.5056560000000 1.0
C      1  0.5548500000000  0.5709410000000  0.4458650000000 1.0
C      1  0.5327170000000  0.6137630000000  0.5331800000000 1.0
C      1  0.5979170000000  0.4250160000000  0.5041240000000 1.0
C      1  0.5763390000000  0.4723570000000  0.4919360000000 1.0
C      1  0.5944650000000  0.5526860000000  0.4745500000000 1.0
C      1  0.5521310000000  0.4309600000000  0.4270850000000 1.0
C      1  0.5300770000000  0.5421940000000  0.5486890000000 1.0
C      1  0.4688020000000  0.4478620000000  0.4243900000000 1.0
C      1  0.5790950000000  0.5752230000000  0.4852940000000 1.0
C      1  0.5246030000000  0.4032200000000  0.5346110000000 1.0
C      1  0.6038960000000  0.4670560000000  0.5319890000000 1.0
C      1  0.4723670000000  0.5960490000000  0.4820800000000 1.0
C      1  0.5827550000000  0.4236050000000  0.4805900000000 1.0
C      1  0.4721080000000  0.5792980000000  0.4571180000000 1.0
C      1  0.4486470000000  0.5043730000000  0.4612850000000 1.0
C      1  0.5482730000000  0.4662430000000  0.5982250000000 1.0
C      1  0.5043250000000  0.6134590000000  0.5416250000000 1.0
C      1  0.5118040000000  0.5377150000000  0.4406030000000 1.0
C      1  0.5587820000000  0.4843320000000  0.5451310000000 1.0
C      1  0.5006480000000  0.4647970000000  0.5491880000000 1.0
C      1  0.4954960000000  0.4003620000000  0.5270720000000 1.0
C      1  0.4363630000000  0.4609860000000  0.5748100000000 1.0
C      1  0.5663630000000  0.5051470000000  0.3922730000000 1.0
C      1  0.5130880000000  0.4847330000000  0.4199660000000 1.0
C      1  0.4558660000000  0.5307440000000  0.5402160000000 1.0
C      1  0.5384510000000  0.4388390000000  0.4024970000000 1.0
C      1  0.4009920000000  0.4441060000000  0.4909340000000 1.0
C      1  0.4844140000000  0.5289970000000  0.5383520000000 1.0
C      1  0.5013750000000  0.5439200000000  0.5538070000000 1.0
C      1  0.5865670000000  0.4940800000000  0.5739530000000 1.0
C      1  0.5291140000000  0.5383370000000  0.6053730000000 1.0
C      1  0.4629860000000  0.5249060000000  0.4461940000000 1.0
C      1  0.4542770000000  0.4799270000000  0.5917710000000 1.0
C      1  0.4236610000000  0.5457070000000  0.4260240000000 1.0
C      1  0.4433570000000  0.5247270000000  0.4257370000000 1.0
C      1  0.4135430000000  0.5350260000000  0.4785370000000 1.0
C      1  0.4925480000000  0.4595690000000  0.4085730000000 1.0
C      1  0.5772960000000  0.4518860000000  0.4670000000000 1.0
C      1  0.5614340000000  0.5771140000000  0.5427370000000 1.0
C      1  0.4978240000000  0.5101070000000  0.5183780000000 1.0
C      1  0.5581640000000  0.5452860000000  0.6109860000000 1.0
C      1  0.5191660000000  0.4018430000000  0.4471440000000 1.0
C      1  0.5289030000000  0.5101360000000  0.4805120000000 1.0
C      1  0.4197240000000  0.5020850000000  0.4519940000000 1.0
C      1  0.5599710000000  0.5771990000000  0.5719370000000 1.0
C      1  0.4415200000000  0.5059560000000  0.5476720000000 1.0
C      1  0.4997420000000  0.4965000000000  0.6015560000000 1.0
C      1  0.4498570000000  0.3953480000000  0.5063850000000 1.0
C      1  0.4900100000000  0.4016500000000  0.4965400000000 1.0
C      1  0.5443010000000  0.4919380000000  0.5215130000000 1.0
C      1  0.6012560000000  0.4818060000000  0.5072780000000 1.0
C      1  0.4001260000000  0.4861410000000  0.4671200000000 1.0
C      1  0.5474540000000  0.4031240000000  0.4367410000000 1.0
C      1  0.4428820000000  0.5081250000000  0.4035080000000 1.0
C      1  0.5315110000000  0.5836350000000  0.5784750000000 1.0
C      1  0.5868590000000  0.5677740000000  0.5428880000000 1.0
C      1  0.4577900000000  0.4062740000000  0.4561360000000 1.0
C      1  0.4229960000000  0.5626600000000  0.5169890000000 1.0
C      1  0.4380140000000  0.4789410000000  0.4025350000000 1.0
C      1  0.4581700000000  0.4710980000000  0.4796370000000 1.0
C      1  0.4120010000000  0.4687040000000  0.5612200000000 1.0
C      1  0.4049260000000  0.4577030000000  0.4649360000000 1.0
C      1  0.4152330000000  0.5641900000000  0.4858740000000 1.0
C      1  0.5705590000000  0.5219810000000  0.4949900000000 1.0
C      1  0.5458570000000  0.5546760000000  0.5245170000000 1.0
C      1  0.5075420000000  0.4458810000000  0.5298000000000 1.0
C      1  0.5073630000000  0.5088110000000  0.4017450000000 1.0
C      1  0.4246590000000  0.4470910000000  0.4453830000000 1.0
C      1  0.4818470000000  0.5459920000000  0.4547000000000 1.0
C      1  0.4053670000000  0.4454520000000  0.5431830000000 1.0
C      1  0.5172940000000  0.6048730000000  0.4563480000000 1.0
C      1  0.4455730000000  0.4052130000000  0.5318630000000 1.0
C      1  0.5144690000000  0.4901630000000  0.5573550000000 1.0
C      1  0.4713270000000  0.5816270000000  0.5596740000000 1.0
C      1  0.4949760000000  0.5950370000000  0.4397210000000 1.0
C      1  0.4449310000000  0.5629120000000  0.4161290000000 1.0
C      1  0.5921650000000  0.4408800000000  0.5270980000000 1.0
C      1  0.5501080000000  0.4664190000000  0.3991970000000 1.0
C      1  0.5056810000000  0.4913820000000  0.4456640000000 1.0
C      1  0.3992340000000  0.5180050000000  0.5399140000000 1.0
C      1  0.3826820000000  0.4973850000000  0.4886890000000 1.0
C      1  0.4527620000000  0.4932980000000  0.4988240000000 1.0
C      1  0.5474370000000  0.3921910000000  0.5147240000000 1.0
C      1  0.5501730000000  0.4552530000000  0.4464610000000 1.0
C      1  0.5465250000000  0.5002150000000  0.5668240000000 1.0
C      1  0.4869140000000  0.5447500000000  0.4832070000000 1.0
C      1  0.6009990000000  0.5099820000000  0.5573710000000 1.0
C      1  0.4116220000000  0.5296650000000  0.4480210000000 1.0
C      1  0.5015750000000  0.4157750000000  0.4280950000000 1.0
C      1  0.5677620000000  0.4521250000000  0.5119840000000 1.0
C      1  0.4812300000000  0.4750000000000  0.3830950000000 1.0
C      1  0.5246140000000  0.6068590000000  0.5609670000000 1.0
C      1  0.4253320000000  0.4333910000000  0.5016950000000 1.0
C      1  0.5559340000000  0.4172470000000  0.5803080000000 1.0
C      1  0.3828300000000  0.5113100000000  0.5156890000000 1.0
C      1  0.4346610000000  0.4929090000000  0.5213150000000 1.0
C      1  0.5526520000000  0.4984650000000  0.4936370000000 1.0
C      1  0.5175300000000  0.4045990000000  0.4770300000000 1.0
C      1  0.4816110000000  0.4687290000000  0.5978980000000 1.0
C      1  0.5370390000000  0.6017920000000  0.5075010000000 1.0
C      1  0.4395020000000  0.5363540000000  0.5869290000000 1.0
C      1  0.5506120000000  0.5302920000000  0.5647210000000 1.0
C      1  0.6102680000000  0.5093650000000  0.5073320000000 1.0
C      1  0.5200740000000  0.4989760000000  0.5314940000000 1.0
C      1  0.5240660000000  0.4358850000000  0.4868800000000 1.0
C      1  0.5307250000000  0.4309640000000  0.5322520000000 1.0
C      1  0.4439620000000  0.5766830000000  0.5535300000000 1.0
C      1  0.5052860000000  0.4719730000000  0.4648620000000 1.0
C      1  0.4111430000000  0.5449980000000  0.5417990000000 1.0
C      1  0.4742460000000  0.4216630000000  0.4366520000000 1.0
C      1  0.5568650000000  0.4837550000000  0.3782630000000 1.0
C      1  0.5544610000000  0.4932930000000  0.5962030000000 1.0
C      1  0.4791570000000  0.4879170000000  0.5120220000000 1.0
C      1  0.4799390000000  0.5969110000000  0.5365560000000 1.0
C      1  0.5161580000000  0.4308020000000  0.5874240000000 1.0
C      1  0.5436340000000  0.4371140000000  0.5084330000000 1.0
C      1  0.4627440000000  0.5228730000000  0.3886260000000 1.0
C      1  0.4979510000000  0.4460770000000  0.5017540000000 1.0
C      1  0.5194680000000  0.5129250000000  0.4534030000000 1.0
C      1  0.5976130000000  0.5246850000000  0.4856020000000 1.0
C      1  0.4853370000000  0.5042370000000  0.3837080000000 1.0
C      1  0.5405190000000  0.3883880000000  0.4875410000000 1.0
C      1  0.4937050000000  0.5583330000000  0.3996450000000 1.0
C      1  0.4970060000000  0.5797190000000  0.4173170000000 1.0
C      1  0.3937820000000  0.4570850000000  0.5180200000000 1.0
C      1  0.5441450000000  0.5941550000000  0.4603840000000 1.0
C      1  0.5843950000000  0.4722560000000  0.5543890000000 1.0
C      1  0.5103200000000  0.4353160000000  0.4080210000000 1.0
C      1  0.5114600000000  0.5950170000000  0.4992550000000 1.0
C      1  0.6117770000000  0.5220650000000  0.5342450000000 1.0
C      1  0.5798470000000  0.5538480000000  0.4484380000000 1.0
C      1  0.4724090000000  0.4290710000000  0.5654980000000 1.0
C      1  0.4637100000000  0.3915790000000  0.4823330000000 1.0
C      1  0.5672430000000  0.4001160000000  0.4940310000000 1.0
C      1  0.4129270000000  0.4978140000000  0.5559960000000 1.0
C      1  0.4538540000000  0.4700410000000  0.3808170000000 1.0
C      1  0.4149350000000  0.4756160000000  0.5158450000000 1.0
C      1  0.4985590000000  0.6088760000000  0.4786360000000 1.0
C      1  0.4391590000000  0.4271730000000  0.4606680000000 1.0
C      1  0.5673780000000  0.5029840000000  0.4257400000000 1.0
C      1  0.4930900000000  0.5031260000000  0.5730310000000 1.0
C      1  0.4737580000000  0.4085280000000  0.5438880000000 1.0
C      1  0.5399460000000  0.5462020000000  0.4428520000000 1.0
C      1  0.5108630000000  0.5258780000000  0.4957040000000 1.0
C      1  0.4441820000000  0.5180980000000  0.4845540000000 1.0
C      1  0.3865550000000  0.5253240000000  0.4910800000000 1.0
C      1  0.5151710000000  0.5626680000000  0.5897630000000 1.0
C      1  0.4416330000000  0.5100120000000  0.5953650000000 1.0
C      1  0.4878810000000  0.5614450000000  0.5776510000000 1.0
C      1  0.4483550000000  0.5460690000000  0.5179040000000 1.0
C      1  0.4776560000000  0.4283160000000  0.4948700000000 1.0
C      1  0.5953550000000  0.4674860000000  0.4495270000000 1.0
END
