TITL C-883741-3679-398 145.770376325276 125000 -20459.6356945472 0 0 140 (C1) n - 1
REM
REM in /home/nfs/bkarasulu/CARBON/AIRSS/Generating-Clusters/ReaxFF-fromJPCA2015/Units_Real/with-SteepDescent/Only-C1/SD-CG/Try1-3A/FIRE-CG
REM
REM
REM
REM
REM
REM ./C.cell (11c1c37f851c82e70ff6c80c92926a4b)
REM
REM compiler GCC version 9.2.1 20190827 (Red Hat 9.2.1-1)
REM options -cpp -mtune=generic -march=x86-64 -g -O0 -fpre-include=/usr/include/finclude/math-vector-fortran.h
REM seed 2129670870 -601532431 1554001137 -2132034677 -1375600749 -446105381 -499926115 -1128963364 609437191 2088833046 -2007130766 1275607937 -384354359 179624067 1304102142 -996295755 -1481925272 1580020124 1114343532 1639293347 923176310 599473578 1421908300 -2125823399 1459744343 -859586778 -175449857 942494932 1682478288 1416733630 1678187157 1922135480 174783153
REM
CELL 1.54180   50.00000   50.00000   50.00000   90.00000   90.00000   90.00000
LATT -1
SFAC C  
C      1  0.4681840000000  0.4081290000000  0.4807170000000 1.0
C      1  0.4588720000000  0.4847490000000  0.5181500000000 1.0
C      1  0.4676970000000  0.5436490000000  0.4815530000000 1.0
C      1  0.4760370000000  0.4443850000000  0.4242930000000 1.0
C      1  0.5134860000000  0.5246430000000  0.5274190000000 1.0
C      1  0.5337310000000  0.4064800000000  0.5165930000000 1.0
C      1  0.5883940000000  0.5406980000000  0.4803630000000 1.0
C      1  0.5088520000000  0.4101270000000  0.4432880000000 1.0
C      1  0.5165200000000  0.3980930000000  0.4957950000000 1.0
C      1  0.4424220000000  0.5738840000000  0.4614450000000 1.0
C      1  0.4618340000000  0.4550910000000  0.4758230000000 1.0
C      1  0.5484180000000  0.5448860000000  0.4490900000000 1.0
C      1  0.5399100000000  0.4719300000000  0.6013790000000 1.0
C      1  0.4566410000000  0.5025200000000  0.5593870000000 1.0
C      1  0.4328750000000  0.5017630000000  0.5420680000000 1.0
C      1  0.5800820000000  0.5156670000000  0.5508420000000 1.0
C      1  0.4405260000000  0.5194740000000  0.5202730000000 1.0
C      1  0.5017080000000  0.4884330000000  0.4826230000000 1.0
C      1  0.4785170000000  0.4362860000000  0.5696720000000 1.0
C      1  0.4543060000000  0.4287730000000  0.4658990000000 1.0
C      1  0.5573260000000  0.5090750000000  0.5045600000000 1.0
C      1  0.5332190000000  0.4997360000000  0.5195310000000 1.0
C      1  0.4983140000000  0.5889640000000  0.4700890000000 1.0
C      1  0.4226570000000  0.4725630000000  0.5351430000000 1.0
C      1  0.4364290000000  0.4990540000000  0.4738950000000 1.0
C      1  0.4708650000000  0.4764850000000  0.5558650000000 1.0
C      1  0.5341140000000  0.5321660000000  0.5447050000000 1.0
C      1  0.4389310000000  0.4980440000000  0.5022840000000 1.0
C      1  0.4879790000000  0.5963010000000  0.5224870000000 1.0
C      1  0.5856770000000  0.4764420000000  0.5296920000000 1.0
C      1  0.5008820000000  0.5363510000000  0.4420350000000 1.0
C      1  0.5115520000000  0.5063640000000  0.4060840000000 1.0
C      1  0.5046540000000  0.5474210000000  0.5115810000000 1.0
C      1  0.5326530000000  0.5279050000000  0.4687370000000 1.0
C      1  0.4782210000000  0.5134800000000  0.5943590000000 1.0
C      1  0.4447800000000  0.4203520000000  0.5262770000000 1.0
C      1  0.4868610000000  0.4948680000000  0.5140180000000 1.0
C      1  0.5496330000000  0.4327640000000  0.4259320000000 1.0
C      1  0.5098210000000  0.5102080000000  0.4355230000000 1.0
C      1  0.4098620000000  0.5184250000000  0.5503970000000 1.0
C      1  0.5193280000000  0.5037120000000  0.4620130000000 1.0
C      1  0.4443520000000  0.4588490000000  0.5476780000000 1.0
C      1  0.4665510000000  0.5882550000000  0.5417010000000 1.0
C      1  0.5182730000000  0.5718840000000  0.5578300000000 1.0
C      1  0.5001230000000  0.5505030000000  0.4036690000000 1.0
C      1  0.5560790000000  0.4942070000000  0.5920400000000 1.0
C      1  0.4538830000000  0.4327490000000  0.5522030000000 1.0
C      1  0.5449530000000  0.5284200000000  0.4188170000000 1.0
C      1  0.4944740000000  0.5608430000000  0.5714440000000 1.0
C      1  0.4340580000000  0.5212900000000  0.4331620000000 1.0
C      1  0.4905050000000  0.5318220000000  0.5730540000000 1.0
C      1  0.4495950000000  0.5146820000000  0.5895620000000 1.0
C      1  0.4596350000000  0.5669970000000  0.4398390000000 1.0
C      1  0.5792490000000  0.5106000000000  0.4385720000000 1.0
C      1  0.5693560000000  0.4923060000000  0.5660750000000 1.0
C      1  0.4801220000000  0.4630830000000  0.5812830000000 1.0
C      1  0.5721000000000  0.5445270000000  0.5549910000000 1.0
C      1  0.5374790000000  0.4134950000000  0.4462770000000 1.0
C      1  0.5352350000000  0.5154390000000  0.6007410000000 1.0
C      1  0.5368700000000  0.5393800000000  0.6104910000000 1.0
C      1  0.4804510000000  0.5950020000000  0.4925670000000 1.0
C      1  0.4534190000000  0.5420780000000  0.4241240000000 1.0
C      1  0.3972490000000  0.5205680000000  0.5232180000000 1.0
C      1  0.4854670000000  0.4241080000000  0.5192030000000 1.0
C      1  0.4075190000000  0.5085130000000  0.4746190000000 1.0
C      1  0.5877650000000  0.4588530000000  0.5059070000000 1.0
C      1  0.5650070000000  0.4563200000000  0.4352130000000 1.0
C      1  0.5859160000000  0.5626250000000  0.5357880000000 1.0
C      1  0.5209730000000  0.5708490000000  0.5078440000000 1.0
C      1  0.4167460000000  0.5404310000000  0.5157550000000 1.0
C      1  0.4167610000000  0.4536070000000  0.4922800000000 1.0
C      1  0.5235190000000  0.5325240000000  0.3998520000000 1.0
C      1  0.5249590000000  0.4184690000000  0.5451350000000 1.0
C      1  0.5391040000000  0.4462810000000  0.5840250000000 1.0
C      1  0.5433750000000  0.5321380000000  0.4950310000000 1.0
C      1  0.4741620000000  0.5358990000000  0.4045070000000 1.0
C      1  0.4349180000000  0.4656240000000  0.4389380000000 1.0
C      1  0.4260420000000  0.5374210000000  0.5636220000000 1.0
C      1  0.5273760000000  0.4822300000000  0.4957980000000 1.0
C      1  0.4882800000000  0.4651000000000  0.4655420000000 1.0
C      1  0.4974830000000  0.4065560000000  0.4730880000000 1.0
C      1  0.4452870000000  0.5547850000000  0.5675510000000 1.0
C      1  0.5428450000000  0.4495480000000  0.5555600000000 1.0
C      1  0.5018140000000  0.4191640000000  0.5638690000000 1.0
C      1  0.4859490000000  0.5795800000000  0.4443220000000 1.0
C      1  0.5442720000000  0.4742350000000  0.4272980000000 1.0
C      1  0.5493940000000  0.5708480000000  0.4657750000000 1.0
C      1  0.5874280000000  0.4927630000000  0.4599980000000 1.0
C      1  0.5170420000000  0.4886040000000  0.6070140000000 1.0
C      1  0.5418200000000  0.5520230000000  0.5597770000000 1.0
C      1  0.4283270000000  0.4373930000000  0.5112090000000 1.0
C      1  0.5918140000000  0.4620120000000  0.4525870000000 1.0
C      1  0.5682840000000  0.4674480000000  0.5516010000000 1.0
C      1  0.5276330000000  0.4500110000000  0.4179090000000 1.0
C      1  0.5043520000000  0.5631860000000  0.4294890000000 1.0
C      1  0.5343660000000  0.4329440000000  0.4679540000000 1.0
C      1  0.5614030000000  0.4262050000000  0.4783920000000 1.0
C      1  0.3976590000000  0.5008370000000  0.5011510000000 1.0
C      1  0.5740090000000  0.5662570000000  0.4829740000000 1.0
C      1  0.5820780000000  0.4479190000000  0.4796120000000 1.0
C      1  0.4943480000000  0.4810800000000  0.5379310000000 1.0
C      1  0.5590850000000  0.4181180000000  0.5065570000000 1.0
C      1  0.5441400000000  0.5561180000000  0.5112780000000 1.0
C      1  0.5256760000000  0.5821410000000  0.4771240000000 1.0
C      1  0.4198310000000  0.5560710000000  0.4671700000000 1.0
C      1  0.4756890000000  0.5486240000000  0.5090770000000 1.0
C      1  0.4824210000000  0.5081030000000  0.4017630000000 1.0
C      1  0.5795440000000  0.4992170000000  0.4874710000000 1.0
C      1  0.4499430000000  0.4403760000000  0.4378970000000 1.0
C      1  0.4343190000000  0.5817100000000  0.5049780000000 1.0
C      1  0.5128900000000  0.5869590000000  0.5337250000000 1.0
C      1  0.4996740000000  0.4436720000000  0.5061990000000 1.0
C      1  0.4593750000000  0.5210330000000  0.4665950000000 1.0
C      1  0.4541850000000  0.5706490000000  0.5227920000000 1.0
C      1  0.4528810000000  0.5908550000000  0.4840150000000 1.0
C      1  0.4697980000000  0.5229780000000  0.5216220000000 1.0
C      1  0.5630910000000  0.4458930000000  0.5154240000000 1.0
C      1  0.5921210000000  0.5057990000000  0.5271130000000 1.0
C      1  0.5556990000000  0.5020980000000  0.4220750000000 1.0
C      1  0.5696440000000  0.5708600000000  0.5119260000000 1.0
C      1  0.4150840000000  0.5612300000000  0.4955340000000 1.0
C      1  0.5036110000000  0.4329470000000  0.4257330000000 1.0
C      1  0.4157310000000  0.5293060000000  0.4556530000000 1.0
C      1  0.5188410000000  0.4530120000000  0.5241200000000 1.0
C      1  0.5066460000000  0.4394640000000  0.4775100000000 1.0
C      1  0.4902790000000  0.4849010000000  0.5980290000000 1.0
C      1  0.5778430000000  0.5360560000000  0.4536400000000 1.0
C      1  0.5222820000000  0.4756760000000  0.5425650000000 1.0
C      1  0.4667910000000  0.4074000000000  0.5101660000000 1.0
C      1  0.4406280000000  0.4920600000000  0.4274210000000 1.0
C      1  0.4677270000000  0.5724370000000  0.5670090000000 1.0
C      1  0.4789950000000  0.5197980000000  0.5494670000000 1.0
C      1  0.4055540000000  0.4728760000000  0.5108550000000 1.0
C      1  0.4870110000000  0.5292660000000  0.4664710000000 1.0
C      1  0.4351810000000  0.4676810000000  0.4691470000000 1.0
C      1  0.4848090000000  0.4698130000000  0.4348440000000 1.0
C      1  0.5967540000000  0.5188950000000  0.5001550000000 1.0
C      1  0.4972020000000  0.4076940000000  0.5376600000000 1.0
C      1  0.5380610000000  0.4569360000000  0.5042010000000 1.0
C      1  0.4686890000000  0.4895720000000  0.4196820000000 1.0
END
