TITL C-884130-5973-212 97.3218969525823 125000 -25654.086486426 0 0 174 (C1) n - 1
REM
REM in /home/nfs/bkarasulu/CARBON/AIRSS/Generating-Clusters/ReaxFF-fromJPCA2015/Units_Real/with-SteepDescent/Only-C1/SD-CG/Try1-3A/FIRE-CG
REM
REM
REM
REM
REM
REM ./C.cell (11c1c37f851c82e70ff6c80c92926a4b)
REM
REM compiler GCC version 9.2.1 20190827 (Red Hat 9.2.1-1)
REM options -cpp -mtune=generic -march=x86-64 -g -O0 -fpre-include=/usr/include/finclude/math-vector-fortran.h
REM seed -316273571 -776022580 -1618531710 434094739 1115378535 -1209115021 -1741485024 -1575678245 -1216409354 521191932 -422328671 -1627467402 -22802344 2017115281 113306037 -1349915179 1514814600 -19073394 -1624494321 -1639765552 -1023931584 -1089138694 291388775 -1198707174 379182454 -1667671563 -2136147753 -1130435437 -1347767427 1501719248 -1370698168 -494670040 -278707308
REM
CELL 1.54180   50.00000   50.00000   50.00000   90.00000   90.00000   90.00000
LATT -1
SFAC C  
C      1  0.4251370000000  0.4162970000000  0.4731020000000 1.0
C      1  0.5233850000000  0.5205220000000  0.4979610000000 1.0
C      1  0.5745310000000  0.4904580000000  0.4236840000000 1.0
C      1  0.4425910000000  0.5783210000000  0.5480940000000 1.0
C      1  0.4889570000000  0.4289640000000  0.4776380000000 1.0
C      1  0.5295170000000  0.4030540000000  0.4925070000000 1.0
C      1  0.4173130000000  0.4687790000000  0.5380830000000 1.0
C      1  0.5572340000000  0.5784230000000  0.4753460000000 1.0
C      1  0.4381280000000  0.4863760000000  0.4970820000000 1.0
C      1  0.4675020000000  0.5814380000000  0.5578950000000 1.0
C      1  0.5963390000000  0.5539290000000  0.4928250000000 1.0
C      1  0.5126810000000  0.4814310000000  0.4247480000000 1.0
C      1  0.5203030000000  0.5724520000000  0.5767880000000 1.0
C      1  0.4953600000000  0.4101080000000  0.5339590000000 1.0
C      1  0.3975800000000  0.5107950000000  0.5326990000000 1.0
C      1  0.5604720000000  0.5041850000000  0.5144510000000 1.0
C      1  0.5953740000000  0.5190210000000  0.5365820000000 1.0
C      1  0.4729730000000  0.5523050000000  0.4818270000000 1.0
C      1  0.4486240000000  0.4064250000000  0.4647780000000 1.0
C      1  0.3933500000000  0.4827800000000  0.5247940000000 1.0
C      1  0.4526910000000  0.4135600000000  0.5641440000000 1.0
C      1  0.5143650000000  0.4816980000000  0.5249940000000 1.0
C      1  0.5345640000000  0.5425270000000  0.5429150000000 1.0
C      1  0.5713360000000  0.5501060000000  0.5731450000000 1.0
C      1  0.4460450000000  0.4595460000000  0.4882960000000 1.0
C      1  0.4939560000000  0.5002960000000  0.4587810000000 1.0
C      1  0.5455430000000  0.5866150000000  0.4495780000000 1.0
C      1  0.5273940000000  0.5925520000000  0.5549790000000 1.0
C      1  0.5584060000000  0.4341960000000  0.5265720000000 1.0
C      1  0.5240850000000  0.5180510000000  0.5464190000000 1.0
C      1  0.5688240000000  0.5505660000000  0.4795760000000 1.0
C      1  0.4348050000000  0.4899230000000  0.4271640000000 1.0
C      1  0.6070840000000  0.5266680000000  0.4873050000000 1.0
C      1  0.4726050000000  0.5411370000000  0.5238700000000 1.0
C      1  0.5514460000000  0.5905470000000  0.5410820000000 1.0
C      1  0.5026150000000  0.4504180000000  0.3928880000000 1.0
C      1  0.5509500000000  0.5936270000000  0.4990570000000 1.0
C      1  0.4206800000000  0.4616800000000  0.5668410000000 1.0
C      1  0.4882910000000  0.4131160000000  0.4282300000000 1.0
C      1  0.5362140000000  0.5209820000000  0.3998420000000 1.0
C      1  0.6051580000000  0.4827600000000  0.4999210000000 1.0
C      1  0.5551580000000  0.4825160000000  0.4926780000000 1.0
C      1  0.6005110000000  0.4782790000000  0.4708730000000 1.0
C      1  0.5166040000000  0.4626630000000  0.4671620000000 1.0
C      1  0.5436110000000  0.5559620000000  0.5862030000000 1.0
C      1  0.5338720000000  0.5307450000000  0.5960510000000 1.0
C      1  0.4972870000000  0.4793590000000  0.3854310000000 1.0
C      1  0.5704150000000  0.5031220000000  0.5893830000000 1.0
C      1  0.4982860000000  0.5120660000000  0.5580760000000 1.0
C      1  0.4410060000000  0.4831940000000  0.5385250000000 1.0
C      1  0.4555470000000  0.5343420000000  0.5457790000000 1.0
C      1  0.3992600000000  0.5368370000000  0.5171700000000 1.0
C      1  0.4871400000000  0.4482430000000  0.5054570000000 1.0
C      1  0.5210500000000  0.3978160000000  0.5206150000000 1.0
C      1  0.5154150000000  0.4810720000000  0.5962870000000 1.0
C      1  0.5322700000000  0.4717650000000  0.5737660000000 1.0
C      1  0.4685400000000  0.5413890000000  0.5937050000000 1.0
C      1  0.4957550000000  0.4776550000000  0.5042340000000 1.0
C      1  0.5467440000000  0.4453380000000  0.5698720000000 1.0
C      1  0.4571860000000  0.4961660000000  0.4752680000000 1.0
C      1  0.4157200000000  0.5400160000000  0.4406120000000 1.0
C      1  0.5018940000000  0.5503360000000  0.5686590000000 1.0
C      1  0.5263770000000  0.5460230000000  0.4072880000000 1.0
C      1  0.5066140000000  0.4055560000000  0.4738150000000 1.0
C      1  0.5779190000000  0.4965960000000  0.5427940000000 1.0
C      1  0.4431950000000  0.4418660000000  0.5690740000000 1.0
C      1  0.5804350000000  0.4689910000000  0.5064590000000 1.0
C      1  0.4075700000000  0.4620450000000  0.4581420000000 1.0
C      1  0.5426040000000  0.4168280000000  0.5659310000000 1.0
C      1  0.4668330000000  0.5427080000000  0.4520630000000 1.0
C      1  0.5127820000000  0.5623910000000  0.4476480000000 1.0
C      1  0.5792770000000  0.4404140000000  0.5043310000000 1.0
C      1  0.4287350000000  0.5362710000000  0.5584290000000 1.0
C      1  0.5848630000000  0.4569290000000  0.5619340000000 1.0
C      1  0.4525060000000  0.5868810000000  0.4592940000000 1.0
C      1  0.5159020000000  0.5491930000000  0.4987690000000 1.0
C      1  0.5226110000000  0.6016210000000  0.5039940000000 1.0
C      1  0.5054800000000  0.4822560000000  0.5524220000000 1.0
C      1  0.4927090000000  0.4320230000000  0.4098930000000 1.0
C      1  0.5207170000000  0.4919570000000  0.3954480000000 1.0
C      1  0.5110070000000  0.5196610000000  0.4480070000000 1.0
C      1  0.4338790000000  0.4612350000000  0.4412140000000 1.0
C      1  0.4597770000000  0.4402000000000  0.5037300000000 1.0
C      1  0.4463260000000  0.4030750000000  0.5372640000000 1.0
C      1  0.4581240000000  0.4141230000000  0.4382980000000 1.0
C      1  0.4654050000000  0.5953430000000  0.5057920000000 1.0
C      1  0.5121570000000  0.4069290000000  0.4448960000000 1.0
C      1  0.5049870000000  0.6031480000000  0.4797550000000 1.0
C      1  0.5386720000000  0.4194650000000  0.4449740000000 1.0
C      1  0.4736290000000  0.4967320000000  0.3904280000000 1.0
C      1  0.4225630000000  0.4898200000000  0.5753720000000 1.0
C      1  0.4596520000000  0.4651900000000  0.4627320000000 1.0
C      1  0.5376060000000  0.3962790000000  0.5444670000000 1.0
C      1  0.5623360000000  0.5135610000000  0.4092100000000 1.0
C      1  0.4844810000000  0.5168430000000  0.6020550000000 1.0
C      1  0.5480160000000  0.4167800000000  0.4730300000000 1.0
C      1  0.5302030000000  0.4426910000000  0.5133720000000 1.0
C      1  0.4488220000000  0.5218320000000  0.4640830000000 1.0
C      1  0.5393170000000  0.5608030000000  0.4328710000000 1.0
C      1  0.5480580000000  0.4394870000000  0.4254020000000 1.0
C      1  0.5392480000000  0.5076130000000  0.4799740000000 1.0
C      1  0.4057630000000  0.5389270000000  0.4881840000000 1.0
C      1  0.4692890000000  0.5098720000000  0.5500180000000 1.0
C      1  0.5142690000000  0.5112050000000  0.6020550000000 1.0
C      1  0.4827840000000  0.5902650000000  0.5299340000000 1.0
C      1  0.4050150000000  0.4913360000000  0.4585750000000 1.0
C      1  0.5802040000000  0.4584640000000  0.4612390000000 1.0
C      1  0.4797220000000  0.5647170000000  0.5788320000000 1.0
C      1  0.5602770000000  0.4538520000000  0.5484150000000 1.0
C      1  0.4447190000000  0.5013730000000  0.5915120000000 1.0
C      1  0.4421000000000  0.4352190000000  0.4268700000000 1.0
C      1  0.4104900000000  0.4935660000000  0.4880800000000 1.0
C      1  0.4796560000000  0.4716360000000  0.5422190000000 1.0
C      1  0.5742820000000  0.5295530000000  0.5918540000000 1.0
C      1  0.4099820000000  0.5569850000000  0.4649720000000 1.0
C      1  0.4268560000000  0.5805630000000  0.4710430000000 1.0
C      1  0.4822290000000  0.4175840000000  0.5660300000000 1.0
C      1  0.6027720000000  0.4751930000000  0.5524490000000 1.0
C      1  0.5578290000000  0.5472920000000  0.5276230000000 1.0
C      1  0.4476500000000  0.5556380000000  0.4951290000000 1.0
C      1  0.5329160000000  0.4607200000000  0.4916710000000 1.0
C      1  0.5219560000000  0.6041140000000  0.4556520000000 1.0
C      1  0.4303530000000  0.4094800000000  0.5136180000000 1.0
C      1  0.3912340000000  0.4731990000000  0.4971730000000 1.0
C      1  0.4719980000000  0.4912430000000  0.5990420000000 1.0
C      1  0.5931110000000  0.5668290000000  0.5192420000000 1.0
C      1  0.5585130000000  0.4111010000000  0.5441120000000 1.0
C      1  0.4103620000000  0.4224570000000  0.4951720000000 1.0
C      1  0.4109000000000  0.5543100000000  0.5370200000000 1.0
C      1  0.5309920000000  0.4736650000000  0.4447180000000 1.0
C      1  0.6025500000000  0.5070760000000  0.4648670000000 1.0
C      1  0.4880260000000  0.4525540000000  0.4614640000000 1.0
C      1  0.4623200000000  0.4925020000000  0.4179820000000 1.0
C      1  0.5047340000000  0.4352670000000  0.5235530000000 1.0
C      1  0.4374950000000  0.5835380000000  0.5012310000000 1.0
C      1  0.4834970000000  0.5224380000000  0.3955180000000 1.0
C      1  0.5106700000000  0.5543190000000  0.5436250000000 1.0
C      1  0.5371510000000  0.4724040000000  0.3924950000000 1.0
C      1  0.4953570000000  0.5413910000000  0.4369660000000 1.0
C      1  0.5383840000000  0.5193780000000  0.4540990000000 1.0
C      1  0.5718420000000  0.4349910000000  0.4770450000000 1.0
C      1  0.4954300000000  0.5597210000000  0.5226090000000 1.0
C      1  0.4785380000000  0.5291830000000  0.4984890000000 1.0
C      1  0.5625110000000  0.4655070000000  0.4378720000000 1.0
C      1  0.4756740000000  0.5932600000000  0.4794800000000 1.0
C      1  0.4902010000000  0.4669000000000  0.5959700000000 1.0
C      1  0.5309170000000  0.5046990000000  0.5224410000000 1.0
C      1  0.5708310000000  0.5869200000000  0.5211430000000 1.0
C      1  0.5144100000000  0.5562910000000  0.4737460000000 1.0
C      1  0.5113270000000  0.6003440000000  0.5306270000000 1.0
C      1  0.4640470000000  0.4513120000000  0.5523970000000 1.0
C      1  0.5629330000000  0.5319650000000  0.5040480000000 1.0
C      1  0.4630150000000  0.4923180000000  0.5269010000000 1.0
C      1  0.5595530000000  0.4885200000000  0.5682410000000 1.0
C      1  0.4122640000000  0.5107260000000  0.5576740000000 1.0
C      1  0.4168280000000  0.5095240000000  0.4384110000000 1.0
C      1  0.4556510000000  0.4118190000000  0.4985930000000 1.0
C      1  0.5910250000000  0.5092820000000  0.4385460000000 1.0
C      1  0.4857630000000  0.4851450000000  0.4355950000000 1.0
C      1  0.3999650000000  0.4482340000000  0.4827190000000 1.0
C      1  0.5762610000000  0.5310310000000  0.4286350000000 1.0
C      1  0.6080190000000  0.5106480000000  0.5112040000000 1.0
C      1  0.4342480000000  0.5317780000000  0.4869360000000 1.0
C      1  0.5574490000000  0.5407810000000  0.4473460000000 1.0
C      1  0.4969780000000  0.5444680000000  0.4053630000000 1.0
C      1  0.4437530000000  0.5300860000000  0.5862300000000 1.0
C      1  0.4323270000000  0.5562860000000  0.4216760000000 1.0
C      1  0.5338770000000  0.4461100000000  0.4011310000000 1.0
C      1  0.4700540000000  0.4002870000000  0.5216790000000 1.0
C      1  0.4856180000000  0.5003890000000  0.4874030000000 1.0
C      1  0.4888360000000  0.4391870000000  0.5842830000000 1.0
C      1  0.5846830000000  0.5473870000000  0.5429700000000 1.0
C      1  0.4226940000000  0.5792330000000  0.5295630000000 1.0
C      1  0.4549940000000  0.5675670000000  0.4378820000000 1.0
END
