TITL C-884142-5251-209 29.469002079831 125000 -26823.1703333545 0 0 176 (C1) n - 1
REM
REM in /home/nfs/bkarasulu/CARBON/AIRSS/Generating-Clusters/ReaxFF-fromJPCA2015/Units_Real/with-SteepDescent/Only-C1/SD-CG/Try1-3A/FIRE-CG
REM
REM
REM
REM
REM
REM ./C.cell (11c1c37f851c82e70ff6c80c92926a4b)
REM
REM compiler GCC version 9.2.1 20190827 (Red Hat 9.2.1-1)
REM options -cpp -mtune=generic -march=x86-64 -g -O0 -fpre-include=/usr/include/finclude/math-vector-fortran.h
REM seed -549120943 -2015462869 2002500606 314370386 -598804894 -191554762 864361863 -587880853 -1581064126 1615284161 819752103 -670493403 -466807417 407869007 -2028077212 -1164784465 2105135339 -253502830 1876854155 1513413420 1114338234 -640105241 2103338048 1792500105 -342882999 -111075898 63188275 -843892971 326644039 -827049715 5753474 -844369474 -1183027802
REM
CELL 1.54180   50.00000   50.00000   50.00000   90.00000   90.00000   90.00000
LATT -1
SFAC C  
C      1  0.5031080000000  0.6036860000000  0.4914970000000 1.0
C      1  0.3925110000000  0.5041750000000  0.5074520000000 1.0
C      1  0.4653190000000  0.4741450000000  0.4412570000000 1.0
C      1  0.5531870000000  0.5821760000000  0.5369450000000 1.0
C      1  0.4849750000000  0.4060150000000  0.4698160000000 1.0
C      1  0.5330590000000  0.4334790000000  0.3991580000000 1.0
C      1  0.4971660000000  0.5093470000000  0.4423220000000 1.0
C      1  0.5294720000000  0.5908320000000  0.5541360000000 1.0
C      1  0.5894070000000  0.5375370000000  0.5444170000000 1.0
C      1  0.4987410000000  0.5675550000000  0.5371420000000 1.0
C      1  0.5056550000000  0.4264550000000  0.4617230000000 1.0
C      1  0.5681570000000  0.4241650000000  0.5414140000000 1.0
C      1  0.5559880000000  0.5177040000000  0.4838650000000 1.0
C      1  0.3988990000000  0.5273270000000  0.4668120000000 1.0
C      1  0.5075700000000  0.5254520000000  0.4647460000000 1.0
C      1  0.4770620000000  0.5311270000000  0.5290980000000 1.0
C      1  0.4968840000000  0.3967860000000  0.5247000000000 1.0
C      1  0.5088350000000  0.5573530000000  0.3997380000000 1.0
C      1  0.5949360000000  0.4894040000000  0.5697400000000 1.0
C      1  0.4506480000000  0.4371800000000  0.5302060000000 1.0
C      1  0.5495640000000  0.5643060000000  0.4220970000000 1.0
C      1  0.5716840000000  0.5847430000000  0.4875080000000 1.0
C      1  0.5336530000000  0.4907000000000  0.4488350000000 1.0
C      1  0.5117300000000  0.5071620000000  0.6062500000000 1.0
C      1  0.4297790000000  0.5246970000000  0.5936790000000 1.0
C      1  0.4545180000000  0.4663700000000  0.5317710000000 1.0
C      1  0.4780380000000  0.4738540000000  0.5197960000000 1.0
C      1  0.5483220000000  0.5216770000000  0.4073950000000 1.0
C      1  0.5217890000000  0.5472610000000  0.5437020000000 1.0
C      1  0.4711710000000  0.5038360000000  0.4410410000000 1.0
C      1  0.5162540000000  0.4417680000000  0.5812130000000 1.0
C      1  0.4987870000000  0.4860080000000  0.5338920000000 1.0
C      1  0.4393310000000  0.5135740000000  0.5468240000000 1.0
C      1  0.4255750000000  0.4835560000000  0.4207310000000 1.0
C      1  0.3954770000000  0.5142580000000  0.5349770000000 1.0
C      1  0.5391890000000  0.4587610000000  0.5815100000000 1.0
C      1  0.5792730000000  0.4270860000000  0.5144390000000 1.0
C      1  0.5682340000000  0.4519370000000  0.5849920000000 1.0
C      1  0.4985680000000  0.4356900000000  0.5091190000000 1.0
C      1  0.5565520000000  0.4480750000000  0.4384320000000 1.0
C      1  0.5797160000000  0.4451060000000  0.5588890000000 1.0
C      1  0.5178470000000  0.4241390000000  0.5562360000000 1.0
C      1  0.5270380000000  0.4140640000000  0.4442360000000 1.0
C      1  0.4171280000000  0.5675890000000  0.4760850000000 1.0
C      1  0.4491400000000  0.4809740000000  0.4857880000000 1.0
C      1  0.5851750000000  0.4537010000000  0.4741640000000 1.0
C      1  0.4183530000000  0.4638370000000  0.4457790000000 1.0
C      1  0.3968150000000  0.4949730000000  0.5573240000000 1.0
C      1  0.4727750000000  0.5951400000000  0.4474990000000 1.0
C      1  0.5306840000000  0.5418020000000  0.5702640000000 1.0
C      1  0.5657040000000  0.4121780000000  0.4937750000000 1.0
C      1  0.4680790000000  0.5704320000000  0.4912950000000 1.0
C      1  0.4230110000000  0.5603900000000  0.5296060000000 1.0
C      1  0.4805200000000  0.5354710000000  0.6106450000000 1.0
C      1  0.4125550000000  0.5188140000000  0.4919840000000 1.0
C      1  0.5518990000000  0.5930020000000  0.5068590000000 1.0
C      1  0.5132910000000  0.5957050000000  0.5310430000000 1.0
C      1  0.5055730000000  0.5801400000000  0.4171340000000 1.0
C      1  0.4709900000000  0.5371200000000  0.5816620000000 1.0
C      1  0.4650230000000  0.4276170000000  0.4090580000000 1.0
C      1  0.4350960000000  0.4844170000000  0.5417780000000 1.0
C      1  0.4945190000000  0.4809520000000  0.5634890000000 1.0
C      1  0.5371360000000  0.4059490000000  0.4975930000000 1.0
C      1  0.4655630000000  0.5231520000000  0.5557290000000 1.0
C      1  0.4720590000000  0.4042800000000  0.4437290000000 1.0
C      1  0.5971630000000  0.4997340000000  0.4782000000000 1.0
C      1  0.5129950000000  0.4421200000000  0.5324680000000 1.0
C      1  0.5086180000000  0.4838280000000  0.4341550000000 1.0
C      1  0.5405350000000  0.4740480000000  0.5568220000000 1.0
C      1  0.4764620000000  0.5584680000000  0.5161790000000 1.0
C      1  0.5851990000000  0.4750430000000  0.5941680000000 1.0
C      1  0.5832570000000  0.5598140000000  0.5008410000000 1.0
C      1  0.4440950000000  0.5807240000000  0.5412620000000 1.0
C      1  0.5431240000000  0.4096850000000  0.5443780000000 1.0
C      1  0.4451930000000  0.5497890000000  0.5840830000000 1.0
C      1  0.4430690000000  0.5841720000000  0.4797060000000 1.0
C      1  0.5393940000000  0.4742600000000  0.5054610000000 1.0
C      1  0.5305710000000  0.5843920000000  0.4326420000000 1.0
C      1  0.4440840000000  0.5046510000000  0.6101860000000 1.0
C      1  0.6017300000000  0.4996960000000  0.5076910000000 1.0
C      1  0.5343250000000  0.5132680000000  0.4648720000000 1.0
C      1  0.4829040000000  0.5425260000000  0.3991770000000 1.0
C      1  0.4624840000000  0.5245870000000  0.4844570000000 1.0
C      1  0.4491370000000  0.4748220000000  0.6047980000000 1.0
C      1  0.4357220000000  0.4608810000000  0.5850840000000 1.0
C      1  0.4095940000000  0.4688730000000  0.5463170000000 1.0
C      1  0.5458510000000  0.4669110000000  0.4582280000000 1.0
C      1  0.5904040000000  0.4516800000000  0.5025870000000 1.0
C      1  0.4106710000000  0.5496480000000  0.4531940000000 1.0
C      1  0.4734150000000  0.4274370000000  0.5651080000000 1.0
C      1  0.4655490000000  0.4548810000000  0.3970910000000 1.0
C      1  0.5934300000000  0.4690350000000  0.5487180000000 1.0
C      1  0.5676230000000  0.5221140000000  0.4314950000000 1.0
C      1  0.5376620000000  0.4965280000000  0.3991530000000 1.0
C      1  0.4170590000000  0.5620460000000  0.5030950000000 1.0
C      1  0.4991680000000  0.4658650000000  0.4757390000000 1.0
C      1  0.4899330000000  0.5177800000000  0.4909040000000 1.0
C      1  0.5362440000000  0.5477100000000  0.4020590000000 1.0
C      1  0.5637850000000  0.5744530000000  0.4605140000000 1.0
C      1  0.4231230000000  0.4477860000000  0.5665680000000 1.0
C      1  0.4019100000000  0.4781020000000  0.4657900000000 1.0
C      1  0.4931990000000  0.4607680000000  0.4480710000000 1.0
C      1  0.5205110000000  0.5576690000000  0.5924740000000 1.0
C      1  0.4692720000000  0.5108640000000  0.6221970000000 1.0
C      1  0.4892370000000  0.5823040000000  0.4729230000000 1.0
C      1  0.4516990000000  0.4751150000000  0.4125880000000 1.0
C      1  0.3990530000000  0.5029930000000  0.4506530000000 1.0
C      1  0.4013420000000  0.4587470000000  0.5159260000000 1.0
C      1  0.5555290000000  0.4201240000000  0.4472830000000 1.0
C      1  0.5919710000000  0.5200190000000  0.5686500000000 1.0
C      1  0.4610960000000  0.5562520000000  0.4159790000000 1.0
C      1  0.4554350000000  0.5729750000000  0.5675790000000 1.0
C      1  0.4625280000000  0.5981650000000  0.5270740000000 1.0
C      1  0.4606050000000  0.5259160000000  0.4551480000000 1.0
C      1  0.5749300000000  0.5288200000000  0.5917400000000 1.0
C      1  0.4421920000000  0.4706720000000  0.4599460000000 1.0
C      1  0.5512310000000  0.5106590000000  0.5302980000000 1.0
C      1  0.4476780000000  0.6002850000000  0.4572960000000 1.0
C      1  0.4398990000000  0.5079680000000  0.4934820000000 1.0
C      1  0.5535040000000  0.4979780000000  0.5057930000000 1.0
C      1  0.5172310000000  0.4141550000000  0.4170160000000 1.0
C      1  0.4892290000000  0.5147700000000  0.3951840000000 1.0
C      1  0.5720770000000  0.5612380000000  0.5432910000000 1.0
C      1  0.5675340000000  0.5512270000000  0.4411410000000 1.0
C      1  0.4258420000000  0.5392900000000  0.4299700000000 1.0
C      1  0.5409690000000  0.5918260000000  0.4586270000000 1.0
C      1  0.4801180000000  0.3997410000000  0.4994270000000 1.0
C      1  0.3949050000000  0.4778340000000  0.4946430000000 1.0
C      1  0.4902140000000  0.4896240000000  0.6190550000000 1.0
C      1  0.5848680000000  0.5240640000000  0.4680090000000 1.0
C      1  0.5109030000000  0.4467190000000  0.3912500000000 1.0
C      1  0.5543150000000  0.4519200000000  0.4099590000000 1.0
C      1  0.4088210000000  0.5098490000000  0.5796510000000 1.0
C      1  0.4452250000000  0.4289000000000  0.5580700000000 1.0
C      1  0.4887900000000  0.4525720000000  0.5802060000000 1.0
C      1  0.5737260000000  0.4935680000000  0.4357400000000 1.0
C      1  0.5501580000000  0.4997940000000  0.5556970000000 1.0
C      1  0.5067500000000  0.4908210000000  0.3990470000000 1.0
C      1  0.4776960000000  0.4675700000000  0.6048830000000 1.0
C      1  0.4180910000000  0.5325200000000  0.5397400000000 1.0
C      1  0.5524680000000  0.5434970000000  0.5001630000000 1.0
C      1  0.6038750000000  0.5253630000000  0.5215030000000 1.0
C      1  0.4877730000000  0.4115780000000  0.4191690000000 1.0
C      1  0.4903770000000  0.4096630000000  0.5506250000000 1.0
C      1  0.4767580000000  0.4735640000000  0.4924780000000 1.0
C      1  0.6081400000000  0.5465860000000  0.5045210000000 1.0
C      1  0.5733400000000  0.4266280000000  0.4695960000000 1.0
C      1  0.4478600000000  0.4187170000000  0.4315330000000 1.0
C      1  0.5276650000000  0.4661710000000  0.5316260000000 1.0
C      1  0.5976410000000  0.4740660000000  0.5201390000000 1.0
C      1  0.4655960000000  0.4236360000000  0.5085280000000 1.0
C      1  0.5110390000000  0.5801280000000  0.5755280000000 1.0
C      1  0.5169870000000  0.4256560000000  0.4890280000000 1.0
C      1  0.4286480000000  0.4218220000000  0.4692530000000 1.0
C      1  0.5280760000000  0.4649850000000  0.4809750000000 1.0
C      1  0.5860330000000  0.4799710000000  0.4598160000000 1.0
C      1  0.5044360000000  0.4970100000000  0.5810690000000 1.0
C      1  0.4333920000000  0.4199790000000  0.4966590000000 1.0
C      1  0.4966960000000  0.5130230000000  0.5182940000000 1.0
C      1  0.4769670000000  0.5802650000000  0.4229420000000 1.0
C      1  0.4165850000000  0.5097370000000  0.4282660000000 1.0
C      1  0.5496530000000  0.5198810000000  0.5776760000000 1.0
C      1  0.5274680000000  0.3971810000000  0.5236760000000 1.0
C      1  0.4159690000000  0.4392720000000  0.5052200000000 1.0
C      1  0.5080190000000  0.5583490000000  0.4668770000000 1.0
C      1  0.4917320000000  0.4649450000000  0.3872180000000 1.0
C      1  0.5290430000000  0.5548870000000  0.4840650000000 1.0
C      1  0.5092560000000  0.5370610000000  0.6098720000000 1.0
C      1  0.5583570000000  0.4807710000000  0.4121450000000 1.0
C      1  0.4250590000000  0.4318090000000  0.4446150000000 1.0
C      1  0.4850120000000  0.5759550000000  0.5632860000000 1.0
C      1  0.4896040000000  0.6071710000000  0.5176260000000 1.0
C      1  0.5993820000000  0.5465820000000  0.4789880000000 1.0
C      1  0.5402220000000  0.5354970000000  0.5258550000000 1.0
C      1  0.5318440000000  0.6007440000000  0.4873100000000 1.0
C      1  0.4504100000000  0.5460320000000  0.4389310000000 1.0
END
