TITL C-884138-6203-417 -6.99741033718496 125000 -8319.02731060222 0 0 56 (C1) n - 1
REM
REM in /home/nfs/bkarasulu/CARBON/AIRSS/Generating-Clusters/ReaxFF-fromJPCA2015/Units_Real/with-SteepDescent/Only-C1/SD-CG/Try1-3A/FIRE-CG
REM
REM
REM
REM
REM
REM ./C.cell (11c1c37f851c82e70ff6c80c92926a4b)
REM
REM compiler GCC version 9.2.1 20190827 (Red Hat 9.2.1-1)
REM options -cpp -mtune=generic -march=x86-64 -g -O0 -fpre-include=/usr/include/finclude/math-vector-fortran.h
REM seed -1238994943 -1570556719 329248450 888374666 1989294343 -1917001756 -1697075738 -89032475 -2075546287 304313013 -1323326644 1386733757 -1330348584 -593366364 -1510656628 -558139690 -913602003 104557886 -1138609333 -1329865682 -387252468 -1157642352 -228072644 340279136 1174361656 -392034054 -2132023440 -2132209914 484970707 1727142905 -1410880252 -35756554 1899468615
REM
CELL 1.54180   50.00000   50.00000   50.00000   90.00000   90.00000   90.00000
LATT -1
SFAC C  
C      1  0.4544010000000  0.5031530000000  0.5491710000000 1.0
C      1  0.5360180000000  0.4501020000000  0.5028670000000 1.0
C      1  0.4923380000000  0.4264560000000  0.4929550000000 1.0
C      1  0.5582220000000  0.4824350000000  0.5321280000000 1.0
C      1  0.4808900000000  0.5383030000000  0.4513610000000 1.0
C      1  0.4876620000000  0.5649310000000  0.5468760000000 1.0
C      1  0.4983330000000  0.5018640000000  0.4793200000000 1.0
C      1  0.5441400000000  0.5584970000000  0.5376230000000 1.0
C      1  0.5493420000000  0.5566460000000  0.5107690000000 1.0
C      1  0.4980960000000  0.5641230000000  0.5202940000000 1.0
C      1  0.4556530000000  0.4831800000000  0.4309270000000 1.0
C      1  0.5513340000000  0.5111140000000  0.5355160000000 1.0
C      1  0.5463520000000  0.4949190000000  0.4593090000000 1.0
C      1  0.4495180000000  0.4908500000000  0.4588940000000 1.0
C      1  0.4722040000000  0.4333250000000  0.4729160000000 1.0
C      1  0.5278160000000  0.5658130000000  0.4905720000000 1.0
C      1  0.5356120000000  0.5213790000000  0.5594420000000 1.0
C      1  0.4518180000000  0.4371970000000  0.4945580000000 1.0
C      1  0.4532120000000  0.5412490000000  0.5194230000000 1.0
C      1  0.4821580000000  0.4748580000000  0.4229190000000 1.0
C      1  0.5599970000000  0.5218510000000  0.4601530000000 1.0
C      1  0.5379470000000  0.4742000000000  0.5496360000000 1.0
C      1  0.5580840000000  0.4686550000000  0.5048680000000 1.0
C      1  0.4892650000000  0.4992440000000  0.5290960000000 1.0
C      1  0.5352940000000  0.5519660000000  0.5633300000000 1.0
C      1  0.4628700000000  0.5550030000000  0.5382080000000 1.0
C      1  0.5521880000000  0.5476930000000  0.4475220000000 1.0
C      1  0.4823000000000  0.4983380000000  0.5583230000000 1.0
C      1  0.5222640000000  0.4402560000000  0.4542060000000 1.0
C      1  0.4731480000000  0.5004970000000  0.4138530000000 1.0
C      1  0.4678620000000  0.4547560000000  0.5353000000000 1.0
C      1  0.4861150000000  0.4661190000000  0.5544260000000 1.0
C      1  0.5202020000000  0.4342710000000  0.4821930000000 1.0
C      1  0.5051940000000  0.5494940000000  0.5671200000000 1.0
C      1  0.4350670000000  0.4979190000000  0.5295820000000 1.0
C      1  0.4549790000000  0.5298240000000  0.4955460000000 1.0
C      1  0.4832800000000  0.5325020000000  0.4802090000000 1.0
C      1  0.5073150000000  0.5210960000000  0.5659520000000 1.0
C      1  0.5635570000000  0.4868940000000  0.4832670000000 1.0
C      1  0.5178040000000  0.4911900000000  0.4591160000000 1.0
C      1  0.5146650000000  0.4632640000000  0.5176680000000 1.0
C      1  0.5005040000000  0.5557950000000  0.4951830000000 1.0
C      1  0.5366570000000  0.5684810000000  0.4623570000000 1.0
C      1  0.5067310000000  0.4663630000000  0.4449350000000 1.0
C      1  0.5692210000000  0.5155670000000  0.4878230000000 1.0
C      1  0.5139640000000  0.4593300000000  0.5480910000000 1.0
C      1  0.5049930000000  0.4904330000000  0.5087540000000 1.0
C      1  0.4323370000000  0.4860080000000  0.4823800000000 1.0
C      1  0.4364290000000  0.4618260000000  0.4995470000000 1.0
C      1  0.4732020000000  0.4334400000000  0.5147310000000 1.0
C      1  0.4427310000000  0.4689880000000  0.5269400000000 1.0
C      1  0.4815700000000  0.4588590000000  0.4611900000000 1.0
C      1  0.4793670000000  0.5282460000000  0.4238900000000 1.0
C      1  0.4738340000000  0.4842440000000  0.4736380000000 1.0
C      1  0.5585330000000  0.5279920000000  0.5124910000000 1.0
C      1  0.4354110000000  0.5090040000000  0.5006410000000 1.0
END
