TITL C-883730-8503-347 10.6365823673521 125000 -9206.16509689593 0 0 63 (C1) n - 1
REM
REM in /home/nfs/bkarasulu/CARBON/AIRSS/Generating-Clusters/ReaxFF-fromJPCA2015/Units_Real/with-SteepDescent/Only-C1/SD-CG/Try1-3A/FIRE-CG
REM
REM
REM
REM
REM
REM ./C.cell (11c1c37f851c82e70ff6c80c92926a4b)
REM
REM compiler GCC version 9.2.1 20190827 (Red Hat 9.2.1-1)
REM options -cpp -mtune=generic -march=x86-64 -g -O0 -fpre-include=/usr/include/finclude/math-vector-fortran.h
REM seed 618335937 -23888849 950334177 1056151265 1408791920 396261378 -834559604 1294637826 -1241367340 -313592632 -1116141093 710503313 -168757927 -1064595984 1109965354 1474778043 -1496683545 164818947 -439046378 -548521305 564456499 -940469089 1738259075 246909675 2014472155 -1813126914 -2110504351 1255663512 -197363430 422527933 1147201398 -918227332 -386478928
REM
CELL 1.54180   50.00000   50.00000   50.00000   90.00000   90.00000   90.00000
LATT -1
SFAC C  
C      1  0.5692120000000  0.4975240000000  0.4765100000000 1.0
C      1  0.5385120000000  0.4792990000000  0.5566790000000 1.0
C      1  0.4797840000000  0.4860780000000  0.5711320000000 1.0
C      1  0.5748030000000  0.5096340000000  0.5029550000000 1.0
C      1  0.4783930000000  0.5538190000000  0.5735870000000 1.0
C      1  0.5670860000000  0.4675240000000  0.4784680000000 1.0
C      1  0.4545740000000  0.5270120000000  0.4506020000000 1.0
C      1  0.4819880000000  0.4258600000000  0.4760580000000 1.0
C      1  0.4843050000000  0.5126310000000  0.4984470000000 1.0
C      1  0.5414000000000  0.4517910000000  0.4713600000000 1.0
C      1  0.5012760000000  0.5061240000000  0.5765840000000 1.0
C      1  0.4713100000000  0.5573910000000  0.4899720000000 1.0
C      1  0.4639190000000  0.4510340000000  0.5117450000000 1.0
C      1  0.4254100000000  0.5000790000000  0.4884350000000 1.0
C      1  0.4867930000000  0.4352440000000  0.5205540000000 1.0
C      1  0.4415390000000  0.5529340000000  0.4966450000000 1.0
C      1  0.4848850000000  0.4276440000000  0.4480160000000 1.0
C      1  0.4874560000000  0.4963700000000  0.4223050000000 1.0
C      1  0.5136990000000  0.5399180000000  0.5399670000000 1.0
C      1  0.4293990000000  0.4924700000000  0.5167970000000 1.0
C      1  0.5404740000000  0.5503070000000  0.4239470000000 1.0
C      1  0.5119360000000  0.5047280000000  0.5036330000000 1.0
C      1  0.5189910000000  0.5343370000000  0.4122270000000 1.0
C      1  0.5035730000000  0.5198950000000  0.4613740000000 1.0
C      1  0.5294880000000  0.4349920000000  0.4932920000000 1.0
C      1  0.5759010000000  0.4860740000000  0.5204280000000 1.0
C      1  0.5115680000000  0.5064910000000  0.4221900000000 1.0
C      1  0.5297380000000  0.5029280000000  0.5717240000000 1.0
C      1  0.5047640000000  0.5660130000000  0.5302300000000 1.0
C      1  0.5517330000000  0.4929240000000  0.5350830000000 1.0
C      1  0.4789100000000  0.4376660000000  0.4278940000000 1.0
C      1  0.4938870000000  0.5319460000000  0.5644630000000 1.0
C      1  0.5542490000000  0.5119250000000  0.4565900000000 1.0
C      1  0.4681550000000  0.5061830000000  0.5208990000000 1.0
C      1  0.5584160000000  0.5385550000000  0.4458340000000 1.0
C      1  0.5460940000000  0.5273420000000  0.5672390000000 1.0
C      1  0.5022050000000  0.4251000000000  0.4970740000000 1.0
C      1  0.5309710000000  0.4565600000000  0.5126110000000 1.0
C      1  0.5254120000000  0.4562470000000  0.5421090000000 1.0
C      1  0.5608970000000  0.5383860000000  0.5444670000000 1.0
C      1  0.4766550000000  0.6011350000000  0.5542870000000 1.0
C      1  0.4348380000000  0.4852480000000  0.4648200000000 1.0
C      1  0.4417410000000  0.5164360000000  0.5286990000000 1.0
C      1  0.4629160000000  0.4857930000000  0.4232370000000 1.0
C      1  0.5579200000000  0.5300290000000  0.5164020000000 1.0
C      1  0.5225010000000  0.4732250000000  0.4673830000000 1.0
C      1  0.4444340000000  0.5023160000000  0.4416390000000 1.0
C      1  0.4786810000000  0.5318370000000  0.4711820000000 1.0
C      1  0.5314060000000  0.5169140000000  0.5220290000000 1.0
C      1  0.4870740000000  0.5779260000000  0.5540360000000 1.0
C      1  0.4603460000000  0.4449460000000  0.4841360000000 1.0
C      1  0.5358450000000  0.5512470000000  0.5533720000000 1.0
C      1  0.5245960000000  0.5007010000000  0.4522210000000 1.0
C      1  0.5007150000000  0.4407390000000  0.5470780000000 1.0
C      1  0.4581420000000  0.4733180000000  0.5576520000000 1.0
C      1  0.5172830000000  0.4769040000000  0.4952490000000 1.0
C      1  0.4876890000000  0.5616120000000  0.5096820000000 1.0
C      1  0.5810520000000  0.4607610000000  0.5034490000000 1.0
C      1  0.4269040000000  0.5298530000000  0.4848660000000 1.0
C      1  0.4532820000000  0.4757550000000  0.5266600000000 1.0
C      1  0.4601080000000  0.4578940000000  0.4346300000000 1.0
C      1  0.4342410000000  0.5460220000000  0.5247430000000 1.0
C      1  0.4485240000000  0.4604060000000  0.4624230000000 1.0
END
