TITL C-883737-113-104 -0.617073113937852 125000 -28704.6110805403 0 0 190 (C1) n - 1
REM
REM in /home/nfs/bkarasulu/CARBON/AIRSS/Generating-Clusters/ReaxFF-fromJPCA2015/Units_Real/with-SteepDescent/Only-C1/SD-CG/Try1-3A/FIRE-CG
REM
REM
REM
REM
REM
REM ./C.cell (11c1c37f851c82e70ff6c80c92926a4b)
REM
REM compiler GCC version 9.2.1 20190827 (Red Hat 9.2.1-1)
REM options -cpp -mtune=generic -march=x86-64 -g -O0 -fpre-include=/usr/include/finclude/math-vector-fortran.h
REM seed -1363063978 1431301767 1105504148 2025572621 -1374181618 -1308914275 -332593550 1641042966 1220375059 70402110 -454704979 -1462784706 1613535789 160050102 -647043898 -760790131 1840015869 1624565540 -79456078 -1229390120 502827937 -542909103 -1938196899 603325805 -1489368201 -568336809 57082559 1748026323 1711009381 1825021506 -1493914718 -1489090971 672461993
REM
CELL 1.54180   50.00000   50.00000   50.00000   90.00000   90.00000   90.00000
LATT -1
SFAC C  
C      1  0.5585550000000  0.4660740000000  0.5890500000000 1.0
C      1  0.4958960000000  0.5083880000000  0.4309140000000 1.0
C      1  0.5979750000000  0.5065510000000  0.5386380000000 1.0
C      1  0.4915550000000  0.5072140000000  0.4012990000000 1.0
C      1  0.4715800000000  0.5039400000000  0.4499960000000 1.0
C      1  0.4284800000000  0.4923730000000  0.5822400000000 1.0
C      1  0.5128590000000  0.5296480000000  0.4471520000000 1.0
C      1  0.5456080000000  0.4527490000000  0.3901440000000 1.0
C      1  0.5337850000000  0.4477150000000  0.5887810000000 1.0
C      1  0.4509430000000  0.5215300000000  0.4616510000000 1.0
C      1  0.4626780000000  0.5024370000000  0.5487380000000 1.0
C      1  0.5049250000000  0.5308640000000  0.5175700000000 1.0
C      1  0.6113260000000  0.4725640000000  0.4907250000000 1.0
C      1  0.5714170000000  0.4756550000000  0.4227780000000 1.0
C      1  0.5266620000000  0.4752050000000  0.3812120000000 1.0
C      1  0.4037980000000  0.5475820000000  0.5331190000000 1.0
C      1  0.4958280000000  0.5369180000000  0.4713050000000 1.0
C      1  0.4375470000000  0.4186010000000  0.5058790000000 1.0
C      1  0.5565920000000  0.5385760000000  0.5752040000000 1.0
C      1  0.5859700000000  0.4910190000000  0.5172890000000 1.0
C      1  0.4558630000000  0.5355840000000  0.5804170000000 1.0
C      1  0.6038090000000  0.5324430000000  0.5268990000000 1.0
C      1  0.4921960000000  0.4316800000000  0.4672500000000 1.0
C      1  0.3836630000000  0.4568700000000  0.5082500000000 1.0
C      1  0.5340830000000  0.5489460000000  0.5947790000000 1.0
C      1  0.5085800000000  0.4037100000000  0.4293770000000 1.0
C      1  0.4518130000000  0.4751660000000  0.5435920000000 1.0
C      1  0.5318460000000  0.4790460000000  0.5284190000000 1.0
C      1  0.4753050000000  0.4633770000000  0.4984790000000 1.0
C      1  0.4073830000000  0.5462530000000  0.4329450000000 1.0
C      1  0.5583330000000  0.5883570000000  0.5541070000000 1.0
C      1  0.5703010000000  0.4780670000000  0.5350190000000 1.0
C      1  0.5311860000000  0.4993740000000  0.5083600000000 1.0
C      1  0.4886830000000  0.5991180000000  0.5343300000000 1.0
C      1  0.4343990000000  0.4793230000000  0.5226360000000 1.0
C      1  0.5039310000000  0.5094030000000  0.5742320000000 1.0
C      1  0.4876730000000  0.5041080000000  0.4737600000000 1.0
C      1  0.4465140000000  0.6000960000000  0.4737620000000 1.0
C      1  0.5040690000000  0.4576610000000  0.3884620000000 1.0
C      1  0.4984890000000  0.5154510000000  0.6218680000000 1.0
C      1  0.5104970000000  0.5390950000000  0.6088790000000 1.0
C      1  0.5492120000000  0.4923340000000  0.5468960000000 1.0
C      1  0.4693530000000  0.4488500000000  0.4543320000000 1.0
C      1  0.4524800000000  0.4436080000000  0.5790400000000 1.0
C      1  0.5254740000000  0.5356740000000  0.5376400000000 1.0
C      1  0.4173460000000  0.4263660000000  0.4831280000000 1.0
C      1  0.5230820000000  0.4337900000000  0.3892920000000 1.0
C      1  0.5894000000000  0.4776790000000  0.4462680000000 1.0
C      1  0.4644180000000  0.5594310000000  0.4142700000000 1.0
C      1  0.3835170000000  0.5383600000000  0.4483950000000 1.0
C      1  0.5433470000000  0.3974600000000  0.5286100000000 1.0
C      1  0.3942700000000  0.5228700000000  0.5220180000000 1.0
C      1  0.4913170000000  0.5547780000000  0.5941410000000 1.0
C      1  0.5202210000000  0.5939420000000  0.4547550000000 1.0
C      1  0.5318610000000  0.3878820000000  0.4873050000000 1.0
C      1  0.4572980000000  0.5172140000000  0.5242990000000 1.0
C      1  0.3917110000000  0.4698480000000  0.5312260000000 1.0
C      1  0.5519980000000  0.6017160000000  0.5016670000000 1.0
C      1  0.4151810000000  0.4789420000000  0.4444590000000 1.0
C      1  0.5251640000000  0.5748340000000  0.5878640000000 1.0
C      1  0.4744740000000  0.4927610000000  0.6165800000000 1.0
C      1  0.3797290000000  0.5178370000000  0.4678310000000 1.0
C      1  0.5362530000000  0.5612390000000  0.5317530000000 1.0
C      1  0.4197040000000  0.4284210000000  0.4537420000000 1.0
C      1  0.4401700000000  0.4142200000000  0.4380670000000 1.0
C      1  0.4967600000000  0.4718290000000  0.6148350000000 1.0
C      1  0.4401100000000  0.5023880000000  0.5083920000000 1.0
C      1  0.5164930000000  0.5021990000000  0.3864260000000 1.0
C      1  0.5830930000000  0.4687320000000  0.5734760000000 1.0
C      1  0.4915740000000  0.4054850000000  0.4536200000000 1.0
C      1  0.4923340000000  0.6237150000000  0.5104180000000 1.0
C      1  0.4984800000000  0.5798360000000  0.5827230000000 1.0
C      1  0.4942950000000  0.4654430000000  0.5453370000000 1.0
C      1  0.5889690000000  0.5015360000000  0.4620020000000 1.0
C      1  0.5162370000000  0.4308970000000  0.4180980000000 1.0
C      1  0.5622810000000  0.5632110000000  0.4474830000000 1.0
C      1  0.5189640000000  0.6284020000000  0.5001290000000 1.0
C      1  0.4601900000000  0.5571190000000  0.4974100000000 1.0
C      1  0.4180170000000  0.4569850000000  0.5290420000000 1.0
C      1  0.4806020000000  0.5796990000000  0.5566050000000 1.0
C      1  0.4553890000000  0.4642740000000  0.4733440000000 1.0
C      1  0.4246610000000  0.5265020000000  0.4194650000000 1.0
C      1  0.4816420000000  0.6211250000000  0.4837760000000 1.0
C      1  0.5326240000000  0.4334810000000  0.4977460000000 1.0
C      1  0.3867760000000  0.5412680000000  0.4763430000000 1.0
C      1  0.4206820000000  0.5870530000000  0.4678540000000 1.0
C      1  0.5270170000000  0.4865440000000  0.4551490000000 1.0
C      1  0.6099520000000  0.5291670000000  0.4979290000000 1.0
C      1  0.5333410000000  0.5130760000000  0.4611440000000 1.0
C      1  0.4314730000000  0.4802540000000  0.4687230000000 1.0
C      1  0.5362160000000  0.4333680000000  0.5673330000000 1.0
C      1  0.4154150000000  0.5728980000000  0.5206290000000 1.0
C      1  0.5916990000000  0.5285040000000  0.4514980000000 1.0
C      1  0.4723810000000  0.4626670000000  0.5278480000000 1.0
C      1  0.5356170000000  0.5254820000000  0.3926770000000 1.0
C      1  0.5335490000000  0.4050430000000  0.4628660000000 1.0
C      1  0.4988090000000  0.4831130000000  0.4897630000000 1.0
C      1  0.4408980000000  0.4688710000000  0.5711340000000 1.0
C      1  0.4592460000000  0.5857000000000  0.4966770000000 1.0
C      1  0.5701160000000  0.4509220000000  0.5335380000000 1.0
C      1  0.5698520000000  0.5794030000000  0.4968330000000 1.0
C      1  0.5109500000000  0.4350940000000  0.5135670000000 1.0
C      1  0.5444550000000  0.6011880000000  0.5299310000000 1.0
C      1  0.4792180000000  0.3865060000000  0.4945100000000 1.0
C      1  0.4919940000000  0.4922170000000  0.5572990000000 1.0
C      1  0.5710440000000  0.5392530000000  0.4334100000000 1.0
C      1  0.5878440000000  0.4591430000000  0.4694610000000 1.0
C      1  0.5610380000000  0.4420210000000  0.5042090000000 1.0
C      1  0.5360040000000  0.5877840000000  0.5685620000000 1.0
C      1  0.5362330000000  0.5748020000000  0.4414220000000 1.0
C      1  0.4160520000000  0.5787520000000  0.4936370000000 1.0
C      1  0.5076330000000  0.5496290000000  0.4951410000000 1.0
C      1  0.4331740000000  0.4301480000000  0.5322960000000 1.0
C      1  0.5329230000000  0.3917690000000  0.4387340000000 1.0
C      1  0.4197360000000  0.5719950000000  0.4403960000000 1.0
C      1  0.4843990000000  0.5369830000000  0.5722780000000 1.0
C      1  0.4299970000000  0.5077460000000  0.4810700000000 1.0
C      1  0.4435490000000  0.5686750000000  0.4280840000000 1.0
C      1  0.4621960000000  0.5068030000000  0.3984490000000 1.0
C      1  0.6155210000000  0.4575050000000  0.5138900000000 1.0
C      1  0.5254290000000  0.5019890000000  0.5930710000000 1.0
C      1  0.5145170000000  0.3871720000000  0.5310240000000 1.0
C      1  0.5641260000000  0.4487880000000  0.4135630000000 1.0
C      1  0.5788480000000  0.5662890000000  0.4720530000000 1.0
C      1  0.4715520000000  0.6098460000000  0.4601620000000 1.0
C      1  0.4361630000000  0.5545100000000  0.5723040000000 1.0
C      1  0.4856530000000  0.4336640000000  0.4974690000000 1.0
C      1  0.5319810000000  0.4664400000000  0.4729130000000 1.0
C      1  0.5734250000000  0.5137170000000  0.5828530000000 1.0
C      1  0.4888390000000  0.5715340000000  0.4269180000000 1.0
C      1  0.5864250000000  0.5544770000000  0.5365400000000 1.0
C      1  0.4123670000000  0.5394280000000  0.5597960000000 1.0
C      1  0.5036140000000  0.5024680000000  0.5116890000000 1.0
C      1  0.5034630000000  0.4506990000000  0.5959700000000 1.0
C      1  0.3981050000000  0.5185980000000  0.4906920000000 1.0
C      1  0.5901700000000  0.4967910000000  0.5662860000000 1.0
C      1  0.5718850000000  0.4966690000000  0.4891110000000 1.0
C      1  0.5561680000000  0.5210850000000  0.4153640000000 1.0
C      1  0.4659570000000  0.5435690000000  0.5234300000000 1.0
C      1  0.5489620000000  0.4936280000000  0.4186530000000 1.0
C      1  0.4578090000000  0.4388310000000  0.4294030000000 1.0
C      1  0.4656920000000  0.5436020000000  0.4719150000000 1.0
C      1  0.5631830000000  0.5606930000000  0.5190260000000 1.0
C      1  0.5139300000000  0.5762290000000  0.4989760000000 1.0
C      1  0.4175940000000  0.4512790000000  0.4349460000000 1.0
C      1  0.5164520000000  0.4931170000000  0.6205020000000 1.0
C      1  0.5898470000000  0.4463200000000  0.5547230000000 1.0
C      1  0.6188420000000  0.5015350000000  0.4911370000000 1.0
C      1  0.5258240000000  0.5983890000000  0.4846880000000 1.0
C      1  0.4813570000000  0.4367900000000  0.5832370000000 1.0
C      1  0.4776040000000  0.4134220000000  0.5631540000000 1.0
C      1  0.5386030000000  0.4192690000000  0.5462380000000 1.0
C      1  0.5557540000000  0.3970060000000  0.5015650000000 1.0
C      1  0.4213220000000  0.4972630000000  0.4215450000000 1.0
C      1  0.5719950000000  0.4180450000000  0.4894570000000 1.0
C      1  0.5444780000000  0.5205070000000  0.5524140000000 1.0
C      1  0.5542740000000  0.4942300000000  0.5930710000000 1.0
C      1  0.5185730000000  0.5842390000000  0.5254080000000 1.0
C      1  0.4073810000000  0.5112790000000  0.5613800000000 1.0
C      1  0.5801420000000  0.4296330000000  0.4633310000000 1.0
C      1  0.5155570000000  0.5569970000000  0.4265580000000 1.0
C      1  0.5693680000000  0.4299290000000  0.4361010000000 1.0
C      1  0.4474590000000  0.5105900000000  0.5704590000000 1.0
C      1  0.4534180000000  0.3931850000000  0.4507890000000 1.0
C      1  0.5977190000000  0.5446060000000  0.4750680000000 1.0
C      1  0.5601690000000  0.4672100000000  0.4832780000000 1.0
C      1  0.4838110000000  0.5513410000000  0.5450610000000 1.0
C      1  0.4613030000000  0.5986720000000  0.5232070000000 1.0
C      1  0.5190820000000  0.4834530000000  0.4287690000000 1.0
C      1  0.4923050000000  0.5930870000000  0.4455250000000 1.0
C      1  0.5185460000000  0.4532740000000  0.5347810000000 1.0
C      1  0.4508290000000  0.5318040000000  0.4078240000000 1.0
C      1  0.5069490000000  0.3825360000000  0.5024740000000 1.0
C      1  0.3973180000000  0.4416840000000  0.4936090000000 1.0
C      1  0.5055500000000  0.4581180000000  0.4183640000000 1.0
C      1  0.4430190000000  0.4851530000000  0.4069400000000 1.0
C      1  0.5718700000000  0.5622600000000  0.5601100000000 1.0
C      1  0.4754580000000  0.3831650000000  0.4645470000000 1.0
C      1  0.5234930000000  0.4375800000000  0.4698360000000 1.0
C      1  0.3929690000000  0.5000310000000  0.5398530000000 1.0
C      1  0.4373230000000  0.5869780000000  0.5366830000000 1.0
C      1  0.4483950000000  0.5775250000000  0.5605420000000 1.0
C      1  0.4653490000000  0.4106310000000  0.5031360000000 1.0
C      1  0.6103300000000  0.4470890000000  0.5355730000000 1.0
C      1  0.4957850000000  0.4004920000000  0.5473300000000 1.0
C      1  0.5236390000000  0.5511620000000  0.3964860000000 1.0
C      1  0.4499150000000  0.4256420000000  0.5559190000000 1.0
C      1  0.4488570000000  0.4908800000000  0.6049520000000 1.0
C      1  0.4402660000000  0.4569850000000  0.4153860000000 1.0
C      1  0.5463550000000  0.5119090000000  0.4871680000000 1.0
END
