TITL C-884142-5251-328 -2.88123226065678 125000 -7690.29205207147 0 0 53 (C1) n - 1
REM
REM in /home/nfs/bkarasulu/CARBON/AIRSS/Generating-Clusters/ReaxFF-fromJPCA2015/Units_Real/with-SteepDescent/Only-C1/SD-CG/Try1-3A/FIRE-CG
REM
REM
REM
REM
REM
REM ./C.cell (11c1c37f851c82e70ff6c80c92926a4b)
REM
REM compiler GCC version 9.2.1 20190827 (Red Hat 9.2.1-1)
REM options -cpp -mtune=generic -march=x86-64 -g -O0 -fpre-include=/usr/include/finclude/math-vector-fortran.h
REM seed -1403014368 265204442 1431388815 1122841965 1043104437 383655887 1490042018 1779322452 234368777 -1465739352 1969707807 103063153 -945269303 -915222250 853917038 1070840761 -86001918 -1880085372 1752680344 614624932 82460832 1450985110 35826491 -333950362 -2003552263 1503068741 -131402520 432706750 -556497337 -835415086 1941864105 211579924 -1201224584
REM
CELL 1.54180   50.00000   50.00000   50.00000   90.00000   90.00000   90.00000
LATT -1
SFAC C  
C      1  0.4500500000000  0.5104920000000  0.4358450000000 1.0
C      1  0.5342190000000  0.5310300000000  0.4445780000000 1.0
C      1  0.5148110000000  0.4490940000000  0.5509470000000 1.0
C      1  0.4719350000000  0.4953020000000  0.4213070000000 1.0
C      1  0.4869090000000  0.4820790000000  0.4711250000000 1.0
C      1  0.5049770000000  0.4300160000000  0.4798720000000 1.0
C      1  0.5277890000000  0.5873430000000  0.4961330000000 1.0
C      1  0.4820030000000  0.4232960000000  0.4985800000000 1.0
C      1  0.5620860000000  0.4885500000000  0.4707660000000 1.0
C      1  0.4790640000000  0.4680040000000  0.5566150000000 1.0
C      1  0.4745500000000  0.5381200000000  0.5550690000000 1.0
C      1  0.5252530000000  0.5439760000000  0.4717670000000 1.0
C      1  0.5414810000000  0.4914210000000  0.4524570000000 1.0
C      1  0.4925110000000  0.5267230000000  0.5774250000000 1.0
C      1  0.4565150000000  0.4368560000000  0.5046690000000 1.0
C      1  0.5439990000000  0.4960690000000  0.5253410000000 1.0
C      1  0.5168970000000  0.4854510000000  0.5176930000000 1.0
C      1  0.5395140000000  0.4357050000000  0.5482300000000 1.0
C      1  0.5597870000000  0.4448050000000  0.5259390000000 1.0
C      1  0.4477980000000  0.5315900000000  0.5437660000000 1.0
C      1  0.5039450000000  0.4684370000000  0.5380340000000 1.0
C      1  0.5119110000000  0.5736240000000  0.4750740000000 1.0
C      1  0.5182720000000  0.5163530000000  0.5689070000000 1.0
C      1  0.4550290000000  0.4741160000000  0.4681030000000 1.0
C      1  0.5586500000000  0.4378000000000  0.4958320000000 1.0
C      1  0.4420520000000  0.5032410000000  0.5352610000000 1.0
C      1  0.4393950000000  0.5149630000000  0.4819800000000 1.0
C      1  0.4706710000000  0.5267630000000  0.4491590000000 1.0
C      1  0.4539040000000  0.4560790000000  0.5256210000000 1.0
C      1  0.4439620000000  0.4504360000000  0.4792430000000 1.0
C      1  0.5672860000000  0.4668620000000  0.4910930000000 1.0
C      1  0.4910820000000  0.5028620000000  0.4448590000000 1.0
C      1  0.4572690000000  0.5364110000000  0.4731400000000 1.0
C      1  0.4879860000000  0.5731980000000  0.4933800000000 1.0
C      1  0.5015020000000  0.4997580000000  0.4975180000000 1.0
C      1  0.4532580000000  0.5475290000000  0.5206090000000 1.0
C      1  0.5645990000000  0.4723370000000  0.5192070000000 1.0
C      1  0.4381040000000  0.4966470000000  0.4595270000000 1.0
C      1  0.5223620000000  0.5051240000000  0.4385130000000 1.0
C      1  0.4632480000000  0.5563000000000  0.4950850000000 1.0
C      1  0.4517380000000  0.4760210000000  0.5448110000000 1.0
C      1  0.5516300000000  0.5362760000000  0.4648700000000 1.0
C      1  0.5114930000000  0.5450910000000  0.5204230000000 1.0
C      1  0.5072130000000  0.5736010000000  0.5158350000000 1.0
C      1  0.4786570000000  0.5089850000000  0.5137090000000 1.0
C      1  0.5396570000000  0.5067410000000  0.5572090000000 1.0
C      1  0.5346620000000  0.4265060000000  0.4852290000000 1.0
C      1  0.5473210000000  0.5176760000000  0.5056260000000 1.0
C      1  0.4963840000000  0.4563500000000  0.4746520000000 1.0
C      1  0.5216500000000  0.5279880000000  0.4984290000000 1.0
C      1  0.4500910000000  0.5035980000000  0.5074510000000 1.0
C      1  0.4901290000000  0.5296910000000  0.5317590000000 1.0
C      1  0.5627390000000  0.5167180000000  0.4817280000000 1.0
END
