TITL C-883731-9874-118 2.64933633481749 125000 -14137.1501399259 0 0 95 (C1) n - 1
REM
REM in /home/nfs/bkarasulu/CARBON/AIRSS/Generating-Clusters/ReaxFF-fromJPCA2015/Units_Real/with-SteepDescent/Only-C1/SD-CG/Try1-3A/FIRE-CG
REM
REM
REM
REM
REM
REM ./C.cell (11c1c37f851c82e70ff6c80c92926a4b)
REM
REM compiler GCC version 9.2.1 20190827 (Red Hat 9.2.1-1)
REM options -cpp -mtune=generic -march=x86-64 -g -O0 -fpre-include=/usr/include/finclude/math-vector-fortran.h
REM seed -1979876650 315505242 1405290370 827403793 -1681346912 -158798687 -1533675237 800372282 -913669030 1823414137 254791388 -981940835 -1830971820 553362132 561688365 1659241128 -1912021332 -1023397801 1255980975 748309929 1897124253 -2112062429 375407685 1522017466 1948986038 532565981 -167198143 -1361183277 -1548741919 -1877344529 123186508 492833579 -797110184
REM
CELL 1.54180   50.00000   50.00000   50.00000   90.00000   90.00000   90.00000
LATT -1
SFAC C  
C      1  0.4934410000000  0.4735920000000  0.4311480000000 1.0
C      1  0.5335120000000  0.4665210000000  0.4676230000000 1.0
C      1  0.5177920000000  0.5882450000000  0.4775310000000 1.0
C      1  0.5943180000000  0.4948650000000  0.4793390000000 1.0
C      1  0.5357990000000  0.4513070000000  0.5627730000000 1.0
C      1  0.4263150000000  0.4564670000000  0.5215300000000 1.0
C      1  0.4653430000000  0.4567980000000  0.5372740000000 1.0
C      1  0.5242380000000  0.4917170000000  0.4741680000000 1.0
C      1  0.5823630000000  0.5224360000000  0.5228290000000 1.0
C      1  0.5161530000000  0.5074460000000  0.5175510000000 1.0
C      1  0.5504580000000  0.4318780000000  0.4900630000000 1.0
C      1  0.5627290000000  0.5567470000000  0.4968540000000 1.0
C      1  0.4387590000000  0.4492370000000  0.4737000000000 1.0
C      1  0.4760680000000  0.5660710000000  0.5419250000000 1.0
C      1  0.5554710000000  0.4538850000000  0.4344180000000 1.0
C      1  0.4901250000000  0.5686010000000  0.5167190000000 1.0
C      1  0.4918010000000  0.4114200000000  0.5237890000000 1.0
C      1  0.5150570000000  0.5789060000000  0.5062640000000 1.0
C      1  0.4749950000000  0.4184600000000  0.4869190000000 1.0
C      1  0.5016330000000  0.5380520000000  0.4288440000000 1.0
C      1  0.4815180000000  0.5462040000000  0.4968740000000 1.0
C      1  0.4737410000000  0.5145680000000  0.5396740000000 1.0
C      1  0.4427960000000  0.5035470000000  0.5488470000000 1.0
C      1  0.4231040000000  0.5274200000000  0.4493170000000 1.0
C      1  0.4892380000000  0.4529880000000  0.4510540000000 1.0
C      1  0.5495910000000  0.5285340000000  0.4514250000000 1.0
C      1  0.4870890000000  0.4643000000000  0.4984790000000 1.0
C      1  0.4720600000000  0.4781170000000  0.5145380000000 1.0
C      1  0.4899790000000  0.5852360000000  0.4731240000000 1.0
C      1  0.4322810000000  0.5302870000000  0.5401700000000 1.0
C      1  0.4426230000000  0.4668700000000  0.4530560000000 1.0
C      1  0.5298090000000  0.5202870000000  0.4732480000000 1.0
C      1  0.4507030000000  0.5372700000000  0.4383710000000 1.0
C      1  0.4515360000000  0.4910390000000  0.4424690000000 1.0
C      1  0.5854870000000  0.4699520000000  0.4678690000000 1.0
C      1  0.4639780000000  0.4161230000000  0.5137960000000 1.0
C      1  0.4672650000000  0.5255250000000  0.5122830000000 1.0
C      1  0.4985430000000  0.4836740000000  0.5919250000000 1.0
C      1  0.5443390000000  0.4766940000000  0.5752950000000 1.0
C      1  0.4635250000000  0.5007260000000  0.4686910000000 1.0
C      1  0.5677650000000  0.5081670000000  0.5440470000000 1.0
C      1  0.5613640000000  0.5038100000000  0.4380430000000 1.0
C      1  0.4188040000000  0.5523390000000  0.4971560000000 1.0
C      1  0.4229510000000  0.5039670000000  0.5028780000000 1.0
C      1  0.4876630000000  0.4630050000000  0.5729640000000 1.0
C      1  0.5254320000000  0.4936660000000  0.5898270000000 1.0
C      1  0.4719990000000  0.4474010000000  0.4754980000000 1.0
C      1  0.4200710000000  0.4599350000000  0.4928560000000 1.0
C      1  0.4687290000000  0.5678590000000  0.4758180000000 1.0
C      1  0.5450630000000  0.5255740000000  0.5519020000000 1.0
C      1  0.5037570000000  0.4338920000000  0.5350750000000 1.0
C      1  0.4927340000000  0.5558060000000  0.5644310000000 1.0
C      1  0.4138260000000  0.5043960000000  0.4630700000000 1.0
C      1  0.4535170000000  0.5039880000000  0.4976430000000 1.0
C      1  0.4473160000000  0.5568790000000  0.5398940000000 1.0
C      1  0.5365490000000  0.5592240000000  0.5154490000000 1.0
C      1  0.5775680000000  0.5515340000000  0.5216310000000 1.0
C      1  0.4472300000000  0.4362270000000  0.5275410000000 1.0
C      1  0.5250050000000  0.4225000000000  0.4821370000000 1.0
C      1  0.4891250000000  0.5270090000000  0.5639080000000 1.0
C      1  0.5082000000000  0.4520070000000  0.5144660000000 1.0
C      1  0.5206080000000  0.5647390000000  0.5711400000000 1.0
C      1  0.5165590000000  0.4434040000000  0.4576850000000 1.0
C      1  0.5018550000000  0.4102690000000  0.4953770000000 1.0
C      1  0.4344420000000  0.5646020000000  0.5167020000000 1.0
C      1  0.5583100000000  0.4532840000000  0.5433720000000 1.0
C      1  0.4918960000000  0.4939900000000  0.5267990000000 1.0
C      1  0.4753620000000  0.5251660000000  0.4265400000000 1.0
C      1  0.5570800000000  0.4466180000000  0.5145580000000 1.0
C      1  0.5333330000000  0.4638290000000  0.5124340000000 1.0
C      1  0.5601430000000  0.4532390000000  0.4664640000000 1.0
C      1  0.5856360000000  0.4933870000000  0.4506120000000 1.0
C      1  0.5484130000000  0.4809430000000  0.4248550000000 1.0
C      1  0.4235200000000  0.5511860000000  0.4675350000000 1.0
C      1  0.5238450000000  0.5699900000000  0.4560000000000 1.0
C      1  0.5332570000000  0.4898620000000  0.5007900000000 1.0
C      1  0.5294940000000  0.4437430000000  0.4281890000000 1.0
C      1  0.4745500000000  0.4953230000000  0.4247740000000 1.0
C      1  0.4080890000000  0.4865480000000  0.4842200000000 1.0
C      1  0.5465480000000  0.5544480000000  0.5618350000000 1.0
C      1  0.5267860000000  0.5490230000000  0.4380210000000 1.0
C      1  0.4631480000000  0.4712570000000  0.5616140000000 1.0
C      1  0.4484100000000  0.5608400000000  0.4553580000000 1.0
C      1  0.4305620000000  0.4793280000000  0.5396310000000 1.0
C      1  0.5015740000000  0.5120010000000  0.5850710000000 1.0
C      1  0.5672650000000  0.5363940000000  0.4771570000000 1.0
C      1  0.5574160000000  0.5662500000000  0.5369470000000 1.0
C      1  0.5816310000000  0.5167790000000  0.4938160000000 1.0
C      1  0.5648970000000  0.4804710000000  0.5539110000000 1.0
C      1  0.4150230000000  0.5286210000000  0.5163590000000 1.0
C      1  0.5204810000000  0.4697650000000  0.4186280000000 1.0
C      1  0.5076890000000  0.4448600000000  0.5601570000000 1.0
C      1  0.4912880000000  0.5073820000000  0.4681340000000 1.0
C      1  0.5279420000000  0.5311010000000  0.5296340000000 1.0
C      1  0.5027050000000  0.5301590000000  0.4776760000000 1.0
END
