TITL C-883728-9229-46 2767.69165550695 125000 -16525.6265535134 0 0 111 (C1) n - 1
REM
REM in /home/nfs/bkarasulu/CARBON/AIRSS/Generating-Clusters/ReaxFF-fromJPCA2015/Units_Real/with-SteepDescent/Only-C1/SD-CG/Try1-3A/FIRE-CG
REM
REM
REM
REM
REM
REM ./C.cell (11c1c37f851c82e70ff6c80c92926a4b)
REM
REM compiler GCC version 9.2.1 20190827 (Red Hat 9.2.1-1)
REM options -cpp -mtune=generic -march=x86-64 -g -O0 -fpre-include=/usr/include/finclude/math-vector-fortran.h
REM seed -878973766 323082554 1147846337 -10649386 -1922146071 1638222710 532692067 435120803 1315025963 1742794164 -1232493251 -808015279 -1966408501 -780300370 -1403838045 361505893 -1694374649 -1643984155 402576630 1026286993 1793726516 -1679894811 270084329 776268639 736851494 1091852209 151982645 1671862133 -1439644649 -2110026903 1267230188 -1986324757 1942461709
REM
CELL 1.54180   50.00000   50.00000   50.00000   90.00000   90.00000   90.00000
LATT -1
SFAC C  
C      1  0.5193060000000  0.4905590000000  0.4677990000000 1.0
C      1  0.4925950000000  0.4658120000000  0.5030110000000 1.0
C      1  0.5588010000000  0.5771670000000  0.4954070000000 1.0
C      1  0.5395580000000  0.4975510000000  0.5815030000000 1.0
C      1  0.5943550000000  0.4581320000000  0.4990320000000 1.0
C      1  0.5174440000000  0.5456020000000  0.5722400000000 1.0
C      1  0.5494630000000  0.5266240000000  0.4084290000000 1.0
C      1  0.4677930000000  0.4979970000000  0.4866050000000 1.0
C      1  0.4502770000000  0.4914550000000  0.4225290000000 1.0
C      1  0.5170880000000  0.4621920000000  0.4257910000000 1.0
C      1  0.5041080000000  0.5828090000000  0.5062290000000 1.0
C      1  0.4825620000000  0.4589890000000  0.4640960000000 1.0
C      1  0.5418490000000  0.5001790000000  0.4032830000000 1.0
C      1  0.5150740000000  0.4970090000000  0.5975830000000 1.0
C      1  0.5304070000000  0.5364000000000  0.4327450000000 1.0
C      1  0.4870600000000  0.5170820000000  0.4458470000000 1.0
C      1  0.4823530000000  0.5375900000000  0.4111400000000 1.0
C      1  0.4281180000000  0.4603140000000  0.4508790000000 1.0
C      1  0.4727460000000  0.5220770000000  0.4711970000000 1.0
C      1  0.5475260000000  0.5407180000000  0.5258310000000 1.0
C      1  0.4686970000000  0.4661180000000  0.5190940000000 1.0
C      1  0.5478830000000  0.5494380000000  0.4543900000000 1.0
C      1  0.5517410000000  0.4610260000000  0.4656420000000 1.0
C      1  0.4897290000000  0.5386440000000  0.5802110000000 1.0
C      1  0.5447580000000  0.4955540000000  0.5057410000000 1.0
C      1  0.5330100000000  0.5212020000000  0.5096700000000 1.0
C      1  0.5004900000000  0.4648540000000  0.5574350000000 1.0
C      1  0.4630680000000  0.5868920000000  0.4591860000000 1.0
C      1  0.4800830000000  0.5485720000000  0.5348810000000 1.0
C      1  0.5849370000000  0.4377060000000  0.5136150000000 1.0
C      1  0.4018020000000  0.4862650000000  0.4724800000000 1.0
C      1  0.4373180000000  0.4357030000000  0.5414860000000 1.0
C      1  0.5041230000000  0.4179360000000  0.5480730000000 1.0
C      1  0.4894170000000  0.5122410000000  0.5921660000000 1.0
C      1  0.5467770000000  0.4874500000000  0.4789350000000 1.0
C      1  0.4370220000000  0.5757790000000  0.4681960000000 1.0
C      1  0.4070430000000  0.4696360000000  0.4950180000000 1.0
C      1  0.4415820000000  0.4205870000000  0.5142310000000 1.0
C      1  0.4832880000000  0.5225540000000  0.5245720000000 1.0
C      1  0.4671140000000  0.4327840000000  0.4667600000000 1.0
C      1  0.5893460000000  0.5714460000000  0.4964480000000 1.0
C      1  0.5575710000000  0.4231700000000  0.5140260000000 1.0
C      1  0.4927550000000  0.5856470000000  0.4570110000000 1.0
C      1  0.4724080000000  0.5009500000000  0.5705450000000 1.0
C      1  0.4505410000000  0.4454440000000  0.4409250000000 1.0
C      1  0.5137000000000  0.5818890000000  0.4792600000000 1.0
C      1  0.4686940000000  0.5162430000000  0.4227760000000 1.0
C      1  0.4959320000000  0.4940970000000  0.4913580000000 1.0
C      1  0.4210170000000  0.5576360000000  0.4840220000000 1.0
C      1  0.5129670000000  0.4868300000000  0.5451860000000 1.0
C      1  0.5479010000000  0.5699150000000  0.5215590000000 1.0
C      1  0.4624930000000  0.4643830000000  0.4224120000000 1.0
C      1  0.4591020000000  0.5795140000000  0.5536240000000 1.0
C      1  0.4786400000000  0.5674770000000  0.5107090000000 1.0
C      1  0.6042480000000  0.4795910000000  0.4837110000000 1.0
C      1  0.5683710000000  0.4312560000000  0.5392860000000 1.0
C      1  0.4219500000000  0.5347100000000  0.5371040000000 1.0
C      1  0.5310040000000  0.4300570000000  0.5044590000000 1.0
C      1  0.4322750000000  0.5555180000000  0.5160310000000 1.0
C      1  0.5933800000000  0.4869600000000  0.4557790000000 1.0
C      1  0.5104360000000  0.4617700000000  0.4678070000000 1.0
C      1  0.4094690000000  0.5110770000000  0.5244640000000 1.0
C      1  0.5602750000000  0.5305020000000  0.5506400000000 1.0
C      1  0.4659760000000  0.5483390000000  0.5617990000000 1.0
C      1  0.5959470000000  0.5460680000000  0.5084500000000 1.0
C      1  0.4126990000000  0.5089750000000  0.4593310000000 1.0
C      1  0.4296480000000  0.4894010000000  0.4419710000000 1.0
C      1  0.5691280000000  0.5330040000000  0.4597400000000 1.0
C      1  0.4222040000000  0.4496750000000  0.4783270000000 1.0
C      1  0.5046020000000  0.5178830000000  0.5065990000000 1.0
C      1  0.4291140000000  0.4804650000000  0.5624930000000 1.0
C      1  0.5515990000000  0.4446280000000  0.5594660000000 1.0
C      1  0.5190480000000  0.5651020000000  0.5522200000000 1.0
C      1  0.4226470000000  0.4860780000000  0.5143470000000 1.0
C      1  0.5560530000000  0.4741520000000  0.5677590000000 1.0
C      1  0.5319780000000  0.4786250000000  0.5235300000000 1.0
C      1  0.4704960000000  0.5472300000000  0.4858220000000 1.0
C      1  0.5285670000000  0.4294810000000  0.5542040000000 1.0
C      1  0.5906910000000  0.5161150000000  0.4650410000000 1.0
C      1  0.4243390000000  0.4573690000000  0.5532200000000 1.0
C      1  0.5188280000000  0.4553840000000  0.5118360000000 1.0
C      1  0.5374480000000  0.4484430000000  0.4424280000000 1.0
C      1  0.4515810000000  0.4864430000000  0.5072450000000 1.0
C      1  0.6018920000000  0.5079820000000  0.4920140000000 1.0
C      1  0.4073200000000  0.5217190000000  0.4992340000000 1.0
C      1  0.4432000000000  0.4320210000000  0.4873260000000 1.0
C      1  0.5220260000000  0.4903270000000  0.4191190000000 1.0
C      1  0.4630420000000  0.4500140000000  0.5437240000000 1.0
C      1  0.5406090000000  0.5720860000000  0.4736450000000 1.0
C      1  0.4525780000000  0.5783520000000  0.5257940000000 1.0
C      1  0.5198990000000  0.4344000000000  0.4624060000000 1.0
C      1  0.4891050000000  0.4593270000000  0.4344330000000 1.0
C      1  0.4674990000000  0.4128460000000  0.5169960000000 1.0
C      1  0.5218680000000  0.5823680000000  0.5301840000000 1.0
C      1  0.4513600000000  0.5361580000000  0.5037080000000 1.0
C      1  0.4934830000000  0.4065120000000  0.5212890000000 1.0
C      1  0.4918600000000  0.5690290000000  0.4351420000000 1.0
C      1  0.4396630000000  0.5309260000000  0.5588500000000 1.0
C      1  0.4874120000000  0.4401760000000  0.5598570000000 1.0
C      1  0.5993470000000  0.5207590000000  0.5184960000000 1.0
C      1  0.4425830000000  0.5044230000000  0.5703840000000 1.0
C      1  0.5830100000000  0.5125730000000  0.5432490000000 1.0
C      1  0.4203680000000  0.5302680000000  0.4790840000000 1.0
C      1  0.4876330000000  0.5026510000000  0.5453410000000 1.0
C      1  0.5084950000000  0.4119130000000  0.4953520000000 1.0
C      1  0.5721750000000  0.4900500000000  0.5539750000000 1.0
C      1  0.5146820000000  0.5096740000000  0.4423210000000 1.0
C      1  0.5402650000000  0.5247240000000  0.5708150000000 1.0
C      1  0.5061110000000  0.5518860000000  0.4187370000000 1.0
C      1  0.5712890000000  0.4708710000000  0.4499580000000 1.0
C      1  0.4957890000000  0.4198210000000  0.4706350000000 1.0
END
