TITL C-883733-4178-42 -547521.89282947 125000 -5680.90453850177 0 0 40 (C1) n - 1
REM
REM in /home/nfs/bkarasulu/CARBON/AIRSS/Generating-Clusters/ReaxFF-fromJPCA2015/Units_Real/with-SteepDescent/Only-C1/SD-CG/Try1-3A/FIRE-CG
REM
REM
REM
REM
REM
REM ./C.cell (11c1c37f851c82e70ff6c80c92926a4b)
REM
REM compiler GCC version 9.2.1 20190827 (Red Hat 9.2.1-1)
REM options -cpp -mtune=generic -march=x86-64 -g -O0 -fpre-include=/usr/include/finclude/math-vector-fortran.h
REM seed -2074888957 -167744037 1931667731 -1929447362 -1667752746 101667637 -1908432165 -1937537977 87342554 -1268574313 -1141229087 160674794 -1505939190 434144507 -781889317 -745237406 1514762049 -1538232601 1733427622 -373203883 1911033014 1264107603 334006249 1102595762 1837699516 -793710462 -271609168 -464436454 333899624 1299297441 -1340274278 1306046041 1819910423
REM
CELL 1.54180   50.00000   50.00000   50.00000   90.00000   90.00000   90.00000
LATT -1
SFAC C  
C      1  0.5066110000000  0.4835960000000  0.4473320000000 1.0
C      1  0.5441510000000  0.5032070000000  0.4499250000000 1.0
C      1  0.5158180000000  0.4478670000000  0.5431610000000 1.0
C      1  0.4375580000000  0.4996740000000  0.4964830000000 1.0
C      1  0.4999940000000  0.4490620000000  0.4889190000000 1.0
C      1  0.4954260000000  0.4696230000000  0.5477270000000 1.0
C      1  0.4520510000000  0.4915780000000  0.4763590000000 1.0
C      1  0.5243530000000  0.5542480000000  0.5147080000000 1.0
C      1  0.4608930000000  0.4952640000000  0.5599030000000 1.0
C      1  0.5297700000000  0.4893060000000  0.4277920000000 1.0
C      1  0.4643760000000  0.5105520000000  0.4577380000000 1.0
C      1  0.4916290000000  0.4707970000000  0.4929850000000 1.0
C      1  0.4643390000000  0.4688170000000  0.4934520000000 1.0
C      1  0.4791160000000  0.5287190000000  0.4435690000000 1.0
C      1  0.4740310000000  0.5504730000000  0.5105260000000 1.0
C      1  0.5044110000000  0.4997580000000  0.5427850000000 1.0
C      1  0.4357780000000  0.4937330000000  0.5211990000000 1.0
C      1  0.4982720000000  0.5665770000000  0.5151060000000 1.0
C      1  0.5392030000000  0.4403700000000  0.4983530000000 1.0
C      1  0.5212540000000  0.4396370000000  0.4774020000000 1.0
C      1  0.5309450000000  0.5068760000000  0.5320290000000 1.0
C      1  0.4834150000000  0.5122100000000  0.5225660000000 1.0
C      1  0.5161960000000  0.5730480000000  0.4922320000000 1.0
C      1  0.5456280000000  0.4550060000000  0.4738210000000 1.0
C      1  0.4445030000000  0.5117310000000  0.5406880000000 1.0
C      1  0.5379580000000  0.4546340000000  0.5248190000000 1.0
C      1  0.5523250000000  0.4836100000000  0.4730070000000 1.0
C      1  0.5460850000000  0.4838390000000  0.5242090000000 1.0
C      1  0.5311210000000  0.5263600000000  0.5115370000000 1.0
C      1  0.5146290000000  0.5181530000000  0.4860110000000 1.0
C      1  0.5511660000000  0.4941170000000  0.4989200000000 1.0
C      1  0.5049520000000  0.4912290000000  0.4754790000000 1.0
C      1  0.4863910000000  0.5266610000000  0.4978970000000 1.0
C      1  0.4638100000000  0.5321470000000  0.5325840000000 1.0
C      1  0.5289720000000  0.5264860000000  0.4588320000000 1.0
C      1  0.4864730000000  0.5060840000000  0.5691830000000 1.0
C      1  0.4513590000000  0.4700990000000  0.5206610000000 1.0
C      1  0.5075970000000  0.5429890000000  0.4473820000000 1.0
C      1  0.5109890000000  0.5623650000000  0.4667870000000 1.0
C      1  0.4664540000000  0.4694970000000  0.5459320000000 1.0
END
