TITL C-884129-4740-43 2342965.89164546 125000 -29739.3906399852 0 0 200 (C1) n - 1
REM
REM in /home/nfs/bkarasulu/CARBON/AIRSS/Generating-Clusters/ReaxFF-fromJPCA2015/Units_Real/with-SteepDescent/Only-C1/SD-CG/Try1-3A/FIRE-CG
REM
REM
REM
REM
REM
REM ./C.cell (11c1c37f851c82e70ff6c80c92926a4b)
REM
REM compiler GCC version 9.2.1 20190827 (Red Hat 9.2.1-1)
REM options -cpp -mtune=generic -march=x86-64 -g -O0 -fpre-include=/usr/include/finclude/math-vector-fortran.h
REM seed -994364749 1911757323 -324635153 1490317806 -453960762 -576196043 -385314212 -375130589 -29547459 -751995806 -649186809 -663492126 878098216 -1349447462 129789216 -1716596617 1681060246 -1213805862 752610241 -1171986508 -885593966 223846888 -903300209 348305172 -1799179499 -1283886274 1444463645 -1868714177 -1790800820 -1037291131 914620067 23715063 -52672701
REM
CELL 1.54180   50.00000   50.00000   50.00000   90.00000   90.00000   90.00000
LATT -1
SFAC C  
C      1  0.4112220000000  0.4557160000000  0.4651920000000 1.0
C      1  0.5091100000000  0.5966220000000  0.5495770000000 1.0
C      1  0.4734400000000  0.5247250000000  0.5387450000000 1.0
C      1  0.4923740000000  0.3938760000000  0.4507900000000 1.0
C      1  0.4486890000000  0.3978500000000  0.5043170000000 1.0
C      1  0.5192960000000  0.4095070000000  0.5646530000000 1.0
C      1  0.5433860000000  0.4586510000000  0.5229480000000 1.0
C      1  0.5211440000000  0.4715580000000  0.4545500000000 1.0
C      1  0.5787950000000  0.5479390000000  0.5773990000000 1.0
C      1  0.5489010000000  0.4582880000000  0.6159770000000 1.0
C      1  0.4989680000000  0.6021580000000  0.4532080000000 1.0
C      1  0.5777550000000  0.5210490000000  0.5917240000000 1.0
C      1  0.5269270000000  0.5356050000000  0.5028310000000 1.0
C      1  0.5287770000000  0.4988630000000  0.4538830000000 1.0
C      1  0.4551840000000  0.4420670000000  0.4813390000000 1.0
C      1  0.4637850000000  0.4882030000000  0.3923840000000 1.0
C      1  0.5638580000000  0.5245640000000  0.4726290000000 1.0
C      1  0.5811920000000  0.4783130000000  0.5216060000000 1.0
C      1  0.4734030000000  0.5912290000000  0.5199980000000 1.0
C      1  0.4960510000000  0.5218280000000  0.5888330000000 1.0
C      1  0.4627870000000  0.5665610000000  0.5153110000000 1.0
C      1  0.5122360000000  0.5992300000000  0.5199250000000 1.0
C      1  0.4443430000000  0.5314750000000  0.6047140000000 1.0
C      1  0.5635830000000  0.4639160000000  0.5036390000000 1.0
C      1  0.4305350000000  0.5755280000000  0.4592290000000 1.0
C      1  0.4621780000000  0.4832430000000  0.5103280000000 1.0
C      1  0.4568960000000  0.5376650000000  0.4370230000000 1.0
C      1  0.5151910000000  0.4487430000000  0.4790380000000 1.0
C      1  0.4725680000000  0.4536820000000  0.4584620000000 1.0
C      1  0.3947160000000  0.5184250000000  0.5486900000000 1.0
C      1  0.5270090000000  0.5524890000000  0.4820440000000 1.0
C      1  0.4824310000000  0.5917980000000  0.5625300000000 1.0
C      1  0.4138270000000  0.4316540000000  0.5233930000000 1.0
C      1  0.4245900000000  0.4149260000000  0.5024080000000 1.0
C      1  0.4685280000000  0.4398850000000  0.4331820000000 1.0
C      1  0.5922790000000  0.5312600000000  0.4520200000000 1.0
C      1  0.5020080000000  0.4569580000000  0.5030600000000 1.0
C      1  0.4671410000000  0.5022430000000  0.5540960000000 1.0
C      1  0.4906450000000  0.4562580000000  0.3915010000000 1.0
C      1  0.4139970000000  0.4814510000000  0.4159970000000 1.0
C      1  0.4253810000000  0.4493030000000  0.5764120000000 1.0
C      1  0.5389440000000  0.4986780000000  0.3836910000000 1.0
C      1  0.5565670000000  0.5805520000000  0.5274260000000 1.0
C      1  0.4174510000000  0.4908940000000  0.5277670000000 1.0
C      1  0.4625150000000  0.5113620000000  0.6173160000000 1.0
C      1  0.5590530000000  0.5829100000000  0.4974090000000 1.0
C      1  0.5878460000000  0.5126020000000  0.5510560000000 1.0
C      1  0.5102770000000  0.3813320000000  0.5311240000000 1.0
C      1  0.4702830000000  0.3860080000000  0.5208310000000 1.0
C      1  0.4395740000000  0.5996340000000  0.5008570000000 1.0
C      1  0.5574010000000  0.4789910000000  0.3984160000000 1.0
C      1  0.4220600000000  0.5201740000000  0.5877310000000 1.0
C      1  0.5004750000000  0.4917430000000  0.4821870000000 1.0
C      1  0.4225810000000  0.4307820000000  0.5549550000000 1.0
C      1  0.5119510000000  0.6062990000000  0.4785950000000 1.0
C      1  0.4770230000000  0.5751910000000  0.5886830000000 1.0
C      1  0.5597490000000  0.4720230000000  0.4755740000000 1.0
C      1  0.5417970000000  0.5415090000000  0.4598250000000 1.0
C      1  0.4724170000000  0.4790450000000  0.5386200000000 1.0
C      1  0.6158990000000  0.5306540000000  0.4885160000000 1.0
C      1  0.5368110000000  0.5851930000000  0.5503910000000 1.0
C      1  0.5455140000000  0.4385890000000  0.5427370000000 1.0
C      1  0.4515390000000  0.4656970000000  0.5502960000000 1.0
C      1  0.5166590000000  0.4711210000000  0.5234390000000 1.0
C      1  0.4871670000000  0.4459380000000  0.5868630000000 1.0
C      1  0.4440620000000  0.5626200000000  0.5554190000000 1.0
C      1  0.4912240000000  0.5113570000000  0.6164230000000 1.0
C      1  0.4047530000000  0.4524690000000  0.5069730000000 1.0
C      1  0.6101410000000  0.4866020000000  0.5224980000000 1.0
C      1  0.4395880000000  0.4369360000000  0.4299070000000 1.0
C      1  0.5035890000000  0.4923540000000  0.4147840000000 1.0
C      1  0.5753630000000  0.4944250000000  0.4164010000000 1.0
C      1  0.5706610000000  0.5322820000000  0.5004840000000 1.0
C      1  0.5775200000000  0.5687880000000  0.4787080000000 1.0
C      1  0.4549700000000  0.5591000000000  0.6009490000000 1.0
C      1  0.4724340000000  0.4794690000000  0.4454900000000 1.0
C      1  0.5017290000000  0.5195280000000  0.5316140000000 1.0
C      1  0.4612590000000  0.5996830000000  0.5444090000000 1.0
C      1  0.4523210000000  0.5152610000000  0.3893890000000 1.0
C      1  0.5194530000000  0.5244460000000  0.4441880000000 1.0
C      1  0.4631850000000  0.3986730000000  0.4535340000000 1.0
C      1  0.3993780000000  0.4709050000000  0.4873140000000 1.0
C      1  0.4580310000000  0.4408810000000  0.5363260000000 1.0
C      1  0.6185990000000  0.4781140000000  0.4962610000000 1.0
C      1  0.5541010000000  0.5554900000000  0.5920480000000 1.0
C      1  0.4190990000000  0.5048400000000  0.4514650000000 1.0
C      1  0.4908940000000  0.4029620000000  0.5684730000000 1.0
C      1  0.4327220000000  0.4701830000000  0.5934950000000 1.0
C      1  0.5268790000000  0.4368860000000  0.5634690000000 1.0
C      1  0.4128880000000  0.5753580000000  0.5319380000000 1.0
C      1  0.4520860000000  0.5855930000000  0.4424090000000 1.0
C      1  0.4716580000000  0.4225610000000  0.5778790000000 1.0
C      1  0.4165840000000  0.5615590000000  0.5577500000000 1.0
C      1  0.4980220000000  0.4647580000000  0.5422500000000 1.0
C      1  0.5068420000000  0.5732590000000  0.4108980000000 1.0
C      1  0.5764760000000  0.5628110000000  0.5388040000000 1.0
C      1  0.4696000000000  0.5276380000000  0.4911350000000 1.0
C      1  0.4802960000000  0.5618510000000  0.4030030000000 1.0
C      1  0.5313480000000  0.5080750000000  0.5005740000000 1.0
C      1  0.4389290000000  0.4152750000000  0.4491080000000 1.0
C      1  0.5891160000000  0.4530350000000  0.5513640000000 1.0
C      1  0.5412340000000  0.5853840000000  0.4496330000000 1.0
C      1  0.5941670000000  0.4404370000000  0.5254100000000 1.0
C      1  0.4850120000000  0.3844090000000  0.5465120000000 1.0
C      1  0.6125520000000  0.5127830000000  0.5342760000000 1.0
C      1  0.4353420000000  0.4896740000000  0.5040640000000 1.0
C      1  0.4999040000000  0.5159560000000  0.3970970000000 1.0
C      1  0.5170300000000  0.5449030000000  0.5293520000000 1.0
C      1  0.5765630000000  0.4182710000000  0.5152870000000 1.0
C      1  0.5494560000000  0.5268600000000  0.5977840000000 1.0
C      1  0.5280390000000  0.5152230000000  0.5799120000000 1.0
C      1  0.4198100000000  0.4916770000000  0.5794420000000 1.0
C      1  0.5020490000000  0.5661990000000  0.4867050000000 1.0
C      1  0.5156050000000  0.4270990000000  0.4198920000000 1.0
C      1  0.5393890000000  0.5945970000000  0.4769290000000 1.0
C      1  0.5332280000000  0.3952820000000  0.5433740000000 1.0
C      1  0.6136870000000  0.5356650000000  0.5168310000000 1.0
C      1  0.4080780000000  0.5329540000000  0.4480170000000 1.0
C      1  0.5916220000000  0.4402290000000  0.4755740000000 1.0
C      1  0.5433430000000  0.4091040000000  0.4444490000000 1.0
C      1  0.4846100000000  0.5457170000000  0.4755130000000 1.0
C      1  0.4272600000000  0.4293470000000  0.4739800000000 1.0
C      1  0.5141570000000  0.4984990000000  0.5190650000000 1.0
C      1  0.5877490000000  0.4563400000000  0.4517240000000 1.0
C      1  0.4887650000000  0.5318150000000  0.4501710000000 1.0
C      1  0.3898940000000  0.5019610000000  0.4978680000000 1.0
C      1  0.4737660000000  0.5345690000000  0.3952930000000 1.0
C      1  0.4594920000000  0.4872310000000  0.4219160000000 1.0
C      1  0.5354360000000  0.5635820000000  0.5707150000000 1.0
C      1  0.5468190000000  0.5242910000000  0.3956970000000 1.0
C      1  0.5878030000000  0.4981320000000  0.5770740000000 1.0
C      1  0.5359510000000  0.5377530000000  0.5571870000000 1.0
C      1  0.5069510000000  0.4840200000000  0.6117440000000 1.0
C      1  0.5685910000000  0.4980850000000  0.5360390000000 1.0
C      1  0.5461910000000  0.4377870000000  0.4307560000000 1.0
C      1  0.5479440000000  0.4110810000000  0.4730630000000 1.0
C      1  0.5523890000000  0.4703040000000  0.5881640000000 1.0
C      1  0.4702120000000  0.5514770000000  0.5548090000000 1.0
C      1  0.4949520000000  0.3819750000000  0.5064290000000 1.0
C      1  0.6053240000000  0.5032810000000  0.4529230000000 1.0
C      1  0.4424350000000  0.5509130000000  0.5104100000000 1.0
C      1  0.4638690000000  0.5041560000000  0.4779580000000 1.0
C      1  0.4354020000000  0.5947090000000  0.5307550000000 1.0
C      1  0.4831770000000  0.5018840000000  0.4586060000000 1.0
C      1  0.4639220000000  0.6090050000000  0.4861100000000 1.0
C      1  0.4884360000000  0.4794570000000  0.3768210000000 1.0
C      1  0.3901960000000  0.5289250000000  0.4691050000000 1.0
C      1  0.4281800000000  0.5067710000000  0.4040650000000 1.0
C      1  0.5090180000000  0.4589100000000  0.5684350000000 1.0
C      1  0.4285250000000  0.4827720000000  0.5518840000000 1.0
C      1  0.5266910000000  0.4700610000000  0.6312750000000 1.0
C      1  0.4908500000000  0.6127810000000  0.4996400000000 1.0
C      1  0.5069950000000  0.4687620000000  0.4275920000000 1.0
C      1  0.5468600000000  0.4589310000000  0.4531590000000 1.0
C      1  0.4886880000000  0.5514230000000  0.5770230000000 1.0
C      1  0.5257320000000  0.5567990000000  0.4080210000000 1.0
C      1  0.4763430000000  0.5017220000000  0.5794480000000 1.0
C      1  0.4930900000000  0.4428810000000  0.4144100000000 1.0
C      1  0.5272410000000  0.4845720000000  0.5835210000000 1.0
C      1  0.4048580000000  0.5347090000000  0.5691190000000 1.0
C      1  0.4812440000000  0.4723090000000  0.4919520000000 1.0
C      1  0.5073370000000  0.5713440000000  0.5143890000000 1.0
C      1  0.5918700000000  0.4818690000000  0.4379940000000 1.0
C      1  0.4699990000000  0.6023370000000  0.4579280000000 1.0
C      1  0.4835870000000  0.4656830000000  0.6068150000000 1.0
C      1  0.5115290000000  0.4981650000000  0.3742740000000 1.0
C      1  0.4201280000000  0.4584050000000  0.4370570000000 1.0
C      1  0.5792950000000  0.4706040000000  0.5731850000000 1.0
C      1  0.4560390000000  0.5269850000000  0.5153890000000 1.0
C      1  0.5761480000000  0.5439490000000  0.4311090000000 1.0
C      1  0.4662710000000  0.3980080000000  0.4817440000000 1.0
C      1  0.5621340000000  0.5641700000000  0.4489260000000 1.0
C      1  0.5564840000000  0.5131180000000  0.5162950000000 1.0
C      1  0.5695520000000  0.5223740000000  0.4134890000000 1.0
C      1  0.3947810000000  0.5306180000000  0.4963930000000 1.0
C      1  0.5885160000000  0.5513570000000  0.5142320000000 1.0
C      1  0.5484190000000  0.4994360000000  0.4731210000000 1.0
C      1  0.5546280000000  0.4507300000000  0.4042600000000 1.0
C      1  0.4497830000000  0.4209820000000  0.5575350000000 1.0
C      1  0.5730960000000  0.4193520000000  0.4866470000000 1.0
C      1  0.4354640000000  0.4978880000000  0.4762940000000 1.0
C      1  0.5154700000000  0.4036140000000  0.4354840000000 1.0
C      1  0.4225000000000  0.5808720000000  0.4871520000000 1.0
C      1  0.6171240000000  0.5022740000000  0.4784820000000 1.0
C      1  0.5160120000000  0.5873580000000  0.4338980000000 1.0
C      1  0.6002980000000  0.5508670000000  0.4740620000000 1.0
C      1  0.5253720000000  0.5332250000000  0.4117110000000 1.0
C      1  0.4579050000000  0.4416650000000  0.5079900000000 1.0
C      1  0.3885270000000  0.5006600000000  0.5274890000000 1.0
C      1  0.4121430000000  0.5593350000000  0.5057560000000 1.0
C      1  0.4613440000000  0.4852120000000  0.6003270000000 1.0
C      1  0.5209280000000  0.4209760000000  0.4804240000000 1.0
C      1  0.4330540000000  0.5475970000000  0.4515320000000 1.0
C      1  0.4973410000000  0.3973170000000  0.4806140000000 1.0
C      1  0.4419760000000  0.5092990000000  0.4285710000000 1.0
C      1  0.3932460000000  0.4894840000000  0.4336910000000 1.0
C      1  0.5676080000000  0.5394440000000  0.5526850000000 1.0
C      1  0.4591580000000  0.5641010000000  0.4224190000000 1.0
C      1  0.6052590000000  0.4522750000000  0.4992500000000 1.0
C      1  0.5550810000000  0.4123890000000  0.5343800000000 1.0
END
