TITL C-884138-6203-380 -1.82287977397158 125000 -9120.08301225869 0 0 62 (C1) n - 1
REM
REM in /home/nfs/bkarasulu/CARBON/AIRSS/Generating-Clusters/ReaxFF-fromJPCA2015/Units_Real/with-SteepDescent/Only-C1/SD-CG/Try1-3A/FIRE-CG
REM
REM
REM
REM
REM
REM ./C.cell (11c1c37f851c82e70ff6c80c92926a4b)
REM
REM compiler GCC version 9.2.1 20190827 (Red Hat 9.2.1-1)
REM options -cpp -mtune=generic -march=x86-64 -g -O0 -fpre-include=/usr/include/finclude/math-vector-fortran.h
REM seed -1731468985 2145412412 -190404710 978496067 -1218386366 1415368430 -228518224 -414100340 -1949718459 -2034943572 1489694120 1130357364 1045219588 1085996600 -936639065 -539063455 -1066323669 1303153345 1482628717 -289760326 -1297988395 502265401 1106846892 -1284166090 1973126897 -62997239 521431671 -1779351661 -120048687 1531683474 212506552 -463317560 725452957
REM
CELL 1.54180   50.00000   50.00000   50.00000   90.00000   90.00000   90.00000
LATT -1
SFAC C  
C      1  0.4886410000000  0.5331490000000  0.5018180000000 1.0
C      1  0.5069130000000  0.4731750000000  0.5084430000000 1.0
C      1  0.5113210000000  0.4901280000000  0.5576330000000 1.0
C      1  0.4931860000000  0.4784520000000  0.4407960000000 1.0
C      1  0.4787300000000  0.4373950000000  0.4670330000000 1.0
C      1  0.5058090000000  0.4346330000000  0.4663200000000 1.0
C      1  0.5156080000000  0.5208840000000  0.4588340000000 1.0
C      1  0.4439850000000  0.5423770000000  0.4782170000000 1.0
C      1  0.5125860000000  0.4470000000000  0.5405970000000 1.0
C      1  0.5370040000000  0.5040360000000  0.5572360000000 1.0
C      1  0.4483720000000  0.4399760000000  0.5174630000000 1.0
C      1  0.5608090000000  0.5274460000000  0.5039240000000 1.0
C      1  0.4647220000000  0.4702000000000  0.4459860000000 1.0
C      1  0.5532910000000  0.4822990000000  0.5459640000000 1.0
C      1  0.5098270000000  0.5607300000000  0.4546380000000 1.0
C      1  0.5054270000000  0.5309640000000  0.5517100000000 1.0
C      1  0.4417900000000  0.5317200000000  0.5440620000000 1.0
C      1  0.5310390000000  0.5437690000000  0.4484910000000 1.0
C      1  0.5488860000000  0.4488730000000  0.4869240000000 1.0
C      1  0.4635510000000  0.5213590000000  0.4964830000000 1.0
C      1  0.4994350000000  0.4891710000000  0.5314450000000 1.0
C      1  0.5122080000000  0.5192280000000  0.4900360000000 1.0
C      1  0.4855140000000  0.4828840000000  0.5694720000000 1.0
C      1  0.4681050000000  0.5192250000000  0.4436800000000 1.0
C      1  0.5726500000000  0.5013630000000  0.4995690000000 1.0
C      1  0.5238680000000  0.4334200000000  0.4891430000000 1.0
C      1  0.5311460000000  0.4717020000000  0.4555670000000 1.0
C      1  0.4551080000000  0.4502700000000  0.4659280000000 1.0
C      1  0.5730410000000  0.5168110000000  0.4536870000000 1.0
C      1  0.5300660000000  0.5277140000000  0.5397020000000 1.0
C      1  0.4807550000000  0.5556750000000  0.5179150000000 1.0
C      1  0.4909000000000  0.5739570000000  0.4968110000000 1.0
C      1  0.4636460000000  0.5498720000000  0.5414650000000 1.0
C      1  0.5729150000000  0.4930560000000  0.4717890000000 1.0
C      1  0.4872570000000  0.4565450000000  0.5542360000000 1.0
C      1  0.4627270000000  0.4567680000000  0.5383600000000 1.0
C      1  0.4856840000000  0.5662880000000  0.4674840000000 1.0
C      1  0.4636440000000  0.5459400000000  0.4582860000000 1.0
C      1  0.5557140000000  0.4684780000000  0.4655750000000 1.0
C      1  0.5081450000000  0.4664360000000  0.4599450000000 1.0
C      1  0.5083060000000  0.4440620000000  0.5118080000000 1.0
C      1  0.4704040000000  0.4985610000000  0.4818060000000 1.0
C      1  0.4655960000000  0.5046960000000  0.5653920000000 1.0
C      1  0.5689240000000  0.4813670000000  0.5204180000000 1.0
C      1  0.4545090000000  0.5041540000000  0.5175110000000 1.0
C      1  0.5438320000000  0.5643730000000  0.5006230000000 1.0
C      1  0.5600360000000  0.5429180000000  0.4583840000000 1.0
C      1  0.4395850000000  0.4542550000000  0.4932840000000 1.0
C      1  0.5639360000000  0.5497520000000  0.4867770000000 1.0
C      1  0.5334310000000  0.5257940000000  0.5098910000000 1.0
C      1  0.5188910000000  0.5714240000000  0.4998660000000 1.0
C      1  0.4979680000000  0.4881430000000  0.4849620000000 1.0
C      1  0.5577360000000  0.4547310000000  0.5145920000000 1.0
C      1  0.4428120000000  0.4935040000000  0.4762120000000 1.0
C      1  0.4794020000000  0.5320730000000  0.5614650000000 1.0
C      1  0.5409870000000  0.4559730000000  0.5396000000000 1.0
C      1  0.4380420000000  0.5048650000000  0.5530530000000 1.0
C      1  0.4499500000000  0.4957000000000  0.4475100000000 1.0
C      1  0.4286190000000  0.4809430000000  0.4987870000000 1.0
C      1  0.4708040000000  0.4838120000000  0.5287620000000 1.0
C      1  0.4276220000000  0.4970100000000  0.5244350000000 1.0
C      1  0.4945840000000  0.5085230000000  0.4421980000000 1.0
END
