TITL C-884132-5695-173 0.590296901385235 125000 -16337.6037380391 0 0 110 (C1) n - 1
REM
REM in /home/nfs/bkarasulu/CARBON/AIRSS/Generating-Clusters/ReaxFF-fromJPCA2015/Units_Real/with-SteepDescent/Only-C1/SD-CG/Try1-3A/FIRE-CG
REM
REM
REM
REM
REM
REM ./C.cell (11c1c37f851c82e70ff6c80c92926a4b)
REM
REM compiler GCC version 9.2.1 20190827 (Red Hat 9.2.1-1)
REM options -cpp -mtune=generic -march=x86-64 -g -O0 -fpre-include=/usr/include/finclude/math-vector-fortran.h
REM seed -1809811715 1132816523 -892440384 1091678751 732703513 1427332240 633749786 -717334232 -1463206645 64744108 -2087211286 1799332053 -527629941 150396601 -858455444 -1166887633 732639466 674726759 1412727109 1806013855 798527985 -1464331076 1155451966 -619469302 -783628391 886442036 -1701089005 1839112907 40995401 923243629 -1137640373 741538755 -2066575213
REM
CELL 1.54180   50.00000   50.00000   50.00000   90.00000   90.00000   90.00000
LATT -1
SFAC C  
C      1  0.4981570000000  0.5690080000000  0.4691260000000 1.0
C      1  0.4910920000000  0.5023400000000  0.5022960000000 1.0
C      1  0.4807000000000  0.5333000000000  0.5854080000000 1.0
C      1  0.4439950000000  0.4393840000000  0.5221760000000 1.0
C      1  0.5327990000000  0.5884950000000  0.4767580000000 1.0
C      1  0.5832140000000  0.5044730000000  0.5576970000000 1.0
C      1  0.4217860000000  0.4985620000000  0.5528500000000 1.0
C      1  0.5062410000000  0.4490350000000  0.5672970000000 1.0
C      1  0.4954330000000  0.5735980000000  0.5588660000000 1.0
C      1  0.4526110000000  0.5261820000000  0.5887050000000 1.0
C      1  0.4086200000000  0.4655200000000  0.5129580000000 1.0
C      1  0.5158070000000  0.4323630000000  0.5449430000000 1.0
C      1  0.4946110000000  0.5102450000000  0.4032700000000 1.0
C      1  0.4536300000000  0.4745710000000  0.4250410000000 1.0
C      1  0.4741970000000  0.5667630000000  0.4526070000000 1.0
C      1  0.5717020000000  0.4727880000000  0.5245790000000 1.0
C      1  0.4463600000000  0.5406620000000  0.5316090000000 1.0
C      1  0.4474390000000  0.5194980000000  0.4522910000000 1.0
C      1  0.4830360000000  0.4898450000000  0.5895160000000 1.0
C      1  0.4944530000000  0.4995520000000  0.4551870000000 1.0
C      1  0.5275480000000  0.4194090000000  0.4757420000000 1.0
C      1  0.4556350000000  0.4977540000000  0.5960170000000 1.0
C      1  0.4981800000000  0.5245730000000  0.5454730000000 1.0
C      1  0.5133400000000  0.5502060000000  0.5549990000000 1.0
C      1  0.5221120000000  0.5542770000000  0.4375400000000 1.0
C      1  0.5482450000000  0.4396570000000  0.4798250000000 1.0
C      1  0.4777320000000  0.4886510000000  0.4820740000000 1.0
C      1  0.5541270000000  0.4499690000000  0.5201180000000 1.0
C      1  0.5014080000000  0.5119750000000  0.5849660000000 1.0
C      1  0.4672990000000  0.4411950000000  0.4761690000000 1.0
C      1  0.4507670000000  0.5741460000000  0.4998600000000 1.0
C      1  0.4357570000000  0.5412800000000  0.4677010000000 1.0
C      1  0.5390840000000  0.4422570000000  0.4328640000000 1.0
C      1  0.5559840000000  0.4613860000000  0.5661840000000 1.0
C      1  0.5256970000000  0.5079900000000  0.4062830000000 1.0
C      1  0.4528510000000  0.5645330000000  0.4718190000000 1.0
C      1  0.5156460000000  0.4772260000000  0.5662320000000 1.0
C      1  0.4035990000000  0.4899980000000  0.4985800000000 1.0
C      1  0.4215780000000  0.4503190000000  0.5561870000000 1.0
C      1  0.5812180000000  0.5194460000000  0.5096330000000 1.0
C      1  0.4937260000000  0.4787730000000  0.4321770000000 1.0
C      1  0.5885740000000  0.4718030000000  0.4689120000000 1.0
C      1  0.4342380000000  0.5546160000000  0.5094980000000 1.0
C      1  0.5349880000000  0.5099200000000  0.5801460000000 1.0
C      1  0.5373120000000  0.4910230000000  0.4941130000000 1.0
C      1  0.5285570000000  0.4648090000000  0.4501120000000 1.0
C      1  0.5296200000000  0.5637430000000  0.4950790000000 1.0
C      1  0.5061320000000  0.5957450000000  0.4860770000000 1.0
C      1  0.4732950000000  0.5593060000000  0.5712290000000 1.0
C      1  0.5645130000000  0.5447270000000  0.5486400000000 1.0
C      1  0.5583760000000  0.5210130000000  0.5670630000000 1.0
C      1  0.5357620000000  0.4919180000000  0.4523450000000 1.0
C      1  0.5432730000000  0.4427340000000  0.5467740000000 1.0
C      1  0.4552910000000  0.5645310000000  0.5486480000000 1.0
C      1  0.4838430000000  0.5365320000000  0.4052270000000 1.0
C      1  0.5560800000000  0.5535480000000  0.4956450000000 1.0
C      1  0.5395410000000  0.5537590000000  0.5471350000000 1.0
C      1  0.4875320000000  0.4616740000000  0.4828910000000 1.0
C      1  0.5463230000000  0.5412920000000  0.4448200000000 1.0
C      1  0.5227250000000  0.5079330000000  0.4726440000000 1.0
C      1  0.4891740000000  0.5463080000000  0.4355410000000 1.0
C      1  0.4527040000000  0.4823100000000  0.4966630000000 1.0
C      1  0.5828060000000  0.5221780000000  0.4779430000000 1.0
C      1  0.4914400000000  0.5303810000000  0.5001140000000 1.0
C      1  0.4432240000000  0.4445920000000  0.4745480000000 1.0
C      1  0.5630290000000  0.4740980000000  0.4182310000000 1.0
C      1  0.4899960000000  0.4586490000000  0.5146120000000 1.0
C      1  0.4638910000000  0.5800210000000  0.5254400000000 1.0
C      1  0.4282740000000  0.4870680000000  0.4826890000000 1.0
C      1  0.4231480000000  0.5193060000000  0.5339500000000 1.0
C      1  0.5401050000000  0.4812700000000  0.5817310000000 1.0
C      1  0.5607690000000  0.4956150000000  0.5097670000000 1.0
C      1  0.4421110000000  0.4316620000000  0.5524070000000 1.0
C      1  0.5672830000000  0.4488210000000  0.4329350000000 1.0
C      1  0.5775700000000  0.4751670000000  0.5531310000000 1.0
C      1  0.5993860000000  0.5128980000000  0.5357990000000 1.0
C      1  0.4315840000000  0.4938440000000  0.4539160000000 1.0
C      1  0.4261200000000  0.4447210000000  0.4997940000000 1.0
C      1  0.5720310000000  0.4480290000000  0.4619950000000 1.0
C      1  0.4401350000000  0.4663250000000  0.4490150000000 1.0
C      1  0.4762990000000  0.4856410000000  0.4105810000000 1.0
C      1  0.4783310000000  0.5318810000000  0.5257530000000 1.0
C      1  0.5636810000000  0.5415670000000  0.4709150000000 1.0
C      1  0.5264580000000  0.4174060000000  0.4463130000000 1.0
C      1  0.5033730000000  0.4161880000000  0.4940390000000 1.0
C      1  0.4888660000000  0.4492350000000  0.4368470000000 1.0
C      1  0.5074800000000  0.4967180000000  0.5456740000000 1.0
C      1  0.5117670000000  0.5419330000000  0.4833160000000 1.0
C      1  0.4913760000000  0.5872710000000  0.5325140000000 1.0
C      1  0.5008060000000  0.4300350000000  0.5197060000000 1.0
C      1  0.4197000000000  0.5387460000000  0.4920820000000 1.0
C      1  0.5452150000000  0.5217180000000  0.4240730000000 1.0
C      1  0.5384160000000  0.4613220000000  0.4975370000000 1.0
C      1  0.5019570000000  0.4245410000000  0.4339240000000 1.0
C      1  0.4100830000000  0.4718130000000  0.5421680000000 1.0
C      1  0.5838580000000  0.4997820000000  0.4602280000000 1.0
C      1  0.4591940000000  0.4638360000000  0.5174970000000 1.0
C      1  0.4093720000000  0.5170960000000  0.5088990000000 1.0
C      1  0.4813360000000  0.4593430000000  0.5795350000000 1.0
C      1  0.5403920000000  0.4827530000000  0.4006500000000 1.0
C      1  0.5215390000000  0.5797480000000  0.4509850000000 1.0
C      1  0.4763330000000  0.5216700000000  0.4485590000000 1.0
C      1  0.5618860000000  0.4985750000000  0.4370350000000 1.0
C      1  0.5051460000000  0.4533150000000  0.4616980000000 1.0
C      1  0.4998250000000  0.4853770000000  0.5218000000000 1.0
C      1  0.4764700000000  0.4225800000000  0.4868770000000 1.0
C      1  0.5679790000000  0.5440220000000  0.5189310000000 1.0
C      1  0.5122260000000  0.5885780000000  0.5127570000000 1.0
C      1  0.4593090000000  0.4469020000000  0.5692610000000 1.0
C      1  0.4331590000000  0.5053150000000  0.5790030000000 1.0
END
