TITL C-884130-5973-267 23.968713750192 125000 -13427.4184548245 0 0 91 (C1) n - 1
REM
REM in /home/nfs/bkarasulu/CARBON/AIRSS/Generating-Clusters/ReaxFF-fromJPCA2015/Units_Real/with-SteepDescent/Only-C1/SD-CG/Try1-3A/FIRE-CG
REM
REM
REM
REM
REM
REM ./C.cell (11c1c37f851c82e70ff6c80c92926a4b)
REM
REM compiler GCC version 9.2.1 20190827 (Red Hat 9.2.1-1)
REM options -cpp -mtune=generic -march=x86-64 -g -O0 -fpre-include=/usr/include/finclude/math-vector-fortran.h
REM seed -1566403248 292282319 214898186 820729359 -1650427953 -889638900 -209639824 -833867236 -1361196286 790603368 780673609 1807105726 -304797929 471754771 -89702197 -1930692548 1396887184 -1889962415 -481565259 -139887772 1070370533 -1110937761 -1445953476 1710439083 132482917 -537458063 -584787757 1350277375 -626907144 10893659 1391930358 -562259329 -34911424
REM
CELL 1.54180   50.00000   50.00000   50.00000   90.00000   90.00000   90.00000
LATT -1
SFAC C  
C      1  0.4908900000000  0.4861030000000  0.5724470000000 1.0
C      1  0.5360730000000  0.4644090000000  0.4541980000000 1.0
C      1  0.5058160000000  0.4976230000000  0.5366250000000 1.0
C      1  0.4318430000000  0.4911280000000  0.4758110000000 1.0
C      1  0.4856270000000  0.5764310000000  0.5026120000000 1.0
C      1  0.4798970000000  0.5180180000000  0.4177620000000 1.0
C      1  0.5423530000000  0.4793880000000  0.5155460000000 1.0
C      1  0.4740520000000  0.4903420000000  0.4118680000000 1.0
C      1  0.5234210000000  0.4395800000000  0.4444120000000 1.0
C      1  0.4435490000000  0.5651720000000  0.4690400000000 1.0
C      1  0.5197680000000  0.5337080000000  0.5688630000000 1.0
C      1  0.4779310000000  0.5666010000000  0.5315480000000 1.0
C      1  0.4926260000000  0.5319170000000  0.5870050000000 1.0
C      1  0.5705610000000  0.4917930000000  0.5142530000000 1.0
C      1  0.5026380000000  0.5387310000000  0.4636270000000 1.0
C      1  0.4669210000000  0.5225920000000  0.5091720000000 1.0
C      1  0.4513770000000  0.4765820000000  0.4918030000000 1.0
C      1  0.4589190000000  0.4476200000000  0.4444510000000 1.0
C      1  0.5478590000000  0.5429000000000  0.4355890000000 1.0
C      1  0.5013250000000  0.4959860000000  0.5078270000000 1.0
C      1  0.5373290000000  0.5758590000000  0.5423890000000 1.0
C      1  0.5158010000000  0.4234170000000  0.5507170000000 1.0
C      1  0.5144060000000  0.4243870000000  0.4926350000000 1.0
C      1  0.4897990000000  0.5403620000000  0.5235620000000 1.0
C      1  0.4364910000000  0.5247250000000  0.5127960000000 1.0
C      1  0.5525960000000  0.5148040000000  0.4410960000000 1.0
C      1  0.5051680000000  0.5127000000000  0.4540560000000 1.0
C      1  0.5566510000000  0.4515950000000  0.5511000000000 1.0
C      1  0.5278780000000  0.4794620000000  0.5402090000000 1.0
C      1  0.5701000000000  0.4874460000000  0.4840640000000 1.0
C      1  0.5699580000000  0.4768670000000  0.5458070000000 1.0
C      1  0.4675920000000  0.5790070000000  0.4797950000000 1.0
C      1  0.5524600000000  0.4420190000000  0.4901630000000 1.0
C      1  0.4919700000000  0.4651390000000  0.4076710000000 1.0
C      1  0.4831670000000  0.4568450000000  0.5695090000000 1.0
C      1  0.5082930000000  0.4429140000000  0.5710870000000 1.0
C      1  0.4923750000000  0.4909210000000  0.4643530000000 1.0
C      1  0.4430880000000  0.5206450000000  0.4531670000000 1.0
C      1  0.5665060000000  0.5101880000000  0.4672310000000 1.0
C      1  0.4894230000000  0.4312400000000  0.5103020000000 1.0
C      1  0.5602560000000  0.5429090000000  0.5074510000000 1.0
C      1  0.5411630000000  0.4305330000000  0.5374210000000 1.0
C      1  0.5233490000000  0.4866710000000  0.4949260000000 1.0
C      1  0.5494590000000  0.5538020000000  0.4627490000000 1.0
C      1  0.5220760000000  0.5496100000000  0.4207110000000 1.0
C      1  0.5196780000000  0.4876220000000  0.5807900000000 1.0
C      1  0.5407100000000  0.4245470000000  0.5075510000000 1.0
C      1  0.4471520000000  0.4499620000000  0.5034220000000 1.0
C      1  0.5051560000000  0.4281640000000  0.4660510000000 1.0
C      1  0.4760380000000  0.4338030000000  0.4644050000000 1.0
C      1  0.4671370000000  0.4375180000000  0.5523480000000 1.0
C      1  0.4222820000000  0.5175540000000  0.4886040000000 1.0
C      1  0.5236270000000  0.5531500000000  0.4783430000000 1.0
C      1  0.4654460000000  0.4315170000000  0.4909810000000 1.0
C      1  0.4756040000000  0.5117870000000  0.5772900000000 1.0
C      1  0.5719330000000  0.5216220000000  0.5222870000000 1.0
C      1  0.5663360000000  0.5375120000000  0.4796800000000 1.0
C      1  0.4582030000000  0.5564880000000  0.5493300000000 1.0
C      1  0.5603150000000  0.4617720000000  0.4721620000000 1.0
C      1  0.5379650000000  0.5083850000000  0.5755790000000 1.0
C      1  0.4851870000000  0.4613120000000  0.5227940000000 1.0
C      1  0.5082140000000  0.5574750000000  0.4422480000000 1.0
C      1  0.4652770000000  0.4641600000000  0.4210210000000 1.0
C      1  0.4447540000000  0.4443210000000  0.5329150000000 1.0
C      1  0.4886170000000  0.4215760000000  0.5396430000000 1.0
C      1  0.5104700000000  0.4528650000000  0.4239720000000 1.0
C      1  0.4951010000000  0.5759920000000  0.4354570000000 1.0
C      1  0.4290970000000  0.5384900000000  0.4692870000000 1.0
C      1  0.5315110000000  0.4631920000000  0.5672270000000 1.0
C      1  0.4738340000000  0.5859230000000  0.4496740000000 1.0
C      1  0.5386430000000  0.5649590000000  0.5147770000000 1.0
C      1  0.4771150000000  0.4946070000000  0.4902160000000 1.0
C      1  0.4540460000000  0.5262010000000  0.5565470000000 1.0
C      1  0.4392150000000  0.4692660000000  0.5459650000000 1.0
C      1  0.5608080000000  0.5428430000000  0.5652590000000 1.0
C      1  0.5148890000000  0.5719680000000  0.4983780000000 1.0
C      1  0.5086220000000  0.5241690000000  0.4154830000000 1.0
C      1  0.5075590000000  0.5271560000000  0.5412490000000 1.0
C      1  0.4559180000000  0.5632990000000  0.4422370000000 1.0
C      1  0.4125140000000  0.4706960000000  0.4623290000000 1.0
C      1  0.5385930000000  0.5595310000000  0.5673700000000 1.0
C      1  0.4666430000000  0.5087420000000  0.5351110000000 1.0
C      1  0.5251270000000  0.5078900000000  0.4330670000000 1.0
C      1  0.5165160000000  0.4775800000000  0.4693980000000 1.0
C      1  0.4596360000000  0.5332050000000  0.4350450000000 1.0
C      1  0.4275290000000  0.5175140000000  0.5395590000000 1.0
C      1  0.5768100000000  0.5242430000000  0.5512130000000 1.0
C      1  0.5640280000000  0.4999940000000  0.5631440000000 1.0
C      1  0.4298790000000  0.4498570000000  0.4512020000000 1.0
C      1  0.4680690000000  0.4790950000000  0.5361420000000 1.0
C      1  0.4173960000000  0.4897840000000  0.5438250000000 1.0
END
