TITL C-884133-6611-355 102.926809288119 125000 -29421.0680389075 0 0 200 (C1) n - 1
REM
REM in /home/nfs/bkarasulu/CARBON/AIRSS/Generating-Clusters/ReaxFF-fromJPCA2015/Units_Real/with-SteepDescent/Only-C1/SD-CG/Try1-3A/FIRE-CG
REM
REM
REM
REM
REM
REM ./C.cell (11c1c37f851c82e70ff6c80c92926a4b)
REM
REM compiler GCC version 9.2.1 20190827 (Red Hat 9.2.1-1)
REM options -cpp -mtune=generic -march=x86-64 -g -O0 -fpre-include=/usr/include/finclude/math-vector-fortran.h
REM seed -533711855 1932901321 2134112284 -1421993667 1074032878 -939221913 822131128 -838811591 -1183994076 2024928135 -2001959129 192622692 809470019 -522011510 -184471659 -384958136 1932570845 1695048558 -806689875 382244640 914792875 949793749 -1117470497 -2034742099 -2127595656 -1350190879 1255027577 1044244264 1317801974 -1549575349 1901309719 -276023412 -896921018
REM
CELL 1.54180   50.00000   50.00000   50.00000   90.00000   90.00000   90.00000
LATT -1
SFAC C  
C      1  0.5111060000000  0.4452780000000  0.4703020000000 1.0
C      1  0.5257840000000  0.6044560000000  0.4557670000000 1.0
C      1  0.6101100000000  0.5461600000000  0.5026430000000 1.0
C      1  0.4695430000000  0.4152520000000  0.4191460000000 1.0
C      1  0.4089240000000  0.4560060000000  0.4734090000000 1.0
C      1  0.5517060000000  0.4689650000000  0.4728910000000 1.0
C      1  0.4877070000000  0.5353710000000  0.6050530000000 1.0
C      1  0.4405640000000  0.4231790000000  0.4321750000000 1.0
C      1  0.5307860000000  0.4371050000000  0.5515700000000 1.0
C      1  0.5838540000000  0.4663770000000  0.4457740000000 1.0
C      1  0.5599940000000  0.4743140000000  0.5924470000000 1.0
C      1  0.5249290000000  0.5045390000000  0.5398570000000 1.0
C      1  0.5786960000000  0.4336030000000  0.5641790000000 1.0
C      1  0.4264230000000  0.5105370000000  0.4277800000000 1.0
C      1  0.5160200000000  0.4435510000000  0.4064900000000 1.0
C      1  0.4514620000000  0.5885020000000  0.5324620000000 1.0
C      1  0.5165200000000  0.5801380000000  0.4903520000000 1.0
C      1  0.4202270000000  0.4171140000000  0.5053340000000 1.0
C      1  0.5932340000000  0.4945750000000  0.4491230000000 1.0
C      1  0.4915550000000  0.6159550000000  0.5118570000000 1.0
C      1  0.4048350000000  0.5268620000000  0.5436510000000 1.0
C      1  0.4074190000000  0.5610690000000  0.4800930000000 1.0
C      1  0.6093850000000  0.5051930000000  0.4718670000000 1.0
C      1  0.4168540000000  0.5080060000000  0.5617820000000 1.0
C      1  0.5298340000000  0.5131460000000  0.6157110000000 1.0
C      1  0.4572810000000  0.5345710000000  0.4628400000000 1.0
C      1  0.5202770000000  0.4408730000000  0.6030180000000 1.0
C      1  0.4506000000000  0.5940550000000  0.4889310000000 1.0
C      1  0.5163570000000  0.4865820000000  0.6149590000000 1.0
C      1  0.5929670000000  0.5064450000000  0.5704780000000 1.0
C      1  0.4630960000000  0.4178390000000  0.5192590000000 1.0
C      1  0.5390070000000  0.4414350000000  0.4307710000000 1.0
C      1  0.5017010000000  0.4981430000000  0.4731580000000 1.0
C      1  0.4371970000000  0.5572890000000  0.4138710000000 1.0
C      1  0.4276720000000  0.4516280000000  0.4262610000000 1.0
C      1  0.4608960000000  0.5366860000000  0.5423810000000 1.0
C      1  0.4869730000000  0.5714430000000  0.5742930000000 1.0
C      1  0.5683520000000  0.5065430000000  0.4080430000000 1.0
C      1  0.4373190000000  0.5073110000000  0.4945970000000 1.0
C      1  0.5293910000000  0.5010700000000  0.4619980000000 1.0
C      1  0.5264060000000  0.5042450000000  0.5104430000000 1.0
C      1  0.5295460000000  0.4398320000000  0.4913690000000 1.0
C      1  0.6050950000000  0.4614250000000  0.5348870000000 1.0
C      1  0.4881270000000  0.4338110000000  0.4062740000000 1.0
C      1  0.5542740000000  0.4826990000000  0.4140930000000 1.0
C      1  0.4004530000000  0.5115230000000  0.4651560000000 1.0
C      1  0.5626730000000  0.4452560000000  0.4864080000000 1.0
C      1  0.4090630000000  0.4319310000000  0.5259850000000 1.0
C      1  0.5635650000000  0.4580500000000  0.4274870000000 1.0
C      1  0.4333440000000  0.4027410000000  0.4843570000000 1.0
C      1  0.4474160000000  0.5133450000000  0.5658540000000 1.0
C      1  0.5524330000000  0.5548550000000  0.4411550000000 1.0
C      1  0.5109370000000  0.6054130000000  0.5566020000000 1.0
C      1  0.4355670000000  0.4948150000000  0.5198650000000 1.0
C      1  0.4669150000000  0.4085360000000  0.5473570000000 1.0
C      1  0.4262650000000  0.5756190000000  0.5256240000000 1.0
C      1  0.5040600000000  0.3905560000000  0.4789230000000 1.0
C      1  0.4938360000000  0.5017160000000  0.5638930000000 1.0
C      1  0.5052520000000  0.6008570000000  0.5334660000000 1.0
C      1  0.4218100000000  0.4570250000000  0.5710360000000 1.0
C      1  0.4853340000000  0.5104820000000  0.3801960000000 1.0
C      1  0.5294530000000  0.6044280000000  0.5208990000000 1.0
C      1  0.4303850000000  0.5641620000000  0.5677280000000 1.0
C      1  0.3917520000000  0.4809590000000  0.5340820000000 1.0
C      1  0.4268850000000  0.5776490000000  0.4965420000000 1.0
C      1  0.5337880000000  0.4110250000000  0.4438390000000 1.0
C      1  0.4739210000000  0.4611200000000  0.5981820000000 1.0
C      1  0.4867870000000  0.4844220000000  0.6105520000000 1.0
C      1  0.5322500000000  0.4981280000000  0.4342560000000 1.0
C      1  0.4473820000000  0.5120950000000  0.5973610000000 1.0
C      1  0.5502580000000  0.5416360000000  0.4930920000000 1.0
C      1  0.5317520000000  0.3984100000000  0.4703650000000 1.0
C      1  0.4864550000000  0.3887730000000  0.5014660000000 1.0
C      1  0.4583260000000  0.3948430000000  0.5011530000000 1.0
C      1  0.6137450000000  0.4711580000000  0.5082460000000 1.0
C      1  0.5394470000000  0.4867060000000  0.3874260000000 1.0
C      1  0.5900580000000  0.5672000000000  0.5059000000000 1.0
C      1  0.4069000000000  0.5427690000000  0.4562190000000 1.0
C      1  0.4941720000000  0.3990950000000  0.5407480000000 1.0
C      1  0.6147940000000  0.4986570000000  0.4993810000000 1.0
C      1  0.4901470000000  0.5671540000000  0.4946070000000 1.0
C      1  0.5108850000000  0.5463610000000  0.5334570000000 1.0
C      1  0.4976220000000  0.6003170000000  0.4515780000000 1.0
C      1  0.4856350000000  0.5241130000000  0.4772470000000 1.0
C      1  0.5973730000000  0.5281890000000  0.5528070000000 1.0
C      1  0.5828180000000  0.5531740000000  0.5586850000000 1.0
C      1  0.4822890000000  0.5031590000000  0.4328540000000 1.0
C      1  0.3904280000000  0.5101280000000  0.5238590000000 1.0
C      1  0.4104040000000  0.4656990000000  0.4448620000000 1.0
C      1  0.4479190000000  0.4722540000000  0.5308200000000 1.0
C      1  0.4347020000000  0.4869540000000  0.5961840000000 1.0
C      1  0.5131160000000  0.5170360000000  0.4243270000000 1.0
C      1  0.4632200000000  0.5458660000000  0.4051460000000 1.0
C      1  0.5403550000000  0.3879940000000  0.5196640000000 1.0
C      1  0.5743890000000  0.5030850000000  0.5921100000000 1.0
C      1  0.5834310000000  0.5135310000000  0.4302530000000 1.0
C      1  0.5611260000000  0.4792560000000  0.5448390000000 1.0
C      1  0.5501700000000  0.4233110000000  0.5684340000000 1.0
C      1  0.4843360000000  0.4811770000000  0.4153110000000 1.0
C      1  0.4760860000000  0.4433440000000  0.5120930000000 1.0
C      1  0.4862770000000  0.4860360000000  0.4546950000000 1.0
C      1  0.3861660000000  0.5171040000000  0.4961290000000 1.0
C      1  0.4546870000000  0.5156710000000  0.4408640000000 1.0
C      1  0.4240400000000  0.4340960000000  0.5527990000000 1.0
C      1  0.4406530000000  0.5337910000000  0.4892920000000 1.0
C      1  0.5879300000000  0.4474210000000  0.4684720000000 1.0
C      1  0.5031680000000  0.4435740000000  0.5583060000000 1.0
C      1  0.4636180000000  0.6060000000000  0.5121420000000 1.0
C      1  0.4830250000000  0.4038060000000  0.4630050000000 1.0
C      1  0.5459450000000  0.5147690000000  0.3911370000000 1.0
C      1  0.4173040000000  0.5412500000000  0.4300970000000 1.0
C      1  0.5218380000000  0.5666580000000  0.4659880000000 1.0
C      1  0.5167400000000  0.5361400000000  0.6046540000000 1.0
C      1  0.5482170000000  0.5770030000000  0.4607670000000 1.0
C      1  0.5314840000000  0.4584290000000  0.4547430000000 1.0
C      1  0.4889370000000  0.5216370000000  0.5422060000000 1.0
C      1  0.5318500000000  0.5685460000000  0.4027810000000 1.0
C      1  0.5004540000000  0.5425140000000  0.4880790000000 1.0
C      1  0.5385260000000  0.4179060000000  0.5952330000000 1.0
C      1  0.4363390000000  0.4128460000000  0.4576520000000 1.0
C      1  0.4406080000000  0.4979510000000  0.4044530000000 1.0
C      1  0.4310910000000  0.4565680000000  0.4922690000000 1.0
C      1  0.5428490000000  0.5453400000000  0.5917300000000 1.0
C      1  0.4666540000000  0.4694850000000  0.4655840000000 1.0
C      1  0.4628820000000  0.4631570000000  0.5520190000000 1.0
C      1  0.5885280000000  0.5644340000000  0.5335710000000 1.0
C      1  0.4739010000000  0.5104930000000  0.6100120000000 1.0
C      1  0.4600600000000  0.4573460000000  0.4912910000000 1.0
C      1  0.5670990000000  0.4333640000000  0.5167330000000 1.0
C      1  0.5435770000000  0.4534380000000  0.5299040000000 1.0
C      1  0.4734920000000  0.5848380000000  0.4719670000000 1.0
C      1  0.6112720000000  0.4511320000000  0.4852670000000 1.0
C      1  0.5564890000000  0.5218320000000  0.6044480000000 1.0
C      1  0.5042290000000  0.4846480000000  0.5043800000000 1.0
C      1  0.5661950000000  0.5185270000000  0.4890780000000 1.0
C      1  0.5391930000000  0.5544090000000  0.5415070000000 1.0
C      1  0.4672160000000  0.4911080000000  0.5660040000000 1.0
C      1  0.4685610000000  0.5940250000000  0.5822130000000 1.0
C      1  0.4971210000000  0.5998270000000  0.5792320000000 1.0
C      1  0.5438140000000  0.4802290000000  0.5677820000000 1.0
C      1  0.4420910000000  0.4691830000000  0.4087640000000 1.0
C      1  0.5280550000000  0.5395580000000  0.3910070000000 1.0
C      1  0.5149730000000  0.3938430000000  0.5317780000000 1.0
C      1  0.6073450000000  0.5226420000000  0.5208460000000 1.0
C      1  0.5929060000000  0.5630320000000  0.4419750000000 1.0
C      1  0.4604250000000  0.5189990000000  0.3942060000000 1.0
C      1  0.4489420000000  0.5723210000000  0.5881290000000 1.0
C      1  0.5145870000000  0.6097950000000  0.4949410000000 1.0
C      1  0.5643270000000  0.5070140000000  0.5357220000000 1.0
C      1  0.5414430000000  0.5775650000000  0.5147720000000 1.0
C      1  0.4932340000000  0.5695520000000  0.5268190000000 1.0
C      1  0.4604040000000  0.5664720000000  0.4518140000000 1.0
C      1  0.5216400000000  0.4583250000000  0.5107130000000 1.0
C      1  0.5173160000000  0.4854740000000  0.5600740000000 1.0
C      1  0.4374050000000  0.5790000000000  0.4339320000000 1.0
C      1  0.4857710000000  0.4534860000000  0.5375110000000 1.0
C      1  0.4858380000000  0.5009050000000  0.5212660000000 1.0
C      1  0.4223640000000  0.5008440000000  0.4758800000000 1.0
C      1  0.5445280000000  0.5246430000000  0.5453170000000 1.0
C      1  0.5485630000000  0.4959250000000  0.4844450000000 1.0
C      1  0.4928390000000  0.5896820000000  0.4249320000000 1.0
C      1  0.3948300000000  0.5417490000000  0.4958490000000 1.0
C      1  0.5614830000000  0.4052440000000  0.5139500000000 1.0
C      1  0.4861660000000  0.4328650000000  0.4624170000000 1.0
C      1  0.5769980000000  0.5422360000000  0.4319280000000 1.0
C      1  0.5537740000000  0.5576230000000  0.5678290000000 1.0
C      1  0.5002950000000  0.5325470000000  0.3905210000000 1.0
C      1  0.4951320000000  0.4445570000000  0.5868390000000 1.0
C      1  0.6074620000000  0.5531670000000  0.4573400000000 1.0
C      1  0.4250860000000  0.4674780000000  0.5181430000000 1.0
C      1  0.4675330000000  0.4484540000000  0.4467620000000 1.0
C      1  0.4812330000000  0.5618280000000  0.4283790000000 1.0
C      1  0.5201940000000  0.5873950000000  0.4193610000000 1.0
C      1  0.5342920000000  0.4654860000000  0.6091760000000 1.0
C      1  0.5604510000000  0.5695390000000  0.4929710000000 1.0
C      1  0.5109490000000  0.4090860000000  0.4280610000000 1.0
C      1  0.6169110000000  0.5341530000000  0.4761800000000 1.0
C      1  0.5892820000000  0.4376870000000  0.5370370000000 1.0
C      1  0.4557880000000  0.5379960000000  0.5134430000000 1.0
C      1  0.4519720000000  0.4309450000000  0.5580560000000 1.0
C      1  0.5267680000000  0.5409650000000  0.4357120000000 1.0
C      1  0.4434840000000  0.4609210000000  0.5926310000000 1.0
C      1  0.4147320000000  0.5557750000000  0.5464500000000 1.0
C      1  0.3880130000000  0.4542860000000  0.5196190000000 1.0
C      1  0.4070010000000  0.4807050000000  0.5590630000000 1.0
C      1  0.4856450000000  0.3966760000000  0.4339280000000 1.0
C      1  0.5171930000000  0.4674410000000  0.3889020000000 1.0
C      1  0.5048970000000  0.5541990000000  0.4466690000000 1.0
C      1  0.5495270000000  0.3923180000000  0.4923870000000 1.0
C      1  0.4740930000000  0.5183550000000  0.5032420000000 1.0
C      1  0.5220650000000  0.5342770000000  0.5038590000000 1.0
C      1  0.4034790000000  0.4938150000000  0.4421400000000 1.0
C      1  0.4699630000000  0.4581780000000  0.4186910000000 1.0
C      1  0.3839950000000  0.4562730000000  0.4902020000000 1.0
C      1  0.4922340000000  0.4828320000000  0.3874220000000 1.0
C      1  0.5924100000000  0.4761680000000  0.5583270000000 1.0
C      1  0.4726530000000  0.5543330000000  0.5916160000000 1.0
C      1  0.4691440000000  0.5666230000000  0.5452700000000 1.0
C      1  0.5798980000000  0.5153550000000  0.5138630000000 1.0
C      1  0.5820570000000  0.4576320000000  0.5788570000000 1.0
END
