TITL C-883729-9652-137 57.6281333617466 125000 -25261.2966291637 0 0 170 (C1) n - 1
REM
REM in /home/nfs/bkarasulu/CARBON/AIRSS/Generating-Clusters/ReaxFF-fromJPCA2015/Units_Real/with-SteepDescent/Only-C1/SD-CG/Try1-3A/FIRE-CG
REM
REM
REM
REM
REM
REM ./C.cell (11c1c37f851c82e70ff6c80c92926a4b)
REM
REM compiler GCC version 9.2.1 20190827 (Red Hat 9.2.1-1)
REM options -cpp -mtune=generic -march=x86-64 -g -O0 -fpre-include=/usr/include/finclude/math-vector-fortran.h
REM seed -296217981 -1168212120 906296918 109502936 -1930550293 642321781 1251799099 -1291538807 -396093246 -326357974 -1627774620 799741506 -1146673607 -1685337699 -2135032324 496763578 650674405 1686865441 -1161478931 -574322552 2123364232 1350108030 2144265402 1349929953 47880288 -598777853 -270463446 773448778 1634835952 2063021005 1484119217 1155251106 -236775036
REM
CELL 1.54180   50.00000   50.00000   50.00000   90.00000   90.00000   90.00000
LATT -1
SFAC C  
C      1  0.5410940000000  0.4882150000000  0.5106140000000 1.0
C      1  0.4604390000000  0.5298690000000  0.5617860000000 1.0
C      1  0.4067180000000  0.5303860000000  0.4716290000000 1.0
C      1  0.4404820000000  0.4848630000000  0.5088850000000 1.0
C      1  0.4155410000000  0.4392530000000  0.5362910000000 1.0
C      1  0.5679140000000  0.4086680000000  0.4859550000000 1.0
C      1  0.5886910000000  0.4291020000000  0.4874360000000 1.0
C      1  0.4290690000000  0.5803700000000  0.4920820000000 1.0
C      1  0.5630210000000  0.4687930000000  0.5091830000000 1.0
C      1  0.5808790000000  0.4708100000000  0.4456780000000 1.0
C      1  0.4405010000000  0.4273200000000  0.5461870000000 1.0
C      1  0.4905050000000  0.5944970000000  0.4641460000000 1.0
C      1  0.4164110000000  0.5595180000000  0.5599110000000 1.0
C      1  0.5484160000000  0.5110390000000  0.5466590000000 1.0
C      1  0.4932300000000  0.5533560000000  0.4811950000000 1.0
C      1  0.4423700000000  0.5083210000000  0.5547520000000 1.0
C      1  0.4912450000000  0.5252840000000  0.5644890000000 1.0
C      1  0.4999670000000  0.5403940000000  0.5888580000000 1.0
C      1  0.4082400000000  0.4610500000000  0.4880990000000 1.0
C      1  0.5182930000000  0.5670090000000  0.5369840000000 1.0
C      1  0.3979220000000  0.5050590000000  0.4599550000000 1.0
C      1  0.4985540000000  0.4765340000000  0.4250970000000 1.0
C      1  0.5061010000000  0.5492950000000  0.4073980000000 1.0
C      1  0.4827280000000  0.4501660000000  0.5909910000000 1.0
C      1  0.5498370000000  0.5214830000000  0.4072040000000 1.0
C      1  0.4913970000000  0.4780880000000  0.5058060000000 1.0
C      1  0.5210040000000  0.5516470000000  0.4675740000000 1.0
C      1  0.4713820000000  0.4513130000000  0.5667750000000 1.0
C      1  0.5040330000000  0.4926080000000  0.4647200000000 1.0
C      1  0.4458520000000  0.4849110000000  0.4806280000000 1.0
C      1  0.4000180000000  0.4895830000000  0.5351930000000 1.0
C      1  0.4505570000000  0.5330380000000  0.6069550000000 1.0
C      1  0.4492550000000  0.4627100000000  0.5234010000000 1.0
C      1  0.4465090000000  0.4300040000000  0.4440920000000 1.0
C      1  0.3951670000000  0.5073630000000  0.4310130000000 1.0
C      1  0.5340960000000  0.5539540000000  0.4920320000000 1.0
C      1  0.5449290000000  0.5082200000000  0.4914970000000 1.0
C      1  0.4347360000000  0.4496600000000  0.4294320000000 1.0
C      1  0.5957120000000  0.4440470000000  0.5113900000000 1.0
C      1  0.5732180000000  0.4438590000000  0.4640480000000 1.0
C      1  0.4952440000000  0.6071770000000  0.5121340000000 1.0
C      1  0.4358830000000  0.4922000000000  0.5782580000000 1.0
C      1  0.5688090000000  0.4826370000000  0.5798600000000 1.0
C      1  0.4666180000000  0.4690330000000  0.5451250000000 1.0
C      1  0.5810170000000  0.5379800000000  0.5106690000000 1.0
C      1  0.4729000000000  0.4852490000000  0.3953290000000 1.0
C      1  0.5232680000000  0.3945260000000  0.5145130000000 1.0
C      1  0.4229220000000  0.5501400000000  0.4547270000000 1.0
C      1  0.4992640000000  0.4684490000000  0.3973910000000 1.0
C      1  0.5376220000000  0.5757670000000  0.5560940000000 1.0
C      1  0.4447950000000  0.5531230000000  0.5706190000000 1.0
C      1  0.5879280000000  0.4876210000000  0.5141870000000 1.0
C      1  0.4657380000000  0.5594090000000  0.4253420000000 1.0
C      1  0.5545680000000  0.4539750000000  0.4850520000000 1.0
C      1  0.5214040000000  0.5236620000000  0.4057770000000 1.0
C      1  0.4755600000000  0.4575050000000  0.4894680000000 1.0
C      1  0.4672340000000  0.4138570000000  0.4460520000000 1.0
C      1  0.4525190000000  0.5930270000000  0.5047570000000 1.0
C      1  0.5815240000000  0.4627340000000  0.5605250000000 1.0
C      1  0.5904380000000  0.5248690000000  0.5567190000000 1.0
C      1  0.4406540000000  0.5698920000000  0.4669500000000 1.0
C      1  0.4758640000000  0.5001780000000  0.6119540000000 1.0
C      1  0.5811430000000  0.5876510000000  0.4842720000000 1.0
C      1  0.5659220000000  0.5408560000000  0.4258640000000 1.0
C      1  0.4461400000000  0.5318490000000  0.5112760000000 1.0
C      1  0.5767230000000  0.4971670000000  0.4561070000000 1.0
C      1  0.5743580000000  0.5888060000000  0.5125320000000 1.0
C      1  0.4846530000000  0.5790580000000  0.4382020000000 1.0
C      1  0.4768570000000  0.6012640000000  0.4909330000000 1.0
C      1  0.4832580000000  0.5825690000000  0.5613780000000 1.0
C      1  0.5455330000000  0.6038940000000  0.5462710000000 1.0
C      1  0.5740920000000  0.4455580000000  0.5322020000000 1.0
C      1  0.5015030000000  0.5169170000000  0.6064950000000 1.0
C      1  0.4096610000000  0.4650100000000  0.5496020000000 1.0
C      1  0.4059760000000  0.4384990000000  0.5082570000000 1.0
C      1  0.4916220000000  0.5285590000000  0.4964820000000 1.0
C      1  0.4615200000000  0.5516950000000  0.5257580000000 1.0
C      1  0.5203190000000  0.4664600000000  0.5098550000000 1.0
C      1  0.4383580000000  0.5082110000000  0.5251510000000 1.0
C      1  0.4628030000000  0.4671990000000  0.4661580000000 1.0
C      1  0.4998600000000  0.4006090000000  0.4971760000000 1.0
C      1  0.5505220000000  0.4053100000000  0.5102920000000 1.0
C      1  0.5022660000000  0.5142570000000  0.4474150000000 1.0
C      1  0.4704420000000  0.4038780000000  0.5012550000000 1.0
C      1  0.5823910000000  0.5536230000000  0.5533960000000 1.0
C      1  0.4113730000000  0.4648380000000  0.4374780000000 1.0
C      1  0.5830120000000  0.5633400000000  0.5260930000000 1.0
C      1  0.5286780000000  0.4463930000000  0.4901480000000 1.0
C      1  0.5280290000000  0.4849640000000  0.5567910000000 1.0
C      1  0.4279250000000  0.4650420000000  0.5721400000000 1.0
C      1  0.5719700000000  0.4779640000000  0.4201620000000 1.0
C      1  0.5388950000000  0.4074230000000  0.4410480000000 1.0
C      1  0.5120650000000  0.4497070000000  0.4394270000000 1.0
C      1  0.4172540000000  0.5072630000000  0.4128940000000 1.0
C      1  0.4585160000000  0.4625670000000  0.4102700000000 1.0
C      1  0.5164860000000  0.4238300000000  0.4263200000000 1.0
C      1  0.5459900000000  0.5324260000000  0.5049420000000 1.0
C      1  0.5544660000000  0.4923290000000  0.4018720000000 1.0
C      1  0.5590120000000  0.5632560000000  0.4447180000000 1.0
C      1  0.5186920000000  0.5715450000000  0.5082340000000 1.0
C      1  0.4523400000000  0.5312800000000  0.4835920000000 1.0
C      1  0.4910060000000  0.4760530000000  0.6051900000000 1.0
C      1  0.5789280000000  0.5144790000000  0.5318600000000 1.0
C      1  0.4889160000000  0.5974480000000  0.5384610000000 1.0
C      1  0.4118780000000  0.5624380000000  0.5080250000000 1.0
C      1  0.4813120000000  0.4444820000000  0.4040630000000 1.0
C      1  0.6045690000000  0.4656840000000  0.5703390000000 1.0
C      1  0.4402430000000  0.5473310000000  0.4317490000000 1.0
C      1  0.5566000000000  0.5558480000000  0.5669810000000 1.0
C      1  0.5752870000000  0.5110370000000  0.5786360000000 1.0
C      1  0.6062010000000  0.4944150000000  0.4929390000000 1.0
C      1  0.5878290000000  0.5371540000000  0.4814370000000 1.0
C      1  0.4661500000000  0.5541130000000  0.4713690000000 1.0
C      1  0.5314750000000  0.5778820000000  0.4471810000000 1.0
C      1  0.5314550000000  0.4242390000000  0.5802640000000 1.0
C      1  0.5157470000000  0.4912900000000  0.6030540000000 1.0
C      1  0.3975200000000  0.5127820000000  0.5192700000000 1.0
C      1  0.5950930000000  0.5108580000000  0.4725540000000 1.0
C      1  0.4956990000000  0.5016150000000  0.4897440000000 1.0
C      1  0.5351480000000  0.4660010000000  0.4338700000000 1.0
C      1  0.5488130000000  0.6045560000000  0.5172810000000 1.0
C      1  0.4670780000000  0.5134330000000  0.3995620000000 1.0
C      1  0.5331110000000  0.4728890000000  0.4057090000000 1.0
C      1  0.5571630000000  0.4206750000000  0.5341390000000 1.0
C      1  0.5333170000000  0.4485330000000  0.5932310000000 1.0
C      1  0.4476280000000  0.5051340000000  0.6033690000000 1.0
C      1  0.4892840000000  0.4157330000000  0.5438250000000 1.0
C      1  0.5264230000000  0.5277580000000  0.4539620000000 1.0
C      1  0.5218760000000  0.4044530000000  0.4627400000000 1.0
C      1  0.4551140000000  0.4423820000000  0.5037080000000 1.0
C      1  0.4861150000000  0.5386510000000  0.5222810000000 1.0
C      1  0.5013110000000  0.4975200000000  0.5560820000000 1.0
C      1  0.4786030000000  0.5404540000000  0.4060130000000 1.0
C      1  0.5084530000000  0.4359280000000  0.5934970000000 1.0
C      1  0.4851190000000  0.4875750000000  0.5347480000000 1.0
C      1  0.4228690000000  0.5716710000000  0.5339540000000 1.0
C      1  0.4278710000000  0.4393980000000  0.4901880000000 1.0
C      1  0.4647870000000  0.4098140000000  0.4743170000000 1.0
C      1  0.4508060000000  0.5085970000000  0.4672560000000 1.0
C      1  0.5216320000000  0.4600840000000  0.5404210000000 1.0
C      1  0.5127290000000  0.4233190000000  0.4813370000000 1.0
C      1  0.4840010000000  0.5649840000000  0.5865100000000 1.0
C      1  0.5514390000000  0.5272370000000  0.5719080000000 1.0
C      1  0.4639300000000  0.5062020000000  0.4417620000000 1.0
C      1  0.5309180000000  0.5233860000000  0.5279980000000 1.0
C      1  0.5468300000000  0.5058450000000  0.4631150000000 1.0
C      1  0.5181990000000  0.5959670000000  0.4678060000000 1.0
C      1  0.4027960000000  0.5356690000000  0.4999300000000 1.0
C      1  0.5042160000000  0.4389430000000  0.5436160000000 1.0
C      1  0.5623050000000  0.4154860000000  0.4574640000000 1.0
C      1  0.5386650000000  0.4765900000000  0.5866030000000 1.0
C      1  0.4531580000000  0.5794060000000  0.5312840000000 1.0
C      1  0.5782960000000  0.5622200000000  0.4675080000000 1.0
C      1  0.4038520000000  0.4760100000000  0.4634930000000 1.0
C      1  0.4622100000000  0.4148680000000  0.5301990000000 1.0
C      1  0.6094910000000  0.4694220000000  0.5064890000000 1.0
C      1  0.4877580000000  0.4216500000000  0.4215280000000 1.0
C      1  0.5375450000000  0.4127900000000  0.5541700000000 1.0
C      1  0.5092760000000  0.5716780000000  0.4264420000000 1.0
C      1  0.5062800000000  0.5045520000000  0.4223740000000 1.0
C      1  0.5897520000000  0.5348820000000  0.4402390000000 1.0
C      1  0.5227140000000  0.6008310000000  0.4988090000000 1.0
C      1  0.4035060000000  0.4840450000000  0.4180830000000 1.0
C      1  0.5147120000000  0.3987500000000  0.5419800000000 1.0
C      1  0.5091020000000  0.5397260000000  0.5386950000000 1.0
C      1  0.4703870000000  0.4776970000000  0.4389640000000 1.0
C      1  0.5302360000000  0.4817390000000  0.4582510000000 1.0
C      1  0.4444530000000  0.5174040000000  0.4204140000000 1.0
C      1  0.4571240000000  0.5589660000000  0.5978170000000 1.0
C      1  0.4472640000000  0.4416170000000  0.5719640000000 1.0
END
