TITL C-883738-3659-15 145045.324329782 125000 -16678.9136827065 0 0 113 (C1) n - 1
REM
REM in /home/nfs/bkarasulu/CARBON/AIRSS/Generating-Clusters/ReaxFF-fromJPCA2015/Units_Real/with-SteepDescent/Only-C1/SD-CG/Try1-3A/FIRE-CG
REM
REM
REM
REM
REM
REM ./C.cell (11c1c37f851c82e70ff6c80c92926a4b)
REM
REM compiler GCC version 9.2.1 20190827 (Red Hat 9.2.1-1)
REM options -cpp -mtune=generic -march=x86-64 -g -O0 -fpre-include=/usr/include/finclude/math-vector-fortran.h
REM seed -1200534984 -156706784 -563946463 628834981 838100887 256955591 965404205 -328497135 332332141 1038630229 -727653974 -277875635 324248149 -461979852 -2126001762 454813357 -639314563 -1846120654 1731866939 1721121383 -870718964 40747561 1662139977 4705868 338614854 -1189423662 1270643774 -1241794158 -350183973 -2095306983 -2124071299 829651981 -1412427729
REM
CELL 1.54180   50.00000   50.00000   50.00000   90.00000   90.00000   90.00000
LATT -1
SFAC C  
C      1  0.4333230000000  0.5632930000000  0.4832420000000 1.0
C      1  0.5364740000000  0.5478510000000  0.4244450000000 1.0
C      1  0.4160830000000  0.4666590000000  0.5054380000000 1.0
C      1  0.4404470000000  0.5397690000000  0.5458730000000 1.0
C      1  0.4380730000000  0.4828280000000  0.4559040000000 1.0
C      1  0.5317530000000  0.5233040000000  0.4764900000000 1.0
C      1  0.4776470000000  0.4180940000000  0.5654460000000 1.0
C      1  0.5512410000000  0.5507140000000  0.4694370000000 1.0
C      1  0.4566510000000  0.4206620000000  0.5208830000000 1.0
C      1  0.5458540000000  0.4249550000000  0.4784000000000 1.0
C      1  0.4925180000000  0.4521510000000  0.5096830000000 1.0
C      1  0.4959590000000  0.4096300000000  0.4870460000000 1.0
C      1  0.5455120000000  0.4352730000000  0.5486280000000 1.0
C      1  0.4950280000000  0.4927770000000  0.4862130000000 1.0
C      1  0.4962800000000  0.4338960000000  0.5311280000000 1.0
C      1  0.4830890000000  0.5737630000000  0.5470740000000 1.0
C      1  0.4571660000000  0.5559360000000  0.4617400000000 1.0
C      1  0.5338970000000  0.4553400000000  0.5627370000000 1.0
C      1  0.4246410000000  0.5010720000000  0.4350780000000 1.0
C      1  0.4810080000000  0.5254500000000  0.4036250000000 1.0
C      1  0.4420770000000  0.5869550000000  0.4975440000000 1.0
C      1  0.4214190000000  0.5288530000000  0.4435470000000 1.0
C      1  0.5511880000000  0.5433250000000  0.5468830000000 1.0
C      1  0.5613130000000  0.5779610000000  0.5048260000000 1.0
C      1  0.4746440000000  0.5391550000000  0.5803380000000 1.0
C      1  0.4890010000000  0.5368950000000  0.5035330000000 1.0
C      1  0.5145240000000  0.5786470000000  0.5214150000000 1.0
C      1  0.5083340000000  0.4754500000000  0.5063880000000 1.0
C      1  0.5329040000000  0.5753510000000  0.4727920000000 1.0
C      1  0.4604070000000  0.4433380000000  0.5015820000000 1.0
C      1  0.5175030000000  0.5131560000000  0.4469840000000 1.0
C      1  0.5027740000000  0.4038150000000  0.5600220000000 1.0
C      1  0.4077730000000  0.5271260000000  0.4725730000000 1.0
C      1  0.5335150000000  0.4972170000000  0.4299560000000 1.0
C      1  0.5286570000000  0.4090210000000  0.5451270000000 1.0
C      1  0.5763810000000  0.4781270000000  0.4782870000000 1.0
C      1  0.5263200000000  0.5366760000000  0.5845980000000 1.0
C      1  0.5364130000000  0.5878780000000  0.4984980000000 1.0
C      1  0.5679030000000  0.4842340000000  0.4513000000000 1.0
C      1  0.5882020000000  0.4937140000000  0.5236140000000 1.0
C      1  0.4243940000000  0.4681850000000  0.5359690000000 1.0
C      1  0.5051650000000  0.5129510000000  0.5535160000000 1.0
C      1  0.5407350000000  0.4378770000000  0.4533400000000 1.0
C      1  0.5584210000000  0.4410500000000  0.4987820000000 1.0
C      1  0.4473760000000  0.4822710000000  0.5249360000000 1.0
C      1  0.4418160000000  0.5202600000000  0.5655840000000 1.0
C      1  0.4613740000000  0.5123480000000  0.5847330000000 1.0
C      1  0.4869120000000  0.5100260000000  0.4449940000000 1.0
C      1  0.5660150000000  0.4431130000000  0.5274760000000 1.0
C      1  0.5801150000000  0.5442760000000  0.5358680000000 1.0
C      1  0.4866610000000  0.4835440000000  0.4612050000000 1.0
C      1  0.5013350000000  0.4601120000000  0.4629340000000 1.0
C      1  0.5074270000000  0.5732140000000  0.4575520000000 1.0
C      1  0.5405120000000  0.5120620000000  0.5029770000000 1.0
C      1  0.5095460000000  0.4379010000000  0.4451270000000 1.0
C      1  0.5499100000000  0.4622000000000  0.4405030000000 1.0
C      1  0.4455120000000  0.4681540000000  0.5012890000000 1.0
C      1  0.5616230000000  0.5192130000000  0.5634130000000 1.0
C      1  0.5780260000000  0.4683160000000  0.5288300000000 1.0
C      1  0.5124590000000  0.5494110000000  0.5156820000000 1.0
C      1  0.4151250000000  0.5433310000000  0.4955580000000 1.0
C      1  0.4896150000000  0.5509060000000  0.4133660000000 1.0
C      1  0.4403290000000  0.4519070000000  0.5540420000000 1.0
C      1  0.4765120000000  0.4733660000000  0.4226250000000 1.0
C      1  0.4133570000000  0.4774040000000  0.4784460000000 1.0
C      1  0.5547180000000  0.4671450000000  0.4925330000000 1.0
C      1  0.5573360000000  0.5379950000000  0.4424650000000 1.0
C      1  0.5282230000000  0.4710000000000  0.4221600000000 1.0
C      1  0.4332420000000  0.5321120000000  0.5165880000000 1.0
C      1  0.5260330000000  0.4050460000000  0.5176100000000 1.0
C      1  0.4810260000000  0.5754250000000  0.4695160000000 1.0
C      1  0.4690680000000  0.5268630000000  0.4624710000000 1.0
C      1  0.5341630000000  0.5331400000000  0.5218580000000 1.0
C      1  0.5062610000000  0.4859410000000  0.5869630000000 1.0
C      1  0.5104840000000  0.5606030000000  0.4309270000000 1.0
C      1  0.4087670000000  0.5034910000000  0.4863220000000 1.0
C      1  0.5722790000000  0.5131620000000  0.4499610000000 1.0
C      1  0.4731280000000  0.5863440000000  0.4950620000000 1.0
C      1  0.4568710000000  0.4631550000000  0.4414110000000 1.0
C      1  0.5368700000000  0.4833000000000  0.5067980000000 1.0
C      1  0.4837000000000  0.5060060000000  0.5414020000000 1.0
C      1  0.4698520000000  0.4842240000000  0.5393860000000 1.0
C      1  0.5821130000000  0.5591580000000  0.5099630000000 1.0
C      1  0.5115820000000  0.5747720000000  0.5523840000000 1.0
C      1  0.5118650000000  0.4575370000000  0.5797110000000 1.0
C      1  0.4877270000000  0.4208420000000  0.4613350000000 1.0
C      1  0.4520870000000  0.4260420000000  0.5489200000000 1.0
C      1  0.4516930000000  0.5209080000000  0.4984450000000 1.0
C      1  0.5785350000000  0.5465850000000  0.4834420000000 1.0
C      1  0.5867900000000  0.5201020000000  0.4751530000000 1.0
C      1  0.4858760000000  0.5145850000000  0.5191020000000 1.0
C      1  0.4618610000000  0.4351160000000  0.4530670000000 1.0
C      1  0.4867240000000  0.5862080000000  0.5210020000000 1.0
C      1  0.5313390000000  0.5586950000000  0.5664530000000 1.0
C      1  0.5393730000000  0.5102550000000  0.5805570000000 1.0
C      1  0.5020560000000  0.4589930000000  0.4214990000000 1.0
C      1  0.4895630000000  0.4449750000000  0.5608390000000 1.0
C      1  0.4668270000000  0.4677510000000  0.5636450000000 1.0
C      1  0.5252960000000  0.4055870000000  0.4900060000000 1.0
C      1  0.4839210000000  0.4113980000000  0.5153980000000 1.0
C      1  0.4748630000000  0.5034980000000  0.4189020000000 1.0
C      1  0.5030550000000  0.5208180000000  0.4835490000000 1.0
C      1  0.5226580000000  0.4931490000000  0.5640500000000 1.0
C      1  0.4770780000000  0.4875050000000  0.5845040000000 1.0
C      1  0.5011510000000  0.5328390000000  0.5726330000000 1.0
C      1  0.5902540000000  0.4980010000000  0.4938430000000 1.0
C      1  0.4612010000000  0.5425320000000  0.4138210000000 1.0
C      1  0.5830320000000  0.5165040000000  0.5437200000000 1.0
C      1  0.4633100000000  0.5549530000000  0.5581550000000 1.0
C      1  0.5280800000000  0.5210700000000  0.4180590000000 1.0
C      1  0.4430100000000  0.5471280000000  0.4366250000000 1.0
C      1  0.4532160000000  0.5068940000000  0.4741930000000 1.0
C      1  0.4476700000000  0.4269390000000  0.4765320000000 1.0
END
