TITL C-883738-3659-105 32.9590041092039 125000 -24559.4646925018 0 0 165 (C1) n - 1
REM
REM in /home/nfs/bkarasulu/CARBON/AIRSS/Generating-Clusters/ReaxFF-fromJPCA2015/Units_Real/with-SteepDescent/Only-C1/SD-CG/Try1-3A/FIRE-CG
REM
REM
REM
REM
REM
REM ./C.cell (11c1c37f851c82e70ff6c80c92926a4b)
REM
REM compiler GCC version 9.2.1 20190827 (Red Hat 9.2.1-1)
REM options -cpp -mtune=generic -march=x86-64 -g -O0 -fpre-include=/usr/include/finclude/math-vector-fortran.h
REM seed 2131934734 1642386270 1146048054 694976318 344203645 -1582759966 -2027152892 864206009 642752464 -2063203109 -727351469 546574578 -143644181 987323571 -664003723 -1373566851 -1739735990 -906004407 -107316717 -1203411223 -659825640 1621269058 -856350029 -63242022 1295382755 731073157 -1056200893 1124572973 -71778028 -1828061039 -713466777 1797439315 -1149167578
REM
CELL 1.54180   50.00000   50.00000   50.00000   90.00000   90.00000   90.00000
LATT -1
SFAC C  
C      1  0.4651490000000  0.4193820000000  0.4401640000000 1.0
C      1  0.5950780000000  0.5279540000000  0.4437440000000 1.0
C      1  0.5721100000000  0.5289600000000  0.5777720000000 1.0
C      1  0.4485230000000  0.5964410000000  0.4859550000000 1.0
C      1  0.4951380000000  0.5158080000000  0.4738950000000 1.0
C      1  0.4607480000000  0.6028540000000  0.4599220000000 1.0
C      1  0.5236360000000  0.4323630000000  0.5506470000000 1.0
C      1  0.6068330000000  0.4919340000000  0.4634300000000 1.0
C      1  0.4171980000000  0.4865250000000  0.5847100000000 1.0
C      1  0.5222230000000  0.5090090000000  0.5163400000000 1.0
C      1  0.5917980000000  0.4981920000000  0.4403470000000 1.0
C      1  0.5469380000000  0.3987910000000  0.5165240000000 1.0
C      1  0.5048460000000  0.6077960000000  0.4844700000000 1.0
C      1  0.5320020000000  0.6007320000000  0.4706320000000 1.0
C      1  0.4032230000000  0.5018870000000  0.4525020000000 1.0
C      1  0.4051810000000  0.5472150000000  0.5196580000000 1.0
C      1  0.5805540000000  0.4642790000000  0.4986340000000 1.0
C      1  0.4509620000000  0.5367600000000  0.5540570000000 1.0
C      1  0.4769730000000  0.3984940000000  0.5074260000000 1.0
C      1  0.4608050000000  0.4075660000000  0.5333000000000 1.0
C      1  0.5539590000000  0.4448990000000  0.4137280000000 1.0
C      1  0.4207340000000  0.5032830000000  0.5372870000000 1.0
C      1  0.4909310000000  0.5563350000000  0.5304010000000 1.0
C      1  0.4951850000000  0.4406490000000  0.5956600000000 1.0
C      1  0.4470670000000  0.5403210000000  0.4832380000000 1.0
C      1  0.4671640000000  0.4423510000000  0.5084550000000 1.0
C      1  0.5156310000000  0.5231570000000  0.4941430000000 1.0
C      1  0.5502830000000  0.5971200000000  0.4915730000000 1.0
C      1  0.5241690000000  0.4349280000000  0.4743370000000 1.0
C      1  0.5192260000000  0.4726610000000  0.5003200000000 1.0
C      1  0.4010780000000  0.5065860000000  0.5139300000000 1.0
C      1  0.5447170000000  0.4504640000000  0.4583500000000 1.0
C      1  0.5656500000000  0.5276720000000  0.5205370000000 1.0
C      1  0.5419210000000  0.4459150000000  0.5719110000000 1.0
C      1  0.5024800000000  0.5311880000000  0.5436090000000 1.0
C      1  0.5715560000000  0.5196130000000  0.4934460000000 1.0
C      1  0.4277310000000  0.5209110000000  0.5609700000000 1.0
C      1  0.4828990000000  0.5580350000000  0.4493790000000 1.0
C      1  0.4734840000000  0.5074660000000  0.5733870000000 1.0
C      1  0.4670000000000  0.4787360000000  0.5713020000000 1.0
C      1  0.4863440000000  0.5516540000000  0.5835730000000 1.0
C      1  0.5653960000000  0.4880460000000  0.4919010000000 1.0
C      1  0.4760990000000  0.4677070000000  0.4175060000000 1.0
C      1  0.5305760000000  0.4259430000000  0.4175870000000 1.0
C      1  0.5856780000000  0.5013010000000  0.5712730000000 1.0
C      1  0.4149700000000  0.4494340000000  0.4569930000000 1.0
C      1  0.5267360000000  0.5277300000000  0.4423100000000 1.0
C      1  0.4818210000000  0.4913900000000  0.4776070000000 1.0
C      1  0.5364690000000  0.4927910000000  0.3944220000000 1.0
C      1  0.5577400000000  0.5409280000000  0.4748400000000 1.0
C      1  0.5445760000000  0.5148270000000  0.5349200000000 1.0
C      1  0.5153580000000  0.5552150000000  0.5756260000000 1.0
C      1  0.5748030000000  0.4343360000000  0.4972390000000 1.0
C      1  0.4663150000000  0.6004110000000  0.5106670000000 1.0
C      1  0.4723980000000  0.4326090000000  0.5800160000000 1.0
C      1  0.4485300000000  0.5362640000000  0.4183730000000 1.0
C      1  0.5741370000000  0.5520300000000  0.5592840000000 1.0
C      1  0.6031480000000  0.5215030000000  0.4917250000000 1.0
C      1  0.4772950000000  0.4134180000000  0.5574570000000 1.0
C      1  0.4300940000000  0.5774850000000  0.4724010000000 1.0
C      1  0.4576010000000  0.4739160000000  0.5435300000000 1.0
C      1  0.5169180000000  0.4770450000000  0.5965200000000 1.0
C      1  0.5051590000000  0.5091630000000  0.4449690000000 1.0
C      1  0.4577820000000  0.4682250000000  0.4996110000000 1.0
C      1  0.5323560000000  0.5484280000000  0.4648390000000 1.0
C      1  0.4687460000000  0.5600370000000  0.5613080000000 1.0
C      1  0.5295770000000  0.5479970000000  0.6059620000000 1.0
C      1  0.5829340000000  0.4173410000000  0.4504210000000 1.0
C      1  0.5463510000000  0.4731790000000  0.5624500000000 1.0
C      1  0.5447350000000  0.4779450000000  0.4543580000000 1.0
C      1  0.4899960000000  0.5567060000000  0.5015010000000 1.0
C      1  0.5480760000000  0.5321980000000  0.4237410000000 1.0
C      1  0.4553240000000  0.5854030000000  0.5592150000000 1.0
C      1  0.5821050000000  0.5481630000000  0.5305420000000 1.0
C      1  0.4576880000000  0.4441390000000  0.4276360000000 1.0
C      1  0.5028480000000  0.4072200000000  0.5452840000000 1.0
C      1  0.4275620000000  0.4712570000000  0.5425420000000 1.0
C      1  0.5032120000000  0.5790450000000  0.4471060000000 1.0
C      1  0.4684920000000  0.4873650000000  0.5202660000000 1.0
C      1  0.4932980000000  0.4435480000000  0.5208960000000 1.0
C      1  0.5631600000000  0.4219120000000  0.5210980000000 1.0
C      1  0.5540380000000  0.4745110000000  0.4099470000000 1.0
C      1  0.4898430000000  0.4690150000000  0.5935730000000 1.0
C      1  0.6062260000000  0.5393130000000  0.4692730000000 1.0
C      1  0.4426260000000  0.5133300000000  0.4885210000000 1.0
C      1  0.5248660000000  0.5783320000000  0.5587050000000 1.0
C      1  0.5386320000000  0.4847410000000  0.4822950000000 1.0
C      1  0.4799810000000  0.5258560000000  0.5969200000000 1.0
C      1  0.4309380000000  0.4535450000000  0.4322580000000 1.0
C      1  0.6144270000000  0.4946780000000  0.4904800000000 1.0
C      1  0.4274700000000  0.5604210000000  0.5287470000000 1.0
C      1  0.4917680000000  0.5137280000000  0.3921220000000 1.0
C      1  0.5127380000000  0.5346580000000  0.3892830000000 1.0
C      1  0.4487850000000  0.4543130000000  0.5869580000000 1.0
C      1  0.5658160000000  0.4411280000000  0.4404090000000 1.0
C      1  0.4558590000000  0.4959960000000  0.4707580000000 1.0
C      1  0.4949040000000  0.4392440000000  0.4688390000000 1.0
C      1  0.4553970000000  0.4883620000000  0.4087010000000 1.0
C      1  0.4903560000000  0.6031870000000  0.4596100000000 1.0
C      1  0.5352890000000  0.4063080000000  0.4706680000000 1.0
C      1  0.5327020000000  0.5688100000000  0.5146290000000 1.0
C      1  0.4296540000000  0.4791020000000  0.4172040000000 1.0
C      1  0.5114120000000  0.5795150000000  0.5305850000000 1.0
C      1  0.5729790000000  0.5444940000000  0.4348490000000 1.0
C      1  0.5387760000000  0.4372280000000  0.5269480000000 1.0
C      1  0.4969720000000  0.4822100000000  0.4378510000000 1.0
C      1  0.5599650000000  0.5819720000000  0.5122950000000 1.0
C      1  0.4433560000000  0.4284250000000  0.5236450000000 1.0
C      1  0.5925680000000  0.5634260000000  0.4794780000000 1.0
C      1  0.5856150000000  0.5669820000000  0.5080820000000 1.0
C      1  0.5132760000000  0.4426700000000  0.4053370000000 1.0
C      1  0.4103360000000  0.5002430000000  0.4241530000000 1.0
C      1  0.4536930000000  0.6021990000000  0.5372120000000 1.0
C      1  0.5276500000000  0.3918930000000  0.4976480000000 1.0
C      1  0.4437260000000  0.5818080000000  0.4469090000000 1.0
C      1  0.5267970000000  0.5083000000000  0.5886600000000 1.0
C      1  0.5015210000000  0.4529690000000  0.5462700000000 1.0
C      1  0.4210310000000  0.5286310000000  0.4257870000000 1.0
C      1  0.4098510000000  0.5301270000000  0.4531690000000 1.0
C      1  0.6028340000000  0.4771900000000  0.5136510000000 1.0
C      1  0.4249440000000  0.5131630000000  0.5896310000000 1.0
C      1  0.4257830000000  0.4294020000000  0.4749320000000 1.0
C      1  0.4937510000000  0.4097770000000  0.4398670000000 1.0
C      1  0.4761500000000  0.5458900000000  0.4775870000000 1.0
C      1  0.4506380000000  0.4172140000000  0.4658050000000 1.0
C      1  0.5666890000000  0.4165970000000  0.4750590000000 1.0
C      1  0.5253540000000  0.5279230000000  0.5607450000000 1.0
C      1  0.4498160000000  0.4758950000000  0.6099810000000 1.0
C      1  0.5220550000000  0.4080380000000  0.4420690000000 1.0
C      1  0.5864680000000  0.4850830000000  0.5352330000000 1.0
C      1  0.4195740000000  0.5480980000000  0.4772060000000 1.0
C      1  0.5047630000000  0.4876980000000  0.5193340000000 1.0
C      1  0.4743520000000  0.4218870000000  0.4831640000000 1.0
C      1  0.4103330000000  0.4767940000000  0.4718660000000 1.0
C      1  0.5533380000000  0.5735150000000  0.5612420000000 1.0
C      1  0.4914000000000  0.4679730000000  0.4621820000000 1.0
C      1  0.4019110000000  0.4798310000000  0.5013260000000 1.0
C      1  0.4217480000000  0.4332650000000  0.5048940000000 1.0
C      1  0.4643270000000  0.5154430000000  0.4046660000000 1.0
C      1  0.5391340000000  0.5219630000000  0.3971340000000 1.0
C      1  0.5191270000000  0.4450040000000  0.5070070000000 1.0
C      1  0.5504050000000  0.5251400000000  0.5966170000000 1.0
C      1  0.5085110000000  0.5237670000000  0.6063070000000 1.0
C      1  0.5084460000000  0.4809260000000  0.5474640000000 1.0
C      1  0.5587410000000  0.4886320000000  0.5409090000000 1.0
C      1  0.4318310000000  0.5852430000000  0.5444830000000 1.0
C      1  0.3990820000000  0.5320170000000  0.4989990000000 1.0
C      1  0.4466240000000  0.5122480000000  0.5176060000000 1.0
C      1  0.4486370000000  0.5044640000000  0.6053980000000 1.0
C      1  0.5081730000000  0.4887050000000  0.3892820000000 1.0
C      1  0.5061290000000  0.3944530000000  0.5193310000000 1.0
C      1  0.5698490000000  0.5617730000000  0.4590710000000 1.0
C      1  0.4490300000000  0.5400820000000  0.5262160000000 1.0
C      1  0.5718960000000  0.4755340000000  0.5791330000000 1.0
C      1  0.4132020000000  0.4584160000000  0.5165880000000 1.0
C      1  0.4236920000000  0.4621780000000  0.5719730000000 1.0
C      1  0.5263120000000  0.4495480000000  0.5958890000000 1.0
C      1  0.4969110000000  0.4621280000000  0.3947930000000 1.0
C      1  0.4591630000000  0.5598180000000  0.4328820000000 1.0
C      1  0.5314570000000  0.5754500000000  0.4540790000000 1.0
C      1  0.5180800000000  0.5532240000000  0.4954940000000 1.0
C      1  0.4405830000000  0.4738120000000  0.4772870000000 1.0
C      1  0.5644240000000  0.4867780000000  0.4343240000000 1.0
C      1  0.4949530000000  0.6003150000000  0.5102510000000 1.0
C      1  0.4923590000000  0.5055430000000  0.5526650000000 1.0
END
