TITL C-883741-3679-459 -4.83523506159637 125000 -9213.12223221721 0 0 62 (C1) n - 1
REM
REM in /home/nfs/bkarasulu/CARBON/AIRSS/Generating-Clusters/ReaxFF-fromJPCA2015/Units_Real/with-SteepDescent/Only-C1/SD-CG/Try1-3A/FIRE-CG
REM
REM
REM
REM
REM
REM ./C.cell (11c1c37f851c82e70ff6c80c92926a4b)
REM
REM compiler GCC version 9.2.1 20190827 (Red Hat 9.2.1-1)
REM options -cpp -mtune=generic -march=x86-64 -g -O0 -fpre-include=/usr/include/finclude/math-vector-fortran.h
REM seed -823295996 150957497 -1227330361 -1385909670 1635509173 -2082548624 -861405216 1376890203 1749592267 -1326931645 1907497914 -1470814701 -614533736 -2118085824 -324288777 -991547811 -29649870 2038121255 810564290 -65470923 -1896392780 2030843016 -1133265970 738204144 -1664734921 1365237483 1722336765 902276275 204261101 -523385009 -932752333 -872879467 -2035288635
REM
CELL 1.54180   50.00000   50.00000   50.00000   90.00000   90.00000   90.00000
LATT -1
SFAC C  
C      1  0.4375130000000  0.5326220000000  0.4668860000000 1.0
C      1  0.5211050000000  0.4631770000000  0.4822190000000 1.0
C      1  0.5097840000000  0.4496710000000  0.4418950000000 1.0
C      1  0.4872130000000  0.5738630000000  0.5428560000000 1.0
C      1  0.5618160000000  0.5082410000000  0.4925110000000 1.0
C      1  0.5588910000000  0.5425730000000  0.5227500000000 1.0
C      1  0.4258150000000  0.4795680000000  0.4951880000000 1.0
C      1  0.4226460000000  0.4865350000000  0.4678700000000 1.0
C      1  0.4770330000000  0.5226890000000  0.4897700000000 1.0
C      1  0.5084410000000  0.4369250000000  0.4816000000000 1.0
C      1  0.5288170000000  0.5587570000000  0.4565100000000 1.0
C      1  0.4860240000000  0.4563160000000  0.5556170000000 1.0
C      1  0.5189820000000  0.5365510000000  0.5099650000000 1.0
C      1  0.4740610000000  0.4308890000000  0.5414340000000 1.0
C      1  0.5629220000000  0.5384770000000  0.4938000000000 1.0
C      1  0.4679860000000  0.4783580000000  0.5492210000000 1.0
C      1  0.4412240000000  0.5101760000000  0.5568210000000 1.0
C      1  0.5657320000000  0.4943470000000  0.4650310000000 1.0
C      1  0.5295550000000  0.4642230000000  0.4565270000000 1.0
C      1  0.4880320000000  0.5010200000000  0.5059600000000 1.0
C      1  0.4397600000000  0.4658800000000  0.4746950000000 1.0
C      1  0.4502560000000  0.5321200000000  0.4924970000000 1.0
C      1  0.4662520000000  0.4572350000000  0.4684380000000 1.0
C      1  0.4788960000000  0.5235410000000  0.4426900000000 1.0
C      1  0.5576630000000  0.4522130000000  0.5368640000000 1.0
C      1  0.4499380000000  0.5237560000000  0.4427570000000 1.0
C      1  0.5036190000000  0.5608900000000  0.4966400000000 1.0
C      1  0.5320460000000  0.5517460000000  0.5310870000000 1.0
C      1  0.4886740000000  0.4802430000000  0.4229120000000 1.0
C      1  0.5400790000000  0.5360440000000  0.4455630000000 1.0
C      1  0.4387870000000  0.4843220000000  0.5454960000000 1.0
C      1  0.5343010000000  0.4423970000000  0.5492610000000 1.0
C      1  0.4270840000000  0.5106590000000  0.4545010000000 1.0
C      1  0.5127710000000  0.5598850000000  0.5520590000000 1.0
C      1  0.5685220000000  0.4728550000000  0.5277230000000 1.0
C      1  0.4384270000000  0.5241610000000  0.5179690000000 1.0
C      1  0.4823350000000  0.4606500000000  0.4451220000000 1.0
C      1  0.5660860000000  0.5174380000000  0.5380840000000 1.0
C      1  0.4900260000000  0.5748970000000  0.5149000000000 1.0
C      1  0.4992280000000  0.5069330000000  0.4307040000000 1.0
C      1  0.4965700000000  0.5384630000000  0.5640760000000 1.0
C      1  0.5527200000000  0.5489310000000  0.4688260000000 1.0
C      1  0.5134990000000  0.4883970000000  0.4968900000000 1.0
C      1  0.5220660000000  0.4169690000000  0.5008820000000 1.0
C      1  0.4830980000000  0.4998070000000  0.5352690000000 1.0
C      1  0.5303300000000  0.4251040000000  0.5271440000000 1.0
C      1  0.4480100000000  0.5349330000000  0.5449040000000 1.0
C      1  0.5025660000000  0.5577650000000  0.4670180000000 1.0
C      1  0.5474790000000  0.5045760000000  0.5567370000000 1.0
C      1  0.4886920000000  0.5334060000000  0.4663760000000 1.0
C      1  0.4717420000000  0.5506610000000  0.5544520000000 1.0
C      1  0.5221930000000  0.4908780000000  0.5629280000000 1.0
C      1  0.5290980000000  0.5113420000000  0.4988960000000 1.0
C      1  0.5137650000000  0.4624360000000  0.5579060000000 1.0
C      1  0.5005440000000  0.5100340000000  0.5563730000000 1.0
C      1  0.4739550000000  0.4333720000000  0.5130140000000 1.0
C      1  0.4310570000000  0.4957500000000  0.5189060000000 1.0
C      1  0.4790600000000  0.4374970000000  0.4859790000000 1.0
C      1  0.5268570000000  0.5108350000000  0.4391130000000 1.0
C      1  0.5097150000000  0.4607680000000  0.4128910000000 1.0
C      1  0.5756070000000  0.4972110000000  0.5188650000000 1.0
C      1  0.5430360000000  0.4880240000000  0.4481610000000 1.0
END
