TITL C-883727-9645-284 30.1964055678779 125000 -19987.4876071646 0 0 136 (C1) n - 1
REM
REM in /home/nfs/bkarasulu/CARBON/AIRSS/Generating-Clusters/ReaxFF-fromJPCA2015/Units_Real/with-SteepDescent/Only-C1/SD-CG/Try1-3A/FIRE-CG
REM
REM
REM
REM
REM
REM ./C.cell (11c1c37f851c82e70ff6c80c92926a4b)
REM
REM compiler GCC version 9.2.1 20190827 (Red Hat 9.2.1-1)
REM options -cpp -mtune=generic -march=x86-64 -g -O0 -fpre-include=/usr/include/finclude/math-vector-fortran.h
REM seed 1274102463 -198627284 2023209944 -597469507 -558558803 -1559172046 -1521469095 1237908613 755626604 2093587277 -2021122939 771405580 1287850279 778306598 200639570 -1905093939 279583828 -1532131809 -776079520 320206713 -1250934140 141731413 811507158 1892758039 -113749802 -1458254141 -947521425 578710094 -1632564706 -52850287 218655226 -456315368 -164034024
REM
CELL 1.54180   50.00000   50.00000   50.00000   90.00000   90.00000   90.00000
LATT -1
SFAC C  
C      1  0.4232650000000  0.4400760000000  0.5296800000000 1.0
C      1  0.4704210000000  0.4304420000000  0.5148310000000 1.0
C      1  0.4552060000000  0.5560780000000  0.4621590000000 1.0
C      1  0.5423290000000  0.4063430000000  0.5255710000000 1.0
C      1  0.5559810000000  0.5729830000000  0.5475800000000 1.0
C      1  0.5263630000000  0.4233450000000  0.4380630000000 1.0
C      1  0.5421160000000  0.5053980000000  0.5868050000000 1.0
C      1  0.4628550000000  0.5948020000000  0.5206630000000 1.0
C      1  0.4071960000000  0.4610770000000  0.5172110000000 1.0
C      1  0.4022590000000  0.4828390000000  0.4475510000000 1.0
C      1  0.4434950000000  0.5411600000000  0.5781650000000 1.0
C      1  0.5239440000000  0.4974700000000  0.5108440000000 1.0
C      1  0.4796610000000  0.4250330000000  0.4487610000000 1.0
C      1  0.5206740000000  0.5288010000000  0.4500670000000 1.0
C      1  0.4896940000000  0.4567680000000  0.5852740000000 1.0
C      1  0.5099220000000  0.5283320000000  0.3997860000000 1.0
C      1  0.5274100000000  0.5396950000000  0.4232720000000 1.0
C      1  0.5481120000000  0.4609210000000  0.5003340000000 1.0
C      1  0.4801000000000  0.5617600000000  0.5459710000000 1.0
C      1  0.5024300000000  0.4153340000000  0.5619670000000 1.0
C      1  0.4297670000000  0.5333100000000  0.5028220000000 1.0
C      1  0.5168890000000  0.4383750000000  0.4624060000000 1.0
C      1  0.5095730000000  0.3999130000000  0.4893900000000 1.0
C      1  0.4895280000000  0.4542480000000  0.5120310000000 1.0
C      1  0.5105470000000  0.4417380000000  0.5718890000000 1.0
C      1  0.4628520000000  0.4995500000000  0.5764890000000 1.0
C      1  0.5700150000000  0.5226540000000  0.4535320000000 1.0
C      1  0.4986840000000  0.5012660000000  0.3945450000000 1.0
C      1  0.5510400000000  0.4367180000000  0.4404470000000 1.0
C      1  0.4410610000000  0.4287600000000  0.5074520000000 1.0
C      1  0.5594460000000  0.4555750000000  0.5874860000000 1.0
C      1  0.5479090000000  0.4533690000000  0.5391880000000 1.0
C      1  0.4847050000000  0.4763630000000  0.4008000000000 1.0
C      1  0.4329580000000  0.5487890000000  0.4443070000000 1.0
C      1  0.4648570000000  0.4425000000000  0.5817110000000 1.0
C      1  0.5003520000000  0.5320920000000  0.5875880000000 1.0
C      1  0.5504640000000  0.5039960000000  0.4598430000000 1.0
C      1  0.4620340000000  0.5311040000000  0.4750150000000 1.0
C      1  0.4568440000000  0.5067570000000  0.4598390000000 1.0
C      1  0.5274940000000  0.4913820000000  0.4228250000000 1.0
C      1  0.4641340000000  0.4806720000000  0.4213730000000 1.0
C      1  0.4288650000000  0.5255350000000  0.5557910000000 1.0
C      1  0.4831930000000  0.5372030000000  0.4016400000000 1.0
C      1  0.5611660000000  0.4848280000000  0.5808350000000 1.0
C      1  0.3990920000000  0.4790190000000  0.4773040000000 1.0
C      1  0.4982300000000  0.4289880000000  0.4261910000000 1.0
C      1  0.5594970000000  0.4901670000000  0.4839000000000 1.0
C      1  0.4903060000000  0.6081960000000  0.5240610000000 1.0
C      1  0.5146690000000  0.4039200000000  0.5373750000000 1.0
C      1  0.4126720000000  0.5308900000000  0.4557230000000 1.0
C      1  0.4924850000000  0.5295510000000  0.4485860000000 1.0
C      1  0.4423500000000  0.5594610000000  0.5101920000000 1.0
C      1  0.4672850000000  0.4196000000000  0.5394540000000 1.0
C      1  0.5358960000000  0.6000900000000  0.4742420000000 1.0
C      1  0.4694220000000  0.5807820000000  0.4695330000000 1.0
C      1  0.5132870000000  0.5066750000000  0.5902940000000 1.0
C      1  0.5772760000000  0.5575550000000  0.4755370000000 1.0
C      1  0.5671840000000  0.4738400000000  0.5363320000000 1.0
C      1  0.5880810000000  0.5306480000000  0.4778950000000 1.0
C      1  0.5900270000000  0.4848050000000  0.4787050000000 1.0
C      1  0.4063830000000  0.4890500000000  0.5245480000000 1.0
C      1  0.5879080000000  0.4696760000000  0.5211280000000 1.0
C      1  0.5528440000000  0.4880950000000  0.4378520000000 1.0
C      1  0.5095740000000  0.6128880000000  0.4780930000000 1.0
C      1  0.5750080000000  0.4488920000000  0.4993740000000 1.0
C      1  0.5014320000000  0.4514060000000  0.4078210000000 1.0
C      1  0.4766850000000  0.5436770000000  0.4279190000000 1.0
C      1  0.5200310000000  0.5717730000000  0.5227110000000 1.0
C      1  0.4979800000000  0.3913470000000  0.5156310000000 1.0
C      1  0.4485030000000  0.5359480000000  0.4227490000000 1.0
C      1  0.5627380000000  0.5514220000000  0.4506050000000 1.0
C      1  0.5851420000000  0.5334670000000  0.5296070000000 1.0
C      1  0.4183390000000  0.4982150000000  0.5507090000000 1.0
C      1  0.4319640000000  0.4365020000000  0.4813490000000 1.0
C      1  0.5373000000000  0.5263950000000  0.5438900000000 1.0
C      1  0.5143200000000  0.4607560000000  0.4446210000000 1.0
C      1  0.4362220000000  0.4840460000000  0.5691290000000 1.0
C      1  0.5799610000000  0.5185180000000  0.5550310000000 1.0
C      1  0.5962320000000  0.5187580000000  0.5030070000000 1.0
C      1  0.4005400000000  0.5001630000000  0.4971730000000 1.0
C      1  0.5581230000000  0.4374800000000  0.5638030000000 1.0
C      1  0.5216480000000  0.5367610000000  0.4783630000000 1.0
C      1  0.5170110000000  0.5102170000000  0.4879500000000 1.0
C      1  0.4794100000000  0.5037380000000  0.5153160000000 1.0
C      1  0.5180890000000  0.5066300000000  0.5376450000000 1.0
C      1  0.4406310000000  0.5054700000000  0.5028410000000 1.0
C      1  0.4445210000000  0.5067940000000  0.4292240000000 1.0
C      1  0.4541260000000  0.4982350000000  0.5266820000000 1.0
C      1  0.4331380000000  0.4454260000000  0.5544800000000 1.0
C      1  0.5498840000000  0.5934500000000  0.4998530000000 1.0
C      1  0.4152440000000  0.5078660000000  0.4380770000000 1.0
C      1  0.4548850000000  0.4413160000000  0.4564130000000 1.0
C      1  0.5012780000000  0.5470340000000  0.4960970000000 1.0
C      1  0.5446530000000  0.5576490000000  0.5699620000000 1.0
C      1  0.4691740000000  0.5280500000000  0.5856760000000 1.0
C      1  0.4958930000000  0.4200650000000  0.4723920000000 1.0
C      1  0.5247610000000  0.4597260000000  0.5541110000000 1.0
C      1  0.5660110000000  0.4600230000000  0.4462710000000 1.0
C      1  0.4867760000000  0.5026220000000  0.4561470000000 1.0
C      1  0.5126550000000  0.6119540000000  0.5067240000000 1.0
C      1  0.4462590000000  0.4889840000000  0.4796970000000 1.0
C      1  0.5076750000000  0.4828970000000  0.5511140000000 1.0
C      1  0.5557150000000  0.5282390000000  0.5705550000000 1.0
C      1  0.4899500000000  0.4792350000000  0.5269250000000 1.0
C      1  0.4999530000000  0.4921810000000  0.4796050000000 1.0
C      1  0.5753120000000  0.5637190000000  0.5279430000000 1.0
C      1  0.5555480000000  0.5279230000000  0.5215310000000 1.0
C      1  0.5007360000000  0.4843830000000  0.4375530000000 1.0
C      1  0.4891440000000  0.4660610000000  0.4860280000000 1.0
C      1  0.5232780000000  0.5813630000000  0.4542790000000 1.0
C      1  0.5830700000000  0.4584670000000  0.4698710000000 1.0
C      1  0.5389940000000  0.4019020000000  0.4962360000000 1.0
C      1  0.4922770000000  0.4860590000000  0.5807540000000 1.0
C      1  0.4729730000000  0.4176180000000  0.5665960000000 1.0
C      1  0.4614530000000  0.4641340000000  0.4757810000000 1.0
C      1  0.5591220000000  0.4194200000000  0.5062900000000 1.0
C      1  0.4961840000000  0.5909960000000  0.4619910000000 1.0
C      1  0.4798660000000  0.5271340000000  0.4975800000000 1.0
C      1  0.5389110000000  0.5627150000000  0.4365860000000 1.0
C      1  0.4541340000000  0.5703760000000  0.5352960000000 1.0
C      1  0.5706040000000  0.5734870000000  0.5005630000000 1.0
C      1  0.4094020000000  0.4541850000000  0.4884270000000 1.0
C      1  0.4223680000000  0.4673360000000  0.4360680000000 1.0
C      1  0.4553830000000  0.5146340000000  0.5503960000000 1.0
C      1  0.5276490000000  0.4627760000000  0.4163300000000 1.0
C      1  0.6013020000000  0.4902690000000  0.5052250000000 1.0
C      1  0.5018400000000  0.5570030000000  0.5236220000000 1.0
C      1  0.5390190000000  0.5903450000000  0.5282720000000 1.0
C      1  0.4545660000000  0.5823740000000  0.4952180000000 1.0
C      1  0.4475570000000  0.4578650000000  0.4301500000000 1.0
C      1  0.5786890000000  0.4897580000000  0.5563010000000 1.0
C      1  0.5507380000000  0.5043000000000  0.5073270000000 1.0
C      1  0.5165910000000  0.5557970000000  0.5803780000000 1.0
C      1  0.4400450000000  0.4564560000000  0.5740620000000 1.0
C      1  0.4079030000000  0.5261870000000  0.4849850000000 1.0
C      1  0.4932070000000  0.5723850000000  0.5703680000000 1.0
END
