TITL C-884130-5973-191 -7.08642311578482 125000 -6974.50170549917 0 0 47 (C1) n - 1
REM
REM in /home/nfs/bkarasulu/CARBON/AIRSS/Generating-Clusters/ReaxFF-fromJPCA2015/Units_Real/with-SteepDescent/Only-C1/SD-CG/Try1-3A/FIRE-CG
REM
REM
REM
REM
REM
REM ./C.cell (11c1c37f851c82e70ff6c80c92926a4b)
REM
REM compiler GCC version 9.2.1 20190827 (Red Hat 9.2.1-1)
REM options -cpp -mtune=generic -march=x86-64 -g -O0 -fpre-include=/usr/include/finclude/math-vector-fortran.h
REM seed -2103194752 -1925236163 2011864189 1630964206 -60253628 1812519320 1863408566 -863231639 -636859346 -925756995 1155135606 568797986 706371574 -643675403 1876378073 1374623270 1387084388 156312123 -709104303 -802387154 863875249 -1271853793 1272214513 -1898243239 1253956682 1032425652 1120521252 -846319584 865137618 614063055 -325568628 1145774707 1497873573
REM
CELL 1.54180   50.00000   50.00000   50.00000   90.00000   90.00000   90.00000
LATT -1
SFAC C  
C      1  0.5141840000000  0.5054600000000  0.5322080000000 1.0
C      1  0.5636050000000  0.4769150000000  0.4881650000000 1.0
C      1  0.4696620000000  0.5038560000000  0.5506070000000 1.0
C      1  0.4386080000000  0.5115620000000  0.4671000000000 1.0
C      1  0.5730580000000  0.5261810000000  0.4975630000000 1.0
C      1  0.5528700000000  0.5335280000000  0.4760300000000 1.0
C      1  0.5723700000000  0.4975510000000  0.5065600000000 1.0
C      1  0.4376640000000  0.4594650000000  0.5445690000000 1.0
C      1  0.4670480000000  0.5389190000000  0.4460980000000 1.0
C      1  0.4915280000000  0.5229300000000  0.4493710000000 1.0
C      1  0.4895800000000  0.4985710000000  0.4319180000000 1.0
C      1  0.4849810000000  0.5708600000000  0.4791200000000 1.0
C      1  0.4525630000000  0.4526360000000  0.5197050000000 1.0
C      1  0.5067840000000  0.5258140000000  0.4748910000000 1.0
C      1  0.5406820000000  0.5605200000000  0.4750410000000 1.0
C      1  0.4477610000000  0.4699340000000  0.4448080000000 1.0
C      1  0.4929360000000  0.4393850000000  0.5017860000000 1.0
C      1  0.5118410000000  0.4780520000000  0.4805590000000 1.0
C      1  0.4989080000000  0.4599170000000  0.5434260000000 1.0
C      1  0.4420740000000  0.4822970000000  0.4711680000000 1.0
C      1  0.5405670000000  0.5095620000000  0.5443400000000 1.0
C      1  0.5382060000000  0.4846930000000  0.4742040000000 1.0
C      1  0.4615490000000  0.5541660000000  0.4707290000000 1.0
C      1  0.4476600000000  0.5180210000000  0.4402430000000 1.0
C      1  0.4895730000000  0.4654500000000  0.4887420000000 1.0
C      1  0.4448340000000  0.4891630000000  0.5440300000000 1.0
C      1  0.5439630000000  0.5395200000000  0.5413910000000 1.0
C      1  0.4898420000000  0.5471520000000  0.5305360000000 1.0
C      1  0.4946850000000  0.4889710000000  0.5463600000000 1.0
C      1  0.4471070000000  0.5326870000000  0.4855340000000 1.0
C      1  0.5323470000000  0.5128690000000  0.4719240000000 1.0
C      1  0.5249880000000  0.4494680000000  0.5361330000000 1.0
C      1  0.5438760000000  0.4322220000000  0.5033770000000 1.0
C      1  0.4600290000000  0.4933090000000  0.4293240000000 1.0
C      1  0.5633980000000  0.4523630000000  0.5044220000000 1.0
C      1  0.5640380000000  0.5359480000000  0.5221140000000 1.0
C      1  0.4797680000000  0.4432250000000  0.5274830000000 1.0
C      1  0.5514170000000  0.4621340000000  0.5309660000000 1.0
C      1  0.4451220000000  0.4946390000000  0.5150400000000 1.0
C      1  0.5106000000000  0.5553110000000  0.4766010000000 1.0
C      1  0.5069360000000  0.5284700000000  0.5138820000000 1.0
C      1  0.5181700000000  0.4290190000000  0.5143000000000 1.0
C      1  0.4673280000000  0.5294470000000  0.5363050000000 1.0
C      1  0.4573820000000  0.4737800000000  0.4963180000000 1.0
C      1  0.5591430000000  0.4900780000000  0.5323150000000 1.0
C      1  0.5186330000000  0.5506210000000  0.5299420000000 1.0
C      1  0.4501290000000  0.5233590000000  0.5127510000000 1.0
END
