TITL C-883739-1268-244 2.70033328613732 125000 -11554.1759261258 0 0 78 (C1) n - 1
REM
REM in /home/nfs/bkarasulu/CARBON/AIRSS/Generating-Clusters/ReaxFF-fromJPCA2015/Units_Real/with-SteepDescent/Only-C1/SD-CG/Try1-3A/FIRE-CG
REM
REM
REM
REM
REM
REM ./C.cell (11c1c37f851c82e70ff6c80c92926a4b)
REM
REM compiler GCC version 9.2.1 20190827 (Red Hat 9.2.1-1)
REM options -cpp -mtune=generic -march=x86-64 -g -O0 -fpre-include=/usr/include/finclude/math-vector-fortran.h
REM seed 1038531582 -2047914092 1822442147 1864959678 -987788278 2041530080 1967033427 161995229 -1320292674 -12844216 1674472907 1643511123 1297113515 -195553064 1939411618 1969071812 2126069797 -2031116581 939461926 -523964485 -1721054710 1306775270 -1633274359 508120114 545747241 -1228342151 611928832 -146879933 2138449078 563211564 -1540634474 1730292820 -1012448906
REM
CELL 1.54180   50.00000   50.00000   50.00000   90.00000   90.00000   90.00000
LATT -1
SFAC C  
C      1  0.5076000000000  0.5157590000000  0.4331350000000 1.0
C      1  0.5028770000000  0.5079510000000  0.4617830000000 1.0
C      1  0.4573070000000  0.5051820000000  0.4205130000000 1.0
C      1  0.5685670000000  0.5107690000000  0.5332870000000 1.0
C      1  0.4328750000000  0.4825990000000  0.4567220000000 1.0
C      1  0.4400270000000  0.5087450000000  0.5688460000000 1.0
C      1  0.5459570000000  0.4532000000000  0.4574830000000 1.0
C      1  0.5111300000000  0.5532640000000  0.5468110000000 1.0
C      1  0.4529360000000  0.5270290000000  0.4400470000000 1.0
C      1  0.4221610000000  0.5120320000000  0.5477590000000 1.0
C      1  0.4623230000000  0.4425120000000  0.4931050000000 1.0
C      1  0.4430610000000  0.5095860000000  0.4614590000000 1.0
C      1  0.5684150000000  0.4830960000000  0.5458560000000 1.0
C      1  0.5828640000000  0.5187810000000  0.4753850000000 1.0
C      1  0.5197850000000  0.5691990000000  0.4821610000000 1.0
C      1  0.4855380000000  0.4978220000000  0.4194760000000 1.0
C      1  0.5224940000000  0.4732910000000  0.5036700000000 1.0
C      1  0.5526820000000  0.4401900000000  0.5010530000000 1.0
C      1  0.4883380000000  0.4216890000000  0.5477420000000 1.0
C      1  0.5024450000000  0.4635030000000  0.4858140000000 1.0
C      1  0.5668790000000  0.5344480000000  0.4523730000000 1.0
C      1  0.4836940000000  0.5590670000000  0.5363640000000 1.0
C      1  0.5129040000000  0.4143550000000  0.5362810000000 1.0
C      1  0.5166640000000  0.5177440000000  0.4851490000000 1.0
C      1  0.4474010000000  0.5137870000000  0.4898360000000 1.0
C      1  0.4241910000000  0.5451110000000  0.5116860000000 1.0
C      1  0.4877090000000  0.5074740000000  0.5845140000000 1.0
C      1  0.4193570000000  0.5212570000000  0.4944620000000 1.0
C      1  0.5156110000000  0.5383950000000  0.5727250000000 1.0
C      1  0.4511360000000  0.4786230000000  0.4338320000000 1.0
C      1  0.4768310000000  0.4667100000000  0.5014010000000 1.0
C      1  0.5355370000000  0.4348860000000  0.4780550000000 1.0
C      1  0.5756020000000  0.4544830000000  0.4918020000000 1.0
C      1  0.5422750000000  0.4709940000000  0.5474690000000 1.0
C      1  0.4600190000000  0.4947120000000  0.5094740000000 1.0
C      1  0.4658820000000  0.5354520000000  0.5373270000000 1.0
C      1  0.5151800000000  0.5093190000000  0.5781740000000 1.0
C      1  0.5299290000000  0.4345070000000  0.5338910000000 1.0
C      1  0.5263210000000  0.5000930000000  0.5048980000000 1.0
C      1  0.4983270000000  0.5446830000000  0.4416920000000 1.0
C      1  0.5294770000000  0.4727630000000  0.4437000000000 1.0
C      1  0.4589200000000  0.5647950000000  0.4728390000000 1.0
C      1  0.5269030000000  0.5411700000000  0.5253560000000 1.0
C      1  0.5005000000000  0.5874880000000  0.4946370000000 1.0
C      1  0.4360850000000  0.5359930000000  0.5377600000000 1.0
C      1  0.5066960000000  0.4340570000000  0.4812820000000 1.0
C      1  0.5215900000000  0.4931610000000  0.5522130000000 1.0
C      1  0.4214150000000  0.4727090000000  0.4821580000000 1.0
C      1  0.4621150000000  0.5067530000000  0.5815630000000 1.0
C      1  0.4358520000000  0.4533790000000  0.4995450000000 1.0
C      1  0.4825780000000  0.5811500000000  0.5171540000000 1.0
C      1  0.5727910000000  0.4625460000000  0.4650690000000 1.0
C      1  0.4708010000000  0.5481050000000  0.4490770000000 1.0
C      1  0.4380650000000  0.4728370000000  0.5213540000000 1.0
C      1  0.5825940000000  0.4765620000000  0.5009870000000 1.0
C      1  0.4716340000000  0.5857780000000  0.4898440000000 1.0
C      1  0.4089160000000  0.4937590000000  0.4998310000000 1.0
C      1  0.5353280000000  0.5129930000000  0.5295030000000 1.0
C      1  0.5217090000000  0.5440470000000  0.4969690000000 1.0
C      1  0.5356900000000  0.4983760000000  0.4335010000000 1.0
C      1  0.4920770000000  0.4890140000000  0.5447380000000 1.0
C      1  0.4842020000000  0.4667340000000  0.5316640000000 1.0
C      1  0.5442920000000  0.5501660000000  0.4536460000000 1.0
C      1  0.5854550000000  0.5348230000000  0.5399220000000 1.0
C      1  0.5014480000000  0.4784540000000  0.4565730000000 1.0
C      1  0.4158200000000  0.4897280000000  0.5280950000000 1.0
C      1  0.4842080000000  0.4226370000000  0.4953480000000 1.0
C      1  0.5771710000000  0.4927340000000  0.4628440000000 1.0
C      1  0.4870950000000  0.4488640000000  0.5473140000000 1.0
C      1  0.5370160000000  0.4554280000000  0.5223440000000 1.0
C      1  0.4801980000000  0.4734800000000  0.4341090000000 1.0
C      1  0.5618890000000  0.5075510000000  0.4403630000000 1.0
C      1  0.4404100000000  0.5576230000000  0.4921330000000 1.0
C      1  0.4756360000000  0.5086560000000  0.5309460000000 1.0
C      1  0.4904790000000  0.4095980000000  0.5208590000000 1.0
C      1  0.5838160000000  0.4871060000000  0.5236920000000 1.0
C      1  0.5196830000000  0.5625910000000  0.4527270000000 1.0
C      1  0.5986170000000  0.5540930000000  0.5448320000000 1.0
END
