TITL C-884140-4336-350 -39.2172052741687 125000 -16032.6658515345 0 0 105 (C1) n - 1
REM
REM in /home/nfs/bkarasulu/CARBON/AIRSS/Generating-Clusters/ReaxFF-fromJPCA2015/Units_Real/with-SteepDescent/Only-C1/SD-CG/Try1-3A/FIRE-CG
REM
REM
REM
REM
REM
REM ./C.cell (11c1c37f851c82e70ff6c80c92926a4b)
REM
REM compiler GCC version 9.2.1 20190827 (Red Hat 9.2.1-1)
REM options -cpp -mtune=generic -march=x86-64 -g -O0 -fpre-include=/usr/include/finclude/math-vector-fortran.h
REM seed -1328778162 490840622 1972812421 -689362735 1331011822 -278189845 -1997145106 -1360893402 162731104 326736555 -1938437276 827520989 183751446 -197801663 -1253975336 -1898308432 -943554032 16248982 915755765 798265934 1565224193 1807885539 -1927212043 1460370264 -1014812185 810036178 130321478 1441507662 1592598688 -424716975 -303434109 -317886296 521025212
REM
CELL 1.54180   50.00000   50.00000   50.00000   90.00000   90.00000   90.00000
LATT -1
SFAC C  
C      1  0.4567470000000  0.5000250000000  0.4718530000000 1.0
C      1  0.4789280000000  0.5176990000000  0.5854530000000 1.0
C      1  0.4991870000000  0.4729010000000  0.4070590000000 1.0
C      1  0.4264240000000  0.5439810000000  0.4871880000000 1.0
C      1  0.4560080000000  0.4703570000000  0.4691190000000 1.0
C      1  0.4869180000000  0.4881070000000  0.4273900000000 1.0
C      1  0.5294290000000  0.5098240000000  0.4848830000000 1.0
C      1  0.5664780000000  0.4884410000000  0.4539980000000 1.0
C      1  0.4552100000000  0.5634050000000  0.5129470000000 1.0
C      1  0.4831590000000  0.5052540000000  0.5178770000000 1.0
C      1  0.4920860000000  0.4774890000000  0.5242870000000 1.0
C      1  0.5260500000000  0.5380210000000  0.4244910000000 1.0
C      1  0.5563020000000  0.5311710000000  0.4267560000000 1.0
C      1  0.4592520000000  0.4858920000000  0.4254850000000 1.0
C      1  0.5596290000000  0.4712850000000  0.4904450000000 1.0
C      1  0.5873820000000  0.4431700000000  0.5240690000000 1.0
C      1  0.5176350000000  0.5412190000000  0.5171140000000 1.0
C      1  0.4225350000000  0.5322210000000  0.5341370000000 1.0
C      1  0.5529490000000  0.5705900000000  0.4807630000000 1.0
C      1  0.5242460000000  0.4465290000000  0.5758820000000 1.0
C      1  0.5229620000000  0.5688070000000  0.5212990000000 1.0
C      1  0.4225840000000  0.5472010000000  0.4572070000000 1.0
C      1  0.5639320000000  0.5025060000000  0.4286070000000 1.0
C      1  0.5131040000000  0.4318110000000  0.4382830000000 1.0
C      1  0.5399930000000  0.4438290000000  0.4559830000000 1.0
C      1  0.4306540000000  0.4786030000000  0.5424910000000 1.0
C      1  0.5458760000000  0.5031600000000  0.5323750000000 1.0
C      1  0.4857940000000  0.5442480000000  0.4502680000000 1.0
C      1  0.4872270000000  0.4285790000000  0.5657460000000 1.0
C      1  0.4835050000000  0.4235090000000  0.4851740000000 1.0
C      1  0.5044270000000  0.4853570000000  0.4508480000000 1.0
C      1  0.5471020000000  0.5358460000000  0.5644200000000 1.0
C      1  0.4533190000000  0.5142690000000  0.4266870000000 1.0
C      1  0.4910170000000  0.4116230000000  0.5131360000000 1.0
C      1  0.5865330000000  0.5438230000000  0.5001220000000 1.0
C      1  0.5067010000000  0.5199650000000  0.4130540000000 1.0
C      1  0.5686790000000  0.5401980000000  0.5472380000000 1.0
C      1  0.5688020000000  0.5384050000000  0.4494940000000 1.0
C      1  0.5145770000000  0.4269430000000  0.5543300000000 1.0
C      1  0.5188780000000  0.4939440000000  0.4047730000000 1.0
C      1  0.4809230000000  0.5890780000000  0.4798360000000 1.0
C      1  0.5544120000000  0.4971550000000  0.4786710000000 1.0
C      1  0.4980620000000  0.5822900000000  0.5285680000000 1.0
C      1  0.4978450000000  0.5385400000000  0.5770570000000 1.0
C      1  0.4877380000000  0.5423400000000  0.5519650000000 1.0
C      1  0.5953610000000  0.4994540000000  0.5271520000000 1.0
C      1  0.5326720000000  0.5193040000000  0.5109620000000 1.0
C      1  0.4764840000000  0.5831700000000  0.5091790000000 1.0
C      1  0.4784570000000  0.5200190000000  0.4730240000000 1.0
C      1  0.4662950000000  0.4226410000000  0.5236910000000 1.0
C      1  0.5648860000000  0.4602980000000  0.4633610000000 1.0
C      1  0.5354710000000  0.4743210000000  0.5771020000000 1.0
C      1  0.5305730000000  0.4306590000000  0.4814510000000 1.0
C      1  0.4726450000000  0.4388030000000  0.4328290000000 1.0
C      1  0.4294830000000  0.5219560000000  0.4422500000000 1.0
C      1  0.4575660000000  0.4789560000000  0.5746850000000 1.0
C      1  0.5029200000000  0.4796750000000  0.5507040000000 1.0
C      1  0.5070950000000  0.5848640000000  0.4732600000000 1.0
C      1  0.4276780000000  0.5057610000000  0.4662890000000 1.0
C      1  0.5986200000000  0.4702910000000  0.5252560000000 1.0
C      1  0.5723320000000  0.5107480000000  0.5424830000000 1.0
C      1  0.5499880000000  0.5726500000000  0.5096280000000 1.0
C      1  0.5124590000000  0.4628810000000  0.5083280000000 1.0
C      1  0.4561180000000  0.5144960000000  0.5168290000000 1.0
C      1  0.4574540000000  0.5686010000000  0.5538090000000 1.0
C      1  0.4635570000000  0.4354810000000  0.5493910000000 1.0
C      1  0.5707040000000  0.5558510000000  0.5212900000000 1.0
C      1  0.5745730000000  0.5526030000000  0.4724910000000 1.0
C      1  0.4967440000000  0.4970320000000  0.5959080000000 1.0
C      1  0.5260140000000  0.5270910000000  0.5806180000000 1.0
C      1  0.5038770000000  0.5049020000000  0.4722230000000 1.0
C      1  0.4863630000000  0.5712350000000  0.5542030000000 1.0
C      1  0.4445130000000  0.5642030000000  0.4557950000000 1.0
C      1  0.5143050000000  0.5531950000000  0.4453680000000 1.0
C      1  0.5426270000000  0.4622480000000  0.5125960000000 1.0
C      1  0.4121280000000  0.4685450000000  0.5241120000000 1.0
C      1  0.5246800000000  0.4986400000000  0.5906370000000 1.0
C      1  0.4473690000000  0.4595120000000  0.5555750000000 1.0
C      1  0.4369610000000  0.5587380000000  0.5368570000000 1.0
C      1  0.5293330000000  0.5738100000000  0.4623150000000 1.0
C      1  0.5163990000000  0.4168980000000  0.5265280000000 1.0
C      1  0.4979930000000  0.4451650000000  0.4170000000000 1.0
C      1  0.4891580000000  0.4237740000000  0.4517180000000 1.0
C      1  0.4546500000000  0.5373290000000  0.4974680000000 1.0
C      1  0.5574050000000  0.4388960000000  0.5220500000000 1.0
C      1  0.4017830000000  0.4800000000000  0.5006520000000 1.0
C      1  0.4559840000000  0.5069820000000  0.5710850000000 1.0
C      1  0.5311650000000  0.4844700000000  0.5494870000000 1.0
C      1  0.4109840000000  0.5293600000000  0.5070710000000 1.0
C      1  0.5412370000000  0.4848270000000  0.4213480000000 1.0
C      1  0.4979170000000  0.5284030000000  0.5298910000000 1.0
C      1  0.4974510000000  0.4461810000000  0.5869090000000 1.0
C      1  0.4082310000000  0.5059410000000  0.4892340000000 1.0
C      1  0.5058670000000  0.4447760000000  0.4874300000000 1.0
C      1  0.4802660000000  0.5268040000000  0.4256220000000 1.0
C      1  0.6013230000000  0.5187780000000  0.5049330000000 1.0
C      1  0.5396370000000  0.4203130000000  0.5079570000000 1.0
C      1  0.4556750000000  0.4617580000000  0.4415000000000 1.0
C      1  0.4584030000000  0.4303770000000  0.4971370000000 1.0
C      1  0.4181110000000  0.4568530000000  0.5001340000000 1.0
C      1  0.4705440000000  0.5724170000000  0.4564420000000 1.0
C      1  0.4393410000000  0.5087630000000  0.5438290000000 1.0
C      1  0.5295180000000  0.4719900000000  0.4449710000000 1.0
C      1  0.4437290000000  0.4527820000000  0.4892550000000 1.0
C      1  0.4877240000000  0.4739200000000  0.5798660000000 1.0
END
