TITL C-884129-4740-425 71.7542632042753 125000 -24061.6468738651 0 0 164 (C1) n - 1
REM
REM in /home/nfs/bkarasulu/CARBON/AIRSS/Generating-Clusters/ReaxFF-fromJPCA2015/Units_Real/with-SteepDescent/Only-C1/SD-CG/Try1-3A/FIRE-CG
REM
REM
REM
REM
REM
REM ./C.cell (11c1c37f851c82e70ff6c80c92926a4b)
REM
REM compiler GCC version 9.2.1 20190827 (Red Hat 9.2.1-1)
REM options -cpp -mtune=generic -march=x86-64 -g -O0 -fpre-include=/usr/include/finclude/math-vector-fortran.h
REM seed 1724922348 -280824495 -1615083022 -1959380154 -2131140278 1676801195 -1729281310 -496865743 -1454239383 1269976284 -1502276209 1397622003 -1383167476 -118951342 -275262189 -1358237427 -1883794401 1746382388 -2003654792 311512218 -868324170 -142643047 1130361625 -367736389 -125709688 -118389538 -906291848 -1625635229 -530078808 1073161733 -228675153 1874210526 -486296264
REM
CELL 1.54180   50.00000   50.00000   50.00000   90.00000   90.00000   90.00000
LATT -1
SFAC C  
C      1  0.5920100000000  0.5155470000000  0.5069360000000 1.0
C      1  0.4945930000000  0.5045520000000  0.5206590000000 1.0
C      1  0.4390730000000  0.4462310000000  0.5578400000000 1.0
C      1  0.4763920000000  0.4003110000000  0.4632590000000 1.0
C      1  0.5430320000000  0.5209400000000  0.5375980000000 1.0
C      1  0.4192990000000  0.4840080000000  0.5228080000000 1.0
C      1  0.4531010000000  0.5419290000000  0.4709140000000 1.0
C      1  0.4143640000000  0.4685340000000  0.4581460000000 1.0
C      1  0.4623710000000  0.4832230000000  0.5931260000000 1.0
C      1  0.4678970000000  0.5462080000000  0.4938600000000 1.0
C      1  0.4962070000000  0.4412730000000  0.4082490000000 1.0
C      1  0.5574150000000  0.4912650000000  0.4141160000000 1.0
C      1  0.4917530000000  0.5986590000000  0.4785450000000 1.0
C      1  0.5059340000000  0.4296490000000  0.4617040000000 1.0
C      1  0.4446140000000  0.4784310000000  0.4210740000000 1.0
C      1  0.5451880000000  0.5533670000000  0.4989230000000 1.0
C      1  0.4280340000000  0.5719950000000  0.5504130000000 1.0
C      1  0.6085870000000  0.4746660000000  0.5155010000000 1.0
C      1  0.4696180000000  0.5829290000000  0.5205040000000 1.0
C      1  0.4505220000000  0.5275680000000  0.4123840000000 1.0
C      1  0.4983640000000  0.3847410000000  0.5476600000000 1.0
C      1  0.4205850000000  0.5300390000000  0.5213630000000 1.0
C      1  0.4737960000000  0.5448910000000  0.4072300000000 1.0
C      1  0.4824800000000  0.4397990000000  0.5822870000000 1.0
C      1  0.5087000000000  0.4020330000000  0.4981810000000 1.0
C      1  0.5532020000000  0.4161310000000  0.4686300000000 1.0
C      1  0.4353500000000  0.5124640000000  0.5567920000000 1.0
C      1  0.4300350000000  0.4391190000000  0.5038520000000 1.0
C      1  0.4711660000000  0.4988390000000  0.4661010000000 1.0
C      1  0.5002300000000  0.5540940000000  0.4605650000000 1.0
C      1  0.4534380000000  0.4559700000000  0.4842990000000 1.0
C      1  0.5068760000000  0.4424900000000  0.5985610000000 1.0
C      1  0.5159430000000  0.5997900000000  0.4931000000000 1.0
C      1  0.4839820000000  0.5925630000000  0.4161990000000 1.0
C      1  0.5089670000000  0.5937870000000  0.4519190000000 1.0
C      1  0.4098000000000  0.5094320000000  0.4345210000000 1.0
C      1  0.5636290000000  0.5425910000000  0.4226120000000 1.0
C      1  0.5257820000000  0.3968520000000  0.4755510000000 1.0
C      1  0.5643460000000  0.4356610000000  0.4428790000000 1.0
C      1  0.4701360000000  0.4340100000000  0.4207940000000 1.0
C      1  0.4939410000000  0.4420660000000  0.5550620000000 1.0
C      1  0.4485260000000  0.5129760000000  0.4694250000000 1.0
C      1  0.5474400000000  0.3967870000000  0.5287710000000 1.0
C      1  0.4662000000000  0.5911700000000  0.4922080000000 1.0
C      1  0.5199410000000  0.5603740000000  0.5142240000000 1.0
C      1  0.4552180000000  0.5358810000000  0.5846670000000 1.0
C      1  0.4016260000000  0.4878730000000  0.5464360000000 1.0
C      1  0.4812140000000  0.4935540000000  0.3983180000000 1.0
C      1  0.3981440000000  0.5250900000000  0.5065450000000 1.0
C      1  0.5635130000000  0.4457670000000  0.5315590000000 1.0
C      1  0.4092650000000  0.5170380000000  0.5450270000000 1.0
C      1  0.5472710000000  0.5194410000000  0.4109290000000 1.0
C      1  0.5841050000000  0.4581650000000  0.4432080000000 1.0
C      1  0.4550810000000  0.5614540000000  0.5622510000000 1.0
C      1  0.5022410000000  0.5619190000000  0.5720780000000 1.0
C      1  0.4371770000000  0.4133560000000  0.4591440000000 1.0
C      1  0.4870180000000  0.4907960000000  0.6072720000000 1.0
C      1  0.4807750000000  0.4610390000000  0.5363200000000 1.0
C      1  0.5148020000000  0.5033490000000  0.4542210000000 1.0
C      1  0.4158290000000  0.4653770000000  0.5590270000000 1.0
C      1  0.5702280000000  0.4145480000000  0.4935400000000 1.0
C      1  0.6008980000000  0.4507620000000  0.5172590000000 1.0
C      1  0.4262620000000  0.5325200000000  0.4279280000000 1.0
C      1  0.5228160000000  0.5270180000000  0.5939140000000 1.0
C      1  0.4144750000000  0.5464410000000  0.4518230000000 1.0
C      1  0.4961910000000  0.5504870000000  0.4905200000000 1.0
C      1  0.5892310000000  0.5103870000000  0.4495580000000 1.0
C      1  0.4945410000000  0.5578040000000  0.5960620000000 1.0
C      1  0.4929000000000  0.4554240000000  0.5092570000000 1.0
C      1  0.4221640000000  0.4163800000000  0.4835390000000 1.0
C      1  0.5499310000000  0.4466250000000  0.4236720000000 1.0
C      1  0.4591270000000  0.4566390000000  0.5830660000000 1.0
C      1  0.5224410000000  0.5398960000000  0.5359920000000 1.0
C      1  0.5063150000000  0.4952290000000  0.3966130000000 1.0
C      1  0.5375810000000  0.5265390000000  0.4925920000000 1.0
C      1  0.4356360000000  0.4609650000000  0.4643050000000 1.0
C      1  0.5788620000000  0.4845990000000  0.4312860000000 1.0
C      1  0.5685020000000  0.4826090000000  0.5847440000000 1.0
C      1  0.5529500000000  0.4616940000000  0.5857130000000 1.0
C      1  0.4551170000000  0.5344980000000  0.5165340000000 1.0
C      1  0.5786450000000  0.5841390000000  0.5120030000000 1.0
C      1  0.4013410000000  0.4799460000000  0.4819880000000 1.0
C      1  0.5137500000000  0.4821540000000  0.5768070000000 1.0
C      1  0.5024360000000  0.5462240000000  0.4127210000000 1.0
C      1  0.4617290000000  0.4132750000000  0.4417660000000 1.0
C      1  0.4469040000000  0.5089790000000  0.5828460000000 1.0
C      1  0.4941930000000  0.4838820000000  0.5564050000000 1.0
C      1  0.5314510000000  0.4424060000000  0.5821890000000 1.0
C      1  0.4385010000000  0.5868580000000  0.4823830000000 1.0
C      1  0.5203040000000  0.4628270000000  0.5097010000000 1.0
C      1  0.5608470000000  0.4807840000000  0.4751850000000 1.0
C      1  0.5674290000000  0.5767930000000  0.5389030000000 1.0
C      1  0.5037060000000  0.5361570000000  0.5567270000000 1.0
C      1  0.5490010000000  0.5057270000000  0.5592500000000 1.0
C      1  0.5272200000000  0.5461610000000  0.4497760000000 1.0
C      1  0.4189990000000  0.4821790000000  0.4339690000000 1.0
C      1  0.5858820000000  0.4656610000000  0.4721910000000 1.0
C      1  0.5298810000000  0.5047440000000  0.5784900000000 1.0
C      1  0.5902910000000  0.5361210000000  0.4309410000000 1.0
C      1  0.4453570000000  0.4927130000000  0.5337350000000 1.0
C      1  0.5138030000000  0.4777770000000  0.4579350000000 1.0
C      1  0.4514010000000  0.4664440000000  0.5398130000000 1.0
C      1  0.5733780000000  0.4941370000000  0.5149060000000 1.0
C      1  0.5436960000000  0.5474350000000  0.5837130000000 1.0
C      1  0.4661610000000  0.5675070000000  0.4245420000000 1.0
C      1  0.4084090000000  0.5526860000000  0.5038270000000 1.0
C      1  0.5094310000000  0.5241190000000  0.4868010000000 1.0
C      1  0.5220920000000  0.4382260000000  0.5542190000000 1.0
C      1  0.4773050000000  0.3941790000000  0.5375380000000 1.0
C      1  0.5194120000000  0.5239100000000  0.4062200000000 1.0
C      1  0.4819320000000  0.5789450000000  0.5631550000000 1.0
C      1  0.4739550000000  0.5559250000000  0.4504810000000 1.0
C      1  0.5984430000000  0.5641450000000  0.5141310000000 1.0
C      1  0.5404850000000  0.5840310000000  0.5465320000000 1.0
C      1  0.5340290000000  0.4659250000000  0.4765890000000 1.0
C      1  0.5570580000000  0.5814510000000  0.4621500000000 1.0
C      1  0.5186260000000  0.4901720000000  0.5150310000000 1.0
C      1  0.5980650000000  0.5160080000000  0.4791370000000 1.0
C      1  0.4915760000000  0.5116580000000  0.5487810000000 1.0
C      1  0.5691490000000  0.5373300000000  0.5730620000000 1.0
C      1  0.4812940000000  0.4416480000000  0.4866460000000 1.0
C      1  0.5121880000000  0.4659610000000  0.3990220000000 1.0
C      1  0.5324890000000  0.4374460000000  0.4709390000000 1.0
C      1  0.5452790000000  0.5041550000000  0.5144300000000 1.0
C      1  0.5666610000000  0.5711470000000  0.4879360000000 1.0
C      1  0.5074720000000  0.4419260000000  0.4349920000000 1.0
C      1  0.4624410000000  0.5572820000000  0.5334310000000 1.0
C      1  0.5793900000000  0.5506960000000  0.5490810000000 1.0
C      1  0.5405100000000  0.4663820000000  0.4069380000000 1.0
C      1  0.5368210000000  0.5186860000000  0.4524210000000 1.0
C      1  0.4938370000000  0.4659550000000  0.4418480000000 1.0
C      1  0.5088140000000  0.4708130000000  0.6037370000000 1.0
C      1  0.4414840000000  0.4277350000000  0.5290080000000 1.0
C      1  0.5964620000000  0.5395360000000  0.5275150000000 1.0
C      1  0.4111470000000  0.4643710000000  0.5038630000000 1.0
C      1  0.4797300000000  0.4112070000000  0.4925350000000 1.0
C      1  0.4658110000000  0.5036130000000  0.5141300000000 1.0
C      1  0.4150740000000  0.5751230000000  0.5248650000000 1.0
C      1  0.5830160000000  0.4714350000000  0.5304910000000 1.0
C      1  0.5175700000000  0.5897600000000  0.5247160000000 1.0
C      1  0.5683060000000  0.4174700000000  0.5223400000000 1.0
C      1  0.3971360000000  0.5084800000000  0.4828340000000 1.0
C      1  0.5496200000000  0.5624520000000  0.4413160000000 1.0
C      1  0.4951470000000  0.5112280000000  0.4666400000000 1.0
C      1  0.5739740000000  0.5078990000000  0.5735040000000 1.0
C      1  0.5256030000000  0.3873430000000  0.5464310000000 1.0
C      1  0.3999540000000  0.5218970000000  0.4577830000000 1.0
C      1  0.4905950000000  0.5910200000000  0.5385840000000 1.0
C      1  0.4757640000000  0.5387530000000  0.6051580000000 1.0
C      1  0.5213190000000  0.4094030000000  0.5252610000000 1.0
C      1  0.6074550000000  0.4603170000000  0.4908900000000 1.0
C      1  0.4662900000000  0.4612960000000  0.4313120000000 1.0
C      1  0.5047320000000  0.3993710000000  0.4559600000000 1.0
C      1  0.5067140000000  0.5771930000000  0.4263420000000 1.0
C      1  0.4608150000000  0.4090830000000  0.5208770000000 1.0
C      1  0.4256290000000  0.5593850000000  0.4761510000000 1.0
C      1  0.5327910000000  0.5976720000000  0.4684370000000 1.0
C      1  0.4544210000000  0.4994240000000  0.4028590000000 1.0
C      1  0.4569490000000  0.4908970000000  0.4882280000000 1.0
C      1  0.5355560000000  0.4504380000000  0.5332150000000 1.0
C      1  0.5334040000000  0.5706790000000  0.5704770000000 1.0
C      1  0.4974930000000  0.5184650000000  0.6077830000000 1.0
C      1  0.5608900000000  0.5067090000000  0.4630370000000 1.0
C      1  0.4233700000000  0.5973950000000  0.5052380000000 1.0
END
