TITL C-884135-4325-261 16.9222866911021 125000 -29654.0888818433 0 0 198 (C1) n - 1
REM
REM in /home/nfs/bkarasulu/CARBON/AIRSS/Generating-Clusters/ReaxFF-fromJPCA2015/Units_Real/with-SteepDescent/Only-C1/SD-CG/Try1-3A/FIRE-CG
REM
REM
REM
REM
REM
REM ./C.cell (11c1c37f851c82e70ff6c80c92926a4b)
REM
REM compiler GCC version 9.2.1 20190827 (Red Hat 9.2.1-1)
REM options -cpp -mtune=generic -march=x86-64 -g -O0 -fpre-include=/usr/include/finclude/math-vector-fortran.h
REM seed 915213449 1261620281 1043569719 96996595 -1140519671 -1116151929 1247107837 -124016275 -2090939419 -494781722 907218070 1528130788 -1422029791 31320779 -1799494052 1752999544 -517337141 1392891396 -462862984 2076364292 -609759257 1931542852 -1788635101 -1616259664 1718099320 -180240446 -1211642603 -117224190 396393721 -1415714935 1976746623 1432430046 -1674174184
REM
CELL 1.54180   50.00000   50.00000   50.00000   90.00000   90.00000   90.00000
LATT -1
SFAC C  
C      1  0.5130400000000  0.5927460000000  0.4689460000000 1.0
C      1  0.5352740000000  0.4428570000000  0.4653780000000 1.0
C      1  0.5668790000000  0.5410230000000  0.4150120000000 1.0
C      1  0.4109680000000  0.5965220000000  0.5283580000000 1.0
C      1  0.4382420000000  0.4403470000000  0.4176800000000 1.0
C      1  0.4320380000000  0.5085150000000  0.5009810000000 1.0
C      1  0.5126810000000  0.5044800000000  0.5674970000000 1.0
C      1  0.4563140000000  0.5002480000000  0.5151160000000 1.0
C      1  0.4006190000000  0.5587880000000  0.4644570000000 1.0
C      1  0.5314120000000  0.6132500000000  0.5117380000000 1.0
C      1  0.5613530000000  0.4101880000000  0.5034930000000 1.0
C      1  0.5997170000000  0.4746950000000  0.4536450000000 1.0
C      1  0.3920480000000  0.4721040000000  0.5089390000000 1.0
C      1  0.5101290000000  0.5652290000000  0.4789020000000 1.0
C      1  0.5654550000000  0.4777340000000  0.4224650000000 1.0
C      1  0.4615600000000  0.4112070000000  0.5066280000000 1.0
C      1  0.5174210000000  0.4800000000000  0.4364210000000 1.0
C      1  0.4818540000000  0.5425920000000  0.6051290000000 1.0
C      1  0.4027670000000  0.4816400000000  0.5810780000000 1.0
C      1  0.4731670000000  0.5801350000000  0.4317450000000 1.0
C      1  0.5691980000000  0.5613830000000  0.4358490000000 1.0
C      1  0.4053440000000  0.5326590000000  0.5483570000000 1.0
C      1  0.4655740000000  0.5978300000000  0.4804150000000 1.0
C      1  0.5028060000000  0.3938890000000  0.4898760000000 1.0
C      1  0.5115290000000  0.4820100000000  0.5933510000000 1.0
C      1  0.4536480000000  0.4169720000000  0.4290260000000 1.0
C      1  0.4855700000000  0.4888960000000  0.6088700000000 1.0
C      1  0.5085820000000  0.4543120000000  0.5791770000000 1.0
C      1  0.5539450000000  0.5163720000000  0.4544110000000 1.0
C      1  0.5876900000000  0.4377510000000  0.5422090000000 1.0
C      1  0.5286890000000  0.4871690000000  0.5470520000000 1.0
C      1  0.3910000000000  0.5116570000000  0.5359400000000 1.0
C      1  0.4051410000000  0.5574150000000  0.4933650000000 1.0
C      1  0.4540750000000  0.4907030000000  0.5682380000000 1.0
C      1  0.5737750000000  0.4910530000000  0.5099360000000 1.0
C      1  0.4464600000000  0.5194000000000  0.4072180000000 1.0
C      1  0.4728900000000  0.4580380000000  0.4874880000000 1.0
C      1  0.4487500000000  0.5695090000000  0.4473580000000 1.0
C      1  0.4266720000000  0.4875480000000  0.4824250000000 1.0
C      1  0.5032800000000  0.4128850000000  0.5414650000000 1.0
C      1  0.4604500000000  0.5977710000000  0.5410630000000 1.0
C      1  0.5765700000000  0.4895990000000  0.5396110000000 1.0
C      1  0.5204260000000  0.5322160000000  0.5288960000000 1.0
C      1  0.5340730000000  0.4320760000000  0.4929250000000 1.0
C      1  0.3980090000000  0.4498370000000  0.4903240000000 1.0
C      1  0.6030850000000  0.5003210000000  0.4982320000000 1.0
C      1  0.5782280000000  0.5333460000000  0.4543960000000 1.0
C      1  0.4347300000000  0.5448400000000  0.3991410000000 1.0
C      1  0.4221820000000  0.4624990000000  0.5926830000000 1.0
C      1  0.6108900000000  0.4594980000000  0.5050960000000 1.0
C      1  0.5299080000000  0.6096340000000  0.5411630000000 1.0
C      1  0.4572840000000  0.5384970000000  0.5889480000000 1.0
C      1  0.4025860000000  0.4667380000000  0.5358500000000 1.0
C      1  0.3973860000000  0.5777830000000  0.5122660000000 1.0
C      1  0.5595950000000  0.4685120000000  0.4973020000000 1.0
C      1  0.4711990000000  0.5259180000000  0.5118900000000 1.0
C      1  0.4169620000000  0.4293240000000  0.4967480000000 1.0
C      1  0.5025550000000  0.4267220000000  0.4940850000000 1.0
C      1  0.5434790000000  0.5217580000000  0.3884560000000 1.0
C      1  0.5388510000000  0.5402040000000  0.4081480000000 1.0
C      1  0.4968170000000  0.5130140000000  0.5280260000000 1.0
C      1  0.5567010000000  0.5773240000000  0.4802480000000 1.0
C      1  0.5516220000000  0.5979230000000  0.5567720000000 1.0
C      1  0.4365090000000  0.5537990000000  0.5240270000000 1.0
C      1  0.5822860000000  0.5678930000000  0.4922620000000 1.0
C      1  0.5369700000000  0.5567740000000  0.4781360000000 1.0
C      1  0.4636530000000  0.5178810000000  0.5671640000000 1.0
C      1  0.5063090000000  0.5287490000000  0.4476100000000 1.0
C      1  0.5683420000000  0.4489810000000  0.4281220000000 1.0
C      1  0.5215190000000  0.5320910000000  0.5758050000000 1.0
C      1  0.3905500000000  0.5320440000000  0.4598080000000 1.0
C      1  0.5001730000000  0.5712780000000  0.4262550000000 1.0
C      1  0.5411870000000  0.4938810000000  0.3941720000000 1.0
C      1  0.4649490000000  0.5507840000000  0.5264960000000 1.0
C      1  0.5486770000000  0.5265880000000  0.5288870000000 1.0
C      1  0.5585110000000  0.5114850000000  0.6029750000000 1.0
C      1  0.5887410000000  0.4479970000000  0.4491110000000 1.0
C      1  0.4228880000000  0.5447220000000  0.5651160000000 1.0
C      1  0.4633200000000  0.3989960000000  0.4751790000000 1.0
C      1  0.4525350000000  0.4588580000000  0.4033990000000 1.0
C      1  0.5860330000000  0.5689580000000  0.5212710000000 1.0
C      1  0.5844580000000  0.4225720000000  0.5175570000000 1.0
C      1  0.4521070000000  0.5177700000000  0.4578440000000 1.0
C      1  0.5469480000000  0.4245830000000  0.5808160000000 1.0
C      1  0.5095490000000  0.5994770000000  0.5614930000000 1.0
C      1  0.4625410000000  0.5816740000000  0.5654470000000 1.0
C      1  0.4192930000000  0.5680320000000  0.4433070000000 1.0
C      1  0.4879830000000  0.5690520000000  0.5288910000000 1.0
C      1  0.5046880000000  0.5564040000000  0.5877690000000 1.0
C      1  0.5653180000000  0.5737080000000  0.5433230000000 1.0
C      1  0.6106160000000  0.4787370000000  0.4812530000000 1.0
C      1  0.5103850000000  0.5426010000000  0.4185690000000 1.0
C      1  0.5532790000000  0.5840060000000  0.4443110000000 1.0
C      1  0.5179270000000  0.5913030000000  0.4390850000000 1.0
C      1  0.5702580000000  0.4336490000000  0.5657280000000 1.0
C      1  0.5915460000000  0.4269190000000  0.4695870000000 1.0
C      1  0.5287820000000  0.4584550000000  0.5391830000000 1.0
C      1  0.6054320000000  0.5292720000000  0.4998720000000 1.0
C      1  0.6056040000000  0.5029560000000  0.5744770000000 1.0
C      1  0.5199900000000  0.4313100000000  0.5926910000000 1.0
C      1  0.5339670000000  0.5302050000000  0.4673400000000 1.0
C      1  0.6055620000000  0.4602220000000  0.5346560000000 1.0
C      1  0.4893300000000  0.5137410000000  0.5551260000000 1.0
C      1  0.4881240000000  0.3880060000000  0.4646720000000 1.0
C      1  0.4931660000000  0.4444140000000  0.4731450000000 1.0
C      1  0.5733330000000  0.5329920000000  0.5418080000000 1.0
C      1  0.5339190000000  0.5123170000000  0.4900450000000 1.0
C      1  0.4301190000000  0.5109370000000  0.4343550000000 1.0
C      1  0.5324270000000  0.5666900000000  0.5948180000000 1.0
C      1  0.3935130000000  0.4879730000000  0.5535930000000 1.0
C      1  0.5336750000000  0.5911690000000  0.5790220000000 1.0
C      1  0.4856700000000  0.6065540000000  0.5014730000000 1.0
C      1  0.4969360000000  0.5219520000000  0.3978670000000 1.0
C      1  0.4477140000000  0.4156090000000  0.5680980000000 1.0
C      1  0.5514870000000  0.4040970000000  0.4571540000000 1.0
C      1  0.5021420000000  0.3958400000000  0.4400240000000 1.0
C      1  0.5109120000000  0.6131030000000  0.4905340000000 1.0
C      1  0.4653130000000  0.4935360000000  0.4527350000000 1.0
C      1  0.5474860000000  0.5908090000000  0.5044540000000 1.0
C      1  0.5450530000000  0.4285720000000  0.5539460000000 1.0
C      1  0.4303540000000  0.4579610000000  0.5417020000000 1.0
C      1  0.4043760000000  0.5277790000000  0.4342210000000 1.0
C      1  0.4613680000000  0.4785020000000  0.5944660000000 1.0
C      1  0.5156060000000  0.5587210000000  0.5289380000000 1.0
C      1  0.4426370000000  0.6120930000000  0.4950830000000 1.0
C      1  0.4980480000000  0.4925920000000  0.4765830000000 1.0
C      1  0.4799290000000  0.3991570000000  0.5291870000000 1.0
C      1  0.5460560000000  0.4689540000000  0.4720310000000 1.0
C      1  0.5555950000000  0.4881130000000  0.5573700000000 1.0
C      1  0.4564830000000  0.5669500000000  0.4750810000000 1.0
C      1  0.4916530000000  0.4208550000000  0.5961460000000 1.0
C      1  0.4377480000000  0.6076430000000  0.5234100000000 1.0
C      1  0.4532590000000  0.4772000000000  0.5415070000000 1.0
C      1  0.6014000000000  0.4333870000000  0.4962240000000 1.0
C      1  0.5235060000000  0.3828630000000  0.5026950000000 1.0
C      1  0.4817180000000  0.4609880000000  0.5336630000000 1.0
C      1  0.4344560000000  0.4187050000000  0.5168100000000 1.0
C      1  0.4745570000000  0.6045120000000  0.4481410000000 1.0
C      1  0.4902430000000  0.4593980000000  0.3868780000000 1.0
C      1  0.5247170000000  0.4863320000000  0.4847010000000 1.0
C      1  0.5958160000000  0.5424990000000  0.5252120000000 1.0
C      1  0.5554340000000  0.5127690000000  0.5064020000000 1.0
C      1  0.5170730000000  0.4527940000000  0.3900630000000 1.0
C      1  0.3993940000000  0.4436830000000  0.4618710000000 1.0
C      1  0.4432680000000  0.5609920000000  0.5764420000000 1.0
C      1  0.5445410000000  0.3897370000000  0.5194700000000 1.0
C      1  0.4131650000000  0.5518160000000  0.4201900000000 1.0
C      1  0.5595590000000  0.4851860000000  0.5871620000000 1.0
C      1  0.4631080000000  0.4273850000000  0.5913490000000 1.0
C      1  0.4929760000000  0.4344970000000  0.4317630000000 1.0
C      1  0.4854630000000  0.5975820000000  0.5287920000000 1.0
C      1  0.3862550000000  0.5103540000000  0.4798450000000 1.0
C      1  0.5301400000000  0.4038000000000  0.5409040000000 1.0
C      1  0.4903460000000  0.5799880000000  0.5716140000000 1.0
C      1  0.5724520000000  0.4051950000000  0.4749620000000 1.0
C      1  0.4340760000000  0.4289030000000  0.5443410000000 1.0
C      1  0.4984040000000  0.6179380000000  0.4386070000000 1.0
C      1  0.5097960000000  0.4503630000000  0.4501350000000 1.0
C      1  0.4813120000000  0.4841560000000  0.4978550000000 1.0
C      1  0.5470790000000  0.4897670000000  0.4442600000000 1.0
C      1  0.5932700000000  0.5453670000000  0.4795620000000 1.0
C      1  0.4689440000000  0.4775220000000  0.3902220000000 1.0
C      1  0.6030670000000  0.4857990000000  0.5500520000000 1.0
C      1  0.4237680000000  0.4279330000000  0.4679010000000 1.0
C      1  0.4649190000000  0.5384090000000  0.4783890000000 1.0
C      1  0.4238540000000  0.5374080000000  0.5043500000000 1.0
C      1  0.3870450000000  0.5009830000000  0.5076780000000 1.0
C      1  0.4720020000000  0.5083020000000  0.3979560000000 1.0
C      1  0.4495720000000  0.4710240000000  0.4701280000000 1.0
C      1  0.4960070000000  0.4985100000000  0.4483740000000 1.0
C      1  0.4119920000000  0.4869470000000  0.4384840000000 1.0
C      1  0.4762730000000  0.4390780000000  0.5097380000000 1.0
C      1  0.5725790000000  0.5464460000000  0.5675920000000 1.0
C      1  0.5346840000000  0.4278730000000  0.3960690000000 1.0
C      1  0.5417990000000  0.5721490000000  0.5255670000000 1.0
C      1  0.5469960000000  0.5407520000000  0.5867630000000 1.0
C      1  0.4029190000000  0.4904560000000  0.4661540000000 1.0
C      1  0.5383690000000  0.4889250000000  0.6054820000000 1.0
C      1  0.4125830000000  0.5700890000000  0.5351580000000 1.0
C      1  0.5895570000000  0.5111730000000  0.5981490000000 1.0
C      1  0.4653370000000  0.4012250000000  0.5524940000000 1.0
C      1  0.5963050000000  0.5309960000000  0.5782160000000 1.0
C      1  0.4917620000000  0.5456190000000  0.4664210000000 1.0
C      1  0.4826630000000  0.4107460000000  0.4230910000000 1.0
C      1  0.5217780000000  0.4764840000000  0.4075780000000 1.0
C      1  0.4456580000000  0.4079460000000  0.4552980000000 1.0
C      1  0.5868560000000  0.5217630000000  0.4283190000000 1.0
C      1  0.4490740000000  0.4525920000000  0.5995250000000 1.0
C      1  0.5403110000000  0.4536720000000  0.5123300000000 1.0
C      1  0.5484160000000  0.4268310000000  0.4214470000000 1.0
C      1  0.4849460000000  0.5162770000000  0.6107820000000 1.0
C      1  0.5021340000000  0.4452670000000  0.5508580000000 1.0
C      1  0.5894440000000  0.4925600000000  0.4316840000000 1.0
C      1  0.5302830000000  0.4089840000000  0.4416370000000 1.0
C      1  0.4380970000000  0.4506390000000  0.4559720000000 1.0
C      1  0.4166460000000  0.4573280000000  0.4394840000000 1.0
C      1  0.4970130000000  0.4833710000000  0.5215600000000 1.0
C      1  0.5188640000000  0.5103690000000  0.3836950000000 1.0
END
