TITL C-884128-4793-395 -6.52711523218364 125000 -12722.523814723 0 0 85 (C1) n - 1
REM
REM in /home/nfs/bkarasulu/CARBON/AIRSS/Generating-Clusters/ReaxFF-fromJPCA2015/Units_Real/with-SteepDescent/Only-C1/SD-CG/Try1-3A/FIRE-CG
REM
REM
REM
REM
REM
REM ./C.cell (11c1c37f851c82e70ff6c80c92926a4b)
REM
REM compiler GCC version 9.2.1 20190827 (Red Hat 9.2.1-1)
REM options -cpp -mtune=generic -march=x86-64 -g -O0 -fpre-include=/usr/include/finclude/math-vector-fortran.h
REM seed -2021817924 -1689211608 -1923266468 1739075132 -1642546670 -1095482706 1739385395 -1352419509 -1273026802 326262771 -619013717 -1860338014 -1209338846 -2036622342 1779474609 -418976959 2002607950 767143747 -398030535 -522892208 -900740261 -554480480 -26096418 -644144173 349860862 -689264392 -39322603 -1515700313 91615120 -460690094 -2022682635 -1238625991 -1019102351
REM
CELL 1.54180   50.00000   50.00000   50.00000   90.00000   90.00000   90.00000
LATT -1
SFAC C  
C      1  0.4890290000000  0.5308650000000  0.5742780000000 1.0
C      1  0.4795460000000  0.5015520000000  0.4964410000000 1.0
C      1  0.5197290000000  0.5623340000000  0.5461520000000 1.0
C      1  0.5517810000000  0.5538290000000  0.4603010000000 1.0
C      1  0.4275470000000  0.4483940000000  0.4821940000000 1.0
C      1  0.4776840000000  0.5568710000000  0.4942190000000 1.0
C      1  0.5116500000000  0.4419330000000  0.4644940000000 1.0
C      1  0.5789690000000  0.5234190000000  0.5184350000000 1.0
C      1  0.5629690000000  0.4847100000000  0.4998190000000 1.0
C      1  0.4916900000000  0.5497340000000  0.4297400000000 1.0
C      1  0.4586880000000  0.4950240000000  0.4334790000000 1.0
C      1  0.5470410000000  0.4318620000000  0.5052300000000 1.0
C      1  0.4631590000000  0.5279410000000  0.5368180000000 1.0
C      1  0.4633440000000  0.5462950000000  0.4289620000000 1.0
C      1  0.4266800000000  0.4934070000000  0.4681360000000 1.0
C      1  0.5157520000000  0.5401520000000  0.5656540000000 1.0
C      1  0.4723400000000  0.5672730000000  0.5389870000000 1.0
C      1  0.5466080000000  0.4641630000000  0.5512970000000 1.0
C      1  0.4883980000000  0.4681230000000  0.4655980000000 1.0
C      1  0.4849380000000  0.5023540000000  0.5810610000000 1.0
C      1  0.5058190000000  0.4766430000000  0.5339560000000 1.0
C      1  0.5458400000000  0.4557380000000  0.4342180000000 1.0
C      1  0.4798890000000  0.4378870000000  0.5452850000000 1.0
C      1  0.5622680000000  0.4593990000000  0.4562100000000 1.0
C      1  0.5108900000000  0.4699530000000  0.5070250000000 1.0
C      1  0.5509360000000  0.5074550000000  0.4342020000000 1.0
C      1  0.5045850000000  0.4809970000000  0.5791480000000 1.0
C      1  0.4273960000000  0.5208110000000  0.5113570000000 1.0
C      1  0.5063990000000  0.5041250000000  0.5363050000000 1.0
C      1  0.4641090000000  0.5560770000000  0.4693340000000 1.0
C      1  0.5488900000000  0.5173480000000  0.5560940000000 1.0
C      1  0.4414570000000  0.4544680000000  0.5270720000000 1.0
C      1  0.5076350000000  0.5804710000000  0.4738340000000 1.0
C      1  0.5607910000000  0.5365310000000  0.5367940000000 1.0
C      1  0.4818650000000  0.5119310000000  0.5237450000000 1.0
C      1  0.4809440000000  0.4672540000000  0.5438820000000 1.0
C      1  0.4459080000000  0.5401440000000  0.4506100000000 1.0
C      1  0.5267710000000  0.5026690000000  0.4185290000000 1.0
C      1  0.5202420000000  0.4593440000000  0.5666120000000 1.0
C      1  0.4359250000000  0.4659310000000  0.4593960000000 1.0
C      1  0.5754050000000  0.4982230000000  0.4773240000000 1.0
C      1  0.5039170000000  0.5225500000000  0.4176860000000 1.0
C      1  0.5370650000000  0.4724630000000  0.4942490000000 1.0
C      1  0.5025040000000  0.5426280000000  0.4973660000000 1.0
C      1  0.4798730000000  0.5098410000000  0.4207790000000 1.0
C      1  0.4732470000000  0.4239150000000  0.4958970000000 1.0
C      1  0.4879170000000  0.4753790000000  0.4922230000000 1.0
C      1  0.5736510000000  0.4955270000000  0.5250520000000 1.0
C      1  0.5830430000000  0.5245980000000  0.4887810000000 1.0
C      1  0.4891780000000  0.5643290000000  0.4556500000000 1.0
C      1  0.4514030000000  0.4341200000000  0.4826880000000 1.0
C      1  0.4237400000000  0.4942560000000  0.4970800000000 1.0
C      1  0.4990620000000  0.5183280000000  0.4820620000000 1.0
C      1  0.4621760000000  0.4703630000000  0.4485850000000 1.0
C      1  0.4618400000000  0.4329370000000  0.5229460000000 1.0
C      1  0.4253820000000  0.4664230000000  0.5058730000000 1.0
C      1  0.5419880000000  0.4487110000000  0.4776410000000 1.0
C      1  0.5075240000000  0.4331660000000  0.5543140000000 1.0
C      1  0.5415940000000  0.5567380000000  0.5283510000000 1.0
C      1  0.5296470000000  0.5525350000000  0.5011050000000 1.0
C      1  0.5189060000000  0.4193940000000  0.5325920000000 1.0
C      1  0.5187770000000  0.4490620000000  0.4355330000000 1.0
C      1  0.5036810000000  0.5860550000000  0.5024660000000 1.0
C      1  0.5351940000000  0.5707260000000  0.4783930000000 1.0
C      1  0.4393730000000  0.5115940000000  0.4496820000000 1.0
C      1  0.5594940000000  0.4905780000000  0.5496920000000 1.0
C      1  0.5789430000000  0.5486600000000  0.4715770000000 1.0
C      1  0.4541020000000  0.4765500000000  0.5398310000000 1.0
C      1  0.4469510000000  0.4673890000000  0.5658250000000 1.0
C      1  0.5218620000000  0.4153960000000  0.5046260000000 1.0
C      1  0.5172400000000  0.5131200000000  0.4617600000000 1.0
C      1  0.5050800000000  0.4898260000000  0.4530940000000 1.0
C      1  0.4361640000000  0.5244210000000  0.5409520000000 1.0
C      1  0.4413610000000  0.5431460000000  0.5014100000000 1.0
C      1  0.5491880000000  0.4473230000000  0.5286540000000 1.0
C      1  0.4580770000000  0.5629130000000  0.5136980000000 1.0
C      1  0.4545890000000  0.4916860000000  0.5794320000000 1.0
C      1  0.5387500000000  0.5293940000000  0.4490310000000 1.0
C      1  0.5667940000000  0.4881200000000  0.4510680000000 1.0
C      1  0.4361690000000  0.5050530000000  0.5621120000000 1.0
C      1  0.5014780000000  0.4230570000000  0.4845300000000 1.0
C      1  0.4682840000000  0.5445910000000  0.5575560000000 1.0
C      1  0.5129430000000  0.4776300000000  0.4274830000000 1.0
C      1  0.4987970000000  0.5769680000000  0.5310510000000 1.0
C      1  0.5215440000000  0.5149120000000  0.5574000000000 1.0
END
