TITL C-884128-4793-210 105.664605896168 125000 -27216.5468194159 0 0 183 (C1) n - 1
REM
REM in /home/nfs/bkarasulu/CARBON/AIRSS/Generating-Clusters/ReaxFF-fromJPCA2015/Units_Real/with-SteepDescent/Only-C1/SD-CG/Try1-3A/FIRE-CG
REM
REM
REM
REM
REM
REM ./C.cell (11c1c37f851c82e70ff6c80c92926a4b)
REM
REM compiler GCC version 9.2.1 20190827 (Red Hat 9.2.1-1)
REM options -cpp -mtune=generic -march=x86-64 -g -O0 -fpre-include=/usr/include/finclude/math-vector-fortran.h
REM seed 2111172258 -2090785378 1404724912 -1386150174 1523337802 -2052826137 463624477 -1587152151 1749294496 -1953450962 -1513323374 540523039 1559213609 -82409761 -2122810990 1213329395 1460156608 -1532386482 -1815205335 -43231481 -1634053762 1379091072 -1532715235 -1592052543 -1075104996 -1062918589 1500517778 353681279 -869492555 1290664418 43808947 -36187032 1544953748
REM
CELL 1.54180   50.00000   50.00000   50.00000   90.00000   90.00000   90.00000
LATT -1
SFAC C  
C      1  0.4974920000000  0.5575660000000  0.5295310000000 1.0
C      1  0.4483270000000  0.5300740000000  0.4640120000000 1.0
C      1  0.4320120000000  0.5094020000000  0.5300070000000 1.0
C      1  0.4117040000000  0.5314590000000  0.4452360000000 1.0
C      1  0.4661690000000  0.4582760000000  0.4610730000000 1.0
C      1  0.5609170000000  0.5317080000000  0.5011200000000 1.0
C      1  0.4592900000000  0.4257650000000  0.5780160000000 1.0
C      1  0.5052090000000  0.4017240000000  0.4737750000000 1.0
C      1  0.5497430000000  0.4093900000000  0.4962700000000 1.0
C      1  0.4133040000000  0.4619700000000  0.4538740000000 1.0
C      1  0.6144960000000  0.4544620000000  0.5143670000000 1.0
C      1  0.5033870000000  0.4662610000000  0.5577530000000 1.0
C      1  0.4235170000000  0.4347320000000  0.4595540000000 1.0
C      1  0.4495870000000  0.5289380000000  0.4089230000000 1.0
C      1  0.3856880000000  0.4822700000000  0.5062790000000 1.0
C      1  0.4484310000000  0.5700310000000  0.4346920000000 1.0
C      1  0.5562280000000  0.5748070000000  0.4352610000000 1.0
C      1  0.5096070000000  0.4810200000000  0.3895090000000 1.0
C      1  0.5746410000000  0.5765890000000  0.5098740000000 1.0
C      1  0.5623490000000  0.5844470000000  0.4590280000000 1.0
C      1  0.5367380000000  0.6014540000000  0.5258030000000 1.0
C      1  0.4353420000000  0.5253340000000  0.5552460000000 1.0
C      1  0.4113800000000  0.4708110000000  0.4265730000000 1.0
C      1  0.3948720000000  0.5026290000000  0.5674480000000 1.0
C      1  0.4755000000000  0.5652820000000  0.5120590000000 1.0
C      1  0.5697120000000  0.5129620000000  0.5415170000000 1.0
C      1  0.4839180000000  0.4404550000000  0.4156200000000 1.0
C      1  0.5463010000000  0.5705050000000  0.5775270000000 1.0
C      1  0.5350740000000  0.4823690000000  0.5023780000000 1.0
C      1  0.5568670000000  0.5807450000000  0.5315300000000 1.0
C      1  0.5331560000000  0.4894590000000  0.4730240000000 1.0
C      1  0.5198440000000  0.5587100000000  0.4013950000000 1.0
C      1  0.5401140000000  0.5072760000000  0.6044440000000 1.0
C      1  0.5533480000000  0.5086020000000  0.4051500000000 1.0
C      1  0.5509050000000  0.5477460000000  0.4787780000000 1.0
C      1  0.3986680000000  0.5257900000000  0.4714240000000 1.0
C      1  0.5461320000000  0.5291690000000  0.5506740000000 1.0
C      1  0.5340000000000  0.5297820000000  0.5115350000000 1.0
C      1  0.4298700000000  0.4513760000000  0.5613250000000 1.0
C      1  0.4677690000000  0.4082860000000  0.4456880000000 1.0
C      1  0.4548150000000  0.4430620000000  0.4173560000000 1.0
C      1  0.5595700000000  0.4374740000000  0.4314410000000 1.0
C      1  0.5071950000000  0.4442820000000  0.5238880000000 1.0
C      1  0.5169990000000  0.4195020000000  0.4314320000000 1.0
C      1  0.5437590000000  0.4771090000000  0.4464050000000 1.0
C      1  0.5045430000000  0.4710730000000  0.5304280000000 1.0
C      1  0.5407870000000  0.6066900000000  0.4975160000000 1.0
C      1  0.5084990000000  0.5188440000000  0.5030720000000 1.0
C      1  0.5492910000000  0.5589670000000  0.5511090000000 1.0
C      1  0.5115010000000  0.6038900000000  0.5414890000000 1.0
C      1  0.4964350000000  0.4606130000000  0.4341490000000 1.0
C      1  0.5269320000000  0.4538120000000  0.5024760000000 1.0
C      1  0.5099390000000  0.5217830000000  0.6047150000000 1.0
C      1  0.4193960000000  0.5695560000000  0.4790140000000 1.0
C      1  0.4984990000000  0.5751600000000  0.4128780000000 1.0
C      1  0.4891780000000  0.4133180000000  0.4258070000000 1.0
C      1  0.5717630000000  0.4747250000000  0.4792580000000 1.0
C      1  0.5185090000000  0.4781740000000  0.4284230000000 1.0
C      1  0.5780850000000  0.4120620000000  0.4872660000000 1.0
C      1  0.4706820000000  0.5864690000000  0.5581730000000 1.0
C      1  0.4892330000000  0.6143920000000  0.5254220000000 1.0
C      1  0.4429600000000  0.4815670000000  0.6013900000000 1.0
C      1  0.4820480000000  0.4977990000000  0.4599350000000 1.0
C      1  0.5272890000000  0.5058440000000  0.3894110000000 1.0
C      1  0.4120720000000  0.5535870000000  0.5194820000000 1.0
C      1  0.5854120000000  0.5476210000000  0.5149590000000 1.0
C      1  0.5115330000000  0.5478180000000  0.5947400000000 1.0
C      1  0.3914330000000  0.4986670000000  0.4806280000000 1.0
C      1  0.4556090000000  0.4701650000000  0.4064500000000 1.0
C      1  0.4670790000000  0.3946290000000  0.5232190000000 1.0
C      1  0.4808630000000  0.4536590000000  0.6113160000000 1.0
C      1  0.5833890000000  0.4328610000000  0.4465330000000 1.0
C      1  0.4916680000000  0.5345540000000  0.5475630000000 1.0
C      1  0.5657920000000  0.4653970000000  0.5311790000000 1.0
C      1  0.4397170000000  0.4060400000000  0.5303730000000 1.0
C      1  0.5176460000000  0.6131450000000  0.4799670000000 1.0
C      1  0.4944840000000  0.5209910000000  0.4131310000000 1.0
C      1  0.3850900000000  0.4922440000000  0.5466580000000 1.0
C      1  0.4770620000000  0.4717200000000  0.5680930000000 1.0
C      1  0.4761170000000  0.5253660000000  0.4648460000000 1.0
C      1  0.4638670000000  0.5542620000000  0.4171450000000 1.0
C      1  0.5286750000000  0.4192780000000  0.5705980000000 1.0
C      1  0.6233800000000  0.4911320000000  0.5491900000000 1.0
C      1  0.5655800000000  0.5523360000000  0.5909440000000 1.0
C      1  0.6085760000000  0.4830500000000  0.5200390000000 1.0
C      1  0.5124700000000  0.4926280000000  0.5628690000000 1.0
C      1  0.5188150000000  0.3924540000000  0.5201600000000 1.0
C      1  0.4585970000000  0.4516300000000  0.5590860000000 1.0
C      1  0.5058510000000  0.4474570000000  0.6021660000000 1.0
C      1  0.5516840000000  0.5358040000000  0.4525130000000 1.0
C      1  0.4626470000000  0.4290330000000  0.5011970000000 1.0
C      1  0.4821630000000  0.5851520000000  0.4890300000000 1.0
C      1  0.5145900000000  0.5316970000000  0.3912420000000 1.0
C      1  0.4125390000000  0.4354560000000  0.4882360000000 1.0
C      1  0.4200890000000  0.4213220000000  0.5155390000000 1.0
C      1  0.4232510000000  0.4282860000000  0.5436470000000 1.0
C      1  0.4521070000000  0.4840430000000  0.5275690000000 1.0
C      1  0.4777950000000  0.3961060000000  0.4704190000000 1.0
C      1  0.5361060000000  0.4367710000000  0.4782020000000 1.0
C      1  0.5245980000000  0.3924380000000  0.4917350000000 1.0
C      1  0.4782980000000  0.4836490000000  0.3936060000000 1.0
C      1  0.6092160000000  0.5031160000000  0.4939240000000 1.0
C      1  0.4611680000000  0.5370420000000  0.5649200000000 1.0
C      1  0.4940060000000  0.6117850000000  0.4969300000000 1.0
C      1  0.5345880000000  0.4359110000000  0.4146490000000 1.0
C      1  0.4819000000000  0.4127880000000  0.5713690000000 1.0
C      1  0.4623300000000  0.3986680000000  0.4949400000000 1.0
C      1  0.5632660000000  0.5354590000000  0.4107920000000 1.0
C      1  0.4362610000000  0.5095580000000  0.5983050000000 1.0
C      1  0.4606510000000  0.5248550000000  0.5942130000000 1.0
C      1  0.5433240000000  0.4070450000000  0.5259750000000 1.0
C      1  0.4510790000000  0.5647310000000  0.5579280000000 1.0
C      1  0.4323600000000  0.4560340000000  0.5918380000000 1.0
C      1  0.4831930000000  0.5103900000000  0.6036640000000 1.0
C      1  0.5479370000000  0.4499590000000  0.4545640000000 1.0
C      1  0.4809260000000  0.4882300000000  0.5268710000000 1.0
C      1  0.4636140000000  0.6033850000000  0.5352270000000 1.0
C      1  0.4283010000000  0.5178110000000  0.4250330000000 1.0
C      1  0.5244710000000  0.5275430000000  0.4454270000000 1.0
C      1  0.4168920000000  0.5174350000000  0.5767550000000 1.0
C      1  0.4919450000000  0.5936890000000  0.4343600000000 1.0
C      1  0.4370090000000  0.5087320000000  0.4800380000000 1.0
C      1  0.5187240000000  0.5192020000000  0.5578940000000 1.0
C      1  0.5079520000000  0.5712120000000  0.4679710000000 1.0
C      1  0.5044350000000  0.4017820000000  0.5632560000000 1.0
C      1  0.5793570000000  0.4881350000000  0.5306640000000 1.0
C      1  0.5225590000000  0.5562610000000  0.5147510000000 1.0
C      1  0.5129560000000  0.4256860000000  0.4615580000000 1.0
C      1  0.4634970000000  0.5912730000000  0.4453780000000 1.0
C      1  0.4631920000000  0.5408770000000  0.5021630000000 1.0
C      1  0.4846930000000  0.4365630000000  0.5124270000000 1.0
C      1  0.4852790000000  0.5419470000000  0.4297070000000 1.0
C      1  0.5783560000000  0.4141980000000  0.4596520000000 1.0
C      1  0.5890010000000  0.4526390000000  0.4679180000000 1.0
C      1  0.5917680000000  0.4384700000000  0.4949410000000 1.0
C      1  0.5878490000000  0.5349250000000  0.5464700000000 1.0
C      1  0.4999080000000  0.5880730000000  0.5630240000000 1.0
C      1  0.5581810000000  0.4510640000000  0.5542400000000 1.0
C      1  0.5123360000000  0.5981900000000  0.4552510000000 1.0
C      1  0.4583990000000  0.5952300000000  0.4735800000000 1.0
C      1  0.5764280000000  0.5323360000000  0.4370490000000 1.0
C      1  0.4309730000000  0.5698700000000  0.5361240000000 1.0
C      1  0.5052260000000  0.5487800000000  0.4481990000000 1.0
C      1  0.4584350000000  0.4839640000000  0.4506400000000 1.0
C      1  0.5484590000000  0.5607000000000  0.4119470000000 1.0
C      1  0.4314050000000  0.5545220000000  0.4539400000000 1.0
C      1  0.4010630000000  0.4954820000000  0.5278960000000 1.0
C      1  0.4453730000000  0.4267780000000  0.4413130000000 1.0
C      1  0.5643860000000  0.4931610000000  0.4274300000000 1.0
C      1  0.5472920000000  0.4236940000000  0.5499140000000 1.0
C      1  0.5706710000000  0.4581840000000  0.5042100000000 1.0
C      1  0.4032780000000  0.5496240000000  0.4918100000000 1.0
C      1  0.5497700000000  0.5329080000000  0.6037850000000 1.0
C      1  0.4411570000000  0.5224020000000  0.5046020000000 1.0
C      1  0.4383700000000  0.4882360000000  0.4271750000000 1.0
C      1  0.4512190000000  0.4512060000000  0.4849670000000 1.0
C      1  0.5266630000000  0.4616440000000  0.4022200000000 1.0
C      1  0.5851670000000  0.5346480000000  0.5754390000000 1.0
C      1  0.4549980000000  0.4408820000000  0.6032950000000 1.0
C      1  0.4356450000000  0.5902320000000  0.4910960000000 1.0
C      1  0.5166470000000  0.5727390000000  0.5830460000000 1.0
C      1  0.5850470000000  0.5049730000000  0.4436700000000 1.0
C      1  0.4504850000000  0.4675570000000  0.5063670000000 1.0
C      1  0.5128740000000  0.5064540000000  0.4298990000000 1.0
C      1  0.4736690000000  0.4808820000000  0.5967820000000 1.0
C      1  0.4883200000000  0.5344640000000  0.4885920000000 1.0
C      1  0.5893890000000  0.4978920000000  0.4726830000000 1.0
C      1  0.4170450000000  0.4875480000000  0.4735470000000 1.0
C      1  0.5045730000000  0.4829990000000  0.4703260000000 1.0
C      1  0.5576160000000  0.4893190000000  0.5895310000000 1.0
C      1  0.3973190000000  0.4578040000000  0.4963750000000 1.0
C      1  0.5304570000000  0.4419820000000  0.5894680000000 1.0
C      1  0.5831480000000  0.5053990000000  0.5833420000000 1.0
C      1  0.6045500000000  0.4978990000000  0.5677930000000 1.0
C      1  0.4406850000000  0.5925920000000  0.5205490000000 1.0
C      1  0.6013140000000  0.5293350000000  0.4981570000000 1.0
C      1  0.4949920000000  0.4565630000000  0.4614940000000 1.0
C      1  0.4691070000000  0.5102950000000  0.3977010000000 1.0
C      1  0.5643940000000  0.5919520000000  0.4871410000000 1.0
C      1  0.5508730000000  0.4626530000000  0.5796760000000 1.0
C      1  0.4900770000000  0.5149760000000  0.5249290000000 1.0
C      1  0.5282540000000  0.5626430000000  0.4877830000000 1.0
C      1  0.4941520000000  0.3936800000000  0.5355160000000 1.0
END
