TITL C-883737-113-75 -1.33882812540863 125000 -15747.3688163797 0 0 107 (C1) n - 1
REM
REM in /home/nfs/bkarasulu/CARBON/AIRSS/Generating-Clusters/ReaxFF-fromJPCA2015/Units_Real/with-SteepDescent/Only-C1/SD-CG/Try1-3A/FIRE-CG
REM
REM
REM
REM
REM
REM ./C.cell (11c1c37f851c82e70ff6c80c92926a4b)
REM
REM compiler GCC version 9.2.1 20190827 (Red Hat 9.2.1-1)
REM options -cpp -mtune=generic -march=x86-64 -g -O0 -fpre-include=/usr/include/finclude/math-vector-fortran.h
REM seed -440366336 -1980432935 1127240042 854826467 -381845332 -1596347683 1824126124 14576421 1769819736 -1380097304 -184556109 -1221765319 2072045287 1274917864 -445843404 1124111906 -1984644822 562211304 -1890602724 -1042042509 559757265 690144670 -1184998353 -2054839960 -1010013686 1391269261 123500019 -281063452 721883451 1340646388 1287944579 -1261973539 1044661573
REM
CELL 1.54180   50.00000   50.00000   50.00000   90.00000   90.00000   90.00000
LATT -1
SFAC C  
C      1  0.4313650000000  0.4372830000000  0.4619150000000 1.0
C      1  0.5030030000000  0.4843370000000  0.4703570000000 1.0
C      1  0.5236210000000  0.5342600000000  0.5854990000000 1.0
C      1  0.5552320000000  0.5917100000000  0.5250100000000 1.0
C      1  0.5714530000000  0.5399310000000  0.5346300000000 1.0
C      1  0.4456440000000  0.5199020000000  0.4724540000000 1.0
C      1  0.5653800000000  0.4977690000000  0.4398510000000 1.0
C      1  0.4651220000000  0.5549400000000  0.5670600000000 1.0
C      1  0.5142230000000  0.4605530000000  0.5233560000000 1.0
C      1  0.5254270000000  0.5693850000000  0.5427940000000 1.0
C      1  0.4495420000000  0.4832950000000  0.5753680000000 1.0
C      1  0.4095950000000  0.5357750000000  0.4658640000000 1.0
C      1  0.5682960000000  0.4384790000000  0.4994540000000 1.0
C      1  0.5733500000000  0.4567590000000  0.5592840000000 1.0
C      1  0.5555420000000  0.5670380000000  0.5355330000000 1.0
C      1  0.4829540000000  0.5020780000000  0.4779030000000 1.0
C      1  0.4983080000000  0.4127190000000  0.5012020000000 1.0
C      1  0.4992680000000  0.5317190000000  0.5922750000000 1.0
C      1  0.5415440000000  0.4352170000000  0.5082330000000 1.0
C      1  0.5536910000000  0.4142810000000  0.4991250000000 1.0
C      1  0.5301540000000  0.4921390000000  0.4686150000000 1.0
C      1  0.4867750000000  0.5801850000000  0.4934740000000 1.0
C      1  0.5111730000000  0.5614780000000  0.4523720000000 1.0
C      1  0.5419500000000  0.4935070000000  0.5874860000000 1.0
C      1  0.4715480000000  0.5187860000000  0.5236540000000 1.0
C      1  0.4592850000000  0.4996610000000  0.4578040000000 1.0
C      1  0.5051430000000  0.4493320000000  0.4206790000000 1.0
C      1  0.5840640000000  0.4883730000000  0.4826800000000 1.0
C      1  0.4388540000000  0.4492280000000  0.5269450000000 1.0
C      1  0.4878930000000  0.4728620000000  0.5268720000000 1.0
C      1  0.5120680000000  0.5884430000000  0.4953240000000 1.0
C      1  0.5019400000000  0.4930610000000  0.4110260000000 1.0
C      1  0.4797160000000  0.5325990000000  0.4265080000000 1.0
C      1  0.4876130000000  0.5864520000000  0.5361860000000 1.0
C      1  0.4890920000000  0.4222120000000  0.5277320000000 1.0
C      1  0.5276780000000  0.5723860000000  0.4748440000000 1.0
C      1  0.4130850000000  0.5447760000000  0.4895180000000 1.0
C      1  0.4396910000000  0.4769720000000  0.4570230000000 1.0
C      1  0.4830490000000  0.5546890000000  0.4455940000000 1.0
C      1  0.5140790000000  0.5919020000000  0.5265410000000 1.0
C      1  0.5294860000000  0.5393710000000  0.4471510000000 1.0
C      1  0.5028330000000  0.5217850000000  0.4121040000000 1.0
C      1  0.4753050000000  0.4452870000000  0.4816910000000 1.0
C      1  0.5483990000000  0.4522560000000  0.4544920000000 1.0
C      1  0.5917870000000  0.4840460000000  0.5339880000000 1.0
C      1  0.5465240000000  0.4733510000000  0.4349030000000 1.0
C      1  0.4721540000000  0.4944510000000  0.5066790000000 1.0
C      1  0.4797580000000  0.4174790000000  0.4502950000000 1.0
C      1  0.5273820000000  0.5084460000000  0.5218880000000 1.0
C      1  0.4233100000000  0.4984520000000  0.5159960000000 1.0
C      1  0.4881060000000  0.4616000000000  0.4626500000000 1.0
C      1  0.5472920000000  0.5226540000000  0.5806060000000 1.0
C      1  0.4647170000000  0.5489130000000  0.4696720000000 1.0
C      1  0.5079070000000  0.5460190000000  0.5434190000000 1.0
C      1  0.5435780000000  0.4769360000000  0.4888720000000 1.0
C      1  0.4234530000000  0.5496610000000  0.5157230000000 1.0
C      1  0.4322930000000  0.4483810000000  0.5011400000000 1.0
C      1  0.5116920000000  0.5172840000000  0.5453120000000 1.0
C      1  0.4887280000000  0.5419630000000  0.5217070000000 1.0
C      1  0.4451140000000  0.5018050000000  0.4973050000000 1.0
C      1  0.4172520000000  0.4895100000000  0.4448700000000 1.0
C      1  0.4206730000000  0.5240180000000  0.5307050000000 1.0
C      1  0.4533650000000  0.4275580000000  0.4424320000000 1.0
C      1  0.5222370000000  0.4725390000000  0.4178750000000 1.0
C      1  0.5505670000000  0.5131540000000  0.4224100000000 1.0
C      1  0.5301390000000  0.5318030000000  0.4181010000000 1.0
C      1  0.4638000000000  0.4478360000000  0.4262430000000 1.0
C      1  0.5066150000000  0.4284720000000  0.4411020000000 1.0
C      1  0.5716510000000  0.5352680000000  0.4821910000000 1.0
C      1  0.4172480000000  0.4616860000000  0.4523000000000 1.0
C      1  0.4474560000000  0.5667100000000  0.5178280000000 1.0
C      1  0.5148570000000  0.4876420000000  0.5897760000000 1.0
C      1  0.4812830000000  0.4631470000000  0.4333510000000 1.0
C      1  0.4631100000000  0.5735320000000  0.5423810000000 1.0
C      1  0.4743110000000  0.4869870000000  0.4183140000000 1.0
C      1  0.4795180000000  0.4162450000000  0.4799530000000 1.0
C      1  0.5893000000000  0.4998520000000  0.5083220000000 1.0
C      1  0.5349410000000  0.4811300000000  0.5161370000000 1.0
C      1  0.4826570000000  0.5128640000000  0.5494980000000 1.0
C      1  0.4239330000000  0.4740110000000  0.5325650000000 1.0
C      1  0.5337410000000  0.5206910000000  0.4702820000000 1.0
C      1  0.5758870000000  0.5093280000000  0.4658500000000 1.0
C      1  0.4268690000000  0.4875710000000  0.5594410000000 1.0
C      1  0.5678500000000  0.5244900000000  0.5583090000000 1.0
C      1  0.4468730000000  0.4420530000000  0.4831920000000 1.0
C      1  0.4777220000000  0.4627660000000  0.5521220000000 1.0
C      1  0.4869910000000  0.5497820000000  0.5839380000000 1.0
C      1  0.5881540000000  0.4562320000000  0.5387930000000 1.0
C      1  0.4657430000000  0.4398320000000  0.5389260000000 1.0
C      1  0.5794310000000  0.4978140000000  0.5576650000000 1.0
C      1  0.5262290000000  0.4177470000000  0.4881960000000 1.0
C      1  0.5670370000000  0.4607210000000  0.4796470000000 1.0
C      1  0.5802400000000  0.5278380000000  0.5096990000000 1.0
C      1  0.5647810000000  0.4787630000000  0.5740840000000 1.0
C      1  0.5287280000000  0.4322900000000  0.4587290000000 1.0
C      1  0.4245650000000  0.5181200000000  0.4491680000000 1.0
C      1  0.5522560000000  0.5568270000000  0.4793750000000 1.0
C      1  0.4594260000000  0.5265500000000  0.5631210000000 1.0
C      1  0.4760200000000  0.4779250000000  0.5819570000000 1.0
C      1  0.4863340000000  0.5308190000000  0.4786630000000 1.0
C      1  0.5039390000000  0.5422230000000  0.4976930000000 1.0
C      1  0.4609440000000  0.5103580000000  0.4304710000000 1.0
C      1  0.4315470000000  0.5169720000000  0.5566790000000 1.0
C      1  0.5290780000000  0.5272720000000  0.4987530000000 1.0
C      1  0.4611210000000  0.5711170000000  0.4922910000000 1.0
C      1  0.5136950000000  0.4336660000000  0.5391790000000 1.0
C      1  0.4926560000000  0.4996570000000  0.5937860000000 1.0
END
