TITL C-883737-113-347 -6.12078665654654 125000 -2143.49212409943 0 0 16 (C1) n - 1
REM
REM in /home/nfs/bkarasulu/CARBON/AIRSS/Generating-Clusters/ReaxFF-fromJPCA2015/Units_Real/with-SteepDescent/Only-C1/SD-CG/Try1-3A/FIRE-CG
REM
REM
REM
REM
REM
REM ./C.cell (11c1c37f851c82e70ff6c80c92926a4b)
REM
REM compiler GCC version 9.2.1 20190827 (Red Hat 9.2.1-1)
REM options -cpp -mtune=generic -march=x86-64 -g -O0 -fpre-include=/usr/include/finclude/math-vector-fortran.h
REM seed -92438563 1716165816 412513650 2132005793 -497591457 1806376618 -1813681486 1335783215 -753545232 -30077412 -1197760128 -1023303910 1032105463 -646407522 -1093049410 -274505010 2041661706 -1057904539 447845377 1796850418 -1989392815 -857875288 498850680 1797596940 1056765915 798943139 1035454342 -365431539 -2070075657 -1816091862 -99103563 -1792341498 -819163852
REM
CELL 1.54180   50.00000   50.00000   50.00000   90.00000   90.00000   90.00000
LATT -1
SFAC C  
C      1  0.5290140000000  0.4554060000000  0.4858160000000 1.0
C      1  0.4532960000000  0.5234560000000  0.5027130000000 1.0
C      1  0.4700500000000  0.4920500000000  0.4714040000000 1.0
C      1  0.5714610000000  0.4836600000000  0.5030980000000 1.0
C      1  0.5694770000000  0.5117910000000  0.5083480000000 1.0
C      1  0.5193510000000  0.5212730000000  0.5042360000000 1.0
C      1  0.4761600000000  0.5109810000000  0.5160810000000 1.0
C      1  0.4667720000000  0.4598460000000  0.5111130000000 1.0
C      1  0.5156150000000  0.4931150000000  0.4996080000000 1.0
C      1  0.4466910000000  0.4738290000000  0.4997560000000 1.0
C      1  0.4931400000000  0.5342510000000  0.5119890000000 1.0
C      1  0.5402670000000  0.4753580000000  0.4960050000000 1.0
C      1  0.4863600000000  0.4865860000000  0.5001370000000 1.0
C      1  0.4453630000000  0.4990360000000  0.4853740000000 1.0
C      1  0.5464760000000  0.5318550000000  0.5086570000000 1.0
C      1  0.4705070000000  0.5475080000000  0.4956680000000 1.0
END
