TITL C-883740-3686-377 54.9231741291618 125000 -28855.665227209 0 0 194 (C1) n - 1
REM
REM in /home/nfs/bkarasulu/CARBON/AIRSS/Generating-Clusters/ReaxFF-fromJPCA2015/Units_Real/with-SteepDescent/Only-C1/SD-CG/Try1-3A/FIRE-CG
REM
REM
REM
REM
REM
REM ./C.cell (11c1c37f851c82e70ff6c80c92926a4b)
REM
REM compiler GCC version 9.2.1 20190827 (Red Hat 9.2.1-1)
REM options -cpp -mtune=generic -march=x86-64 -g -O0 -fpre-include=/usr/include/finclude/math-vector-fortran.h
REM seed 571949099 736099048 -558487882 -9735164 -80753918 1116719101 1993261220 -463749887 843456069 284293983 767979955 -1753637914 -44143419 -1039863731 744957557 640086178 -229147 438872001 1930340289 1665190752 -137843940 -1255047083 -1452684401 1610450879 1178662259 -259118418 -1562115909 -507992749 2028473846 466488202 1674311386 -1678246859 -299503311
REM
CELL 1.54180   50.00000   50.00000   50.00000   90.00000   90.00000   90.00000
LATT -1
SFAC C  
C      1  0.4087960000000  0.4887550000000  0.5682750000000 1.0
C      1  0.4441370000000  0.5583840000000  0.5153350000000 1.0
C      1  0.5402910000000  0.5891610000000  0.5126420000000 1.0
C      1  0.4752300000000  0.5393220000000  0.4398590000000 1.0
C      1  0.6024400000000  0.5390220000000  0.4702180000000 1.0
C      1  0.3834560000000  0.5068200000000  0.5036200000000 1.0
C      1  0.5164880000000  0.5514660000000  0.4650010000000 1.0
C      1  0.4821350000000  0.5010840000000  0.5585180000000 1.0
C      1  0.6145100000000  0.4879610000000  0.5202170000000 1.0
C      1  0.5346020000000  0.4928580000000  0.4480410000000 1.0
C      1  0.5204300000000  0.4843100000000  0.4699570000000 1.0
C      1  0.5225970000000  0.3952410000000  0.5248010000000 1.0
C      1  0.3989490000000  0.5705900000000  0.4680390000000 1.0
C      1  0.5893610000000  0.4819350000000  0.4227800000000 1.0
C      1  0.5340490000000  0.6063930000000  0.4679190000000 1.0
C      1  0.5278360000000  0.4456210000000  0.6073760000000 1.0
C      1  0.5693920000000  0.4594470000000  0.5782290000000 1.0
C      1  0.5108300000000  0.5140300000000  0.3889550000000 1.0
C      1  0.4200800000000  0.5219440000000  0.5194770000000 1.0
C      1  0.4535170000000  0.4761760000000  0.4742340000000 1.0
C      1  0.5349350000000  0.4702610000000  0.5951410000000 1.0
C      1  0.5651630000000  0.5859410000000  0.4966240000000 1.0
C      1  0.4758320000000  0.5384940000000  0.4919390000000 1.0
C      1  0.4029240000000  0.4361370000000  0.5157890000000 1.0
C      1  0.5050630000000  0.4111160000000  0.4385830000000 1.0
C      1  0.4577980000000  0.5144260000000  0.6039350000000 1.0
C      1  0.5857230000000  0.5411320000000  0.5446750000000 1.0
C      1  0.4968260000000  0.4479940000000  0.4085840000000 1.0
C      1  0.5960900000000  0.4469060000000  0.4692030000000 1.0
C      1  0.4533170000000  0.5851470000000  0.4998980000000 1.0
C      1  0.3961690000000  0.5531030000000  0.4882010000000 1.0
C      1  0.5949780000000  0.5570740000000  0.4492290000000 1.0
C      1  0.5237180000000  0.5498510000000  0.5364670000000 1.0
C      1  0.5075460000000  0.6194470000000  0.5178550000000 1.0
C      1  0.5834860000000  0.4541380000000  0.4184090000000 1.0
C      1  0.5006380000000  0.5363100000000  0.5958710000000 1.0
C      1  0.4957880000000  0.5251370000000  0.5685050000000 1.0
C      1  0.5064870000000  0.4623600000000  0.4610510000000 1.0
C      1  0.4867600000000  0.5023740000000  0.4522520000000 1.0
C      1  0.4741080000000  0.4834650000000  0.3935780000000 1.0
C      1  0.4794730000000  0.4626340000000  0.6069940000000 1.0
C      1  0.6017760000000  0.4753110000000  0.4726240000000 1.0
C      1  0.4695450000000  0.4424440000000  0.4178060000000 1.0
C      1  0.4576180000000  0.4487740000000  0.4843140000000 1.0
C      1  0.4668420000000  0.5628400000000  0.4788250000000 1.0
C      1  0.4853720000000  0.5158050000000  0.6122520000000 1.0
C      1  0.4723850000000  0.3930200000000  0.5055580000000 1.0
C      1  0.5736420000000  0.4970550000000  0.4037550000000 1.0
C      1  0.4192100000000  0.4305450000000  0.4660050000000 1.0
C      1  0.5069040000000  0.4630190000000  0.4319870000000 1.0
C      1  0.5571950000000  0.4699260000000  0.4578190000000 1.0
C      1  0.6062660000000  0.5271790000000  0.4943440000000 1.0
C      1  0.5495370000000  0.5849620000000  0.5441030000000 1.0
C      1  0.5724280000000  0.5629990000000  0.5127380000000 1.0
C      1  0.5291620000000  0.5995060000000  0.5584100000000 1.0
C      1  0.3936830000000  0.4719950000000  0.4830000000000 1.0
C      1  0.5118990000000  0.5629900000000  0.4023830000000 1.0
C      1  0.4864640000000  0.4522020000000  0.5484940000000 1.0
C      1  0.4793500000000  0.4256130000000  0.4398320000000 1.0
C      1  0.5593340000000  0.4543780000000  0.4017880000000 1.0
C      1  0.5328400000000  0.3796540000000  0.5018460000000 1.0
C      1  0.5417750000000  0.4380920000000  0.4165380000000 1.0
C      1  0.3983890000000  0.4651440000000  0.5599130000000 1.0
C      1  0.5856970000000  0.5136310000000  0.5545030000000 1.0
C      1  0.5607240000000  0.5176460000000  0.5657460000000 1.0
C      1  0.5551090000000  0.4254250000000  0.4386100000000 1.0
C      1  0.5700280000000  0.5757720000000  0.4469050000000 1.0
C      1  0.5804400000000  0.4389380000000  0.4433150000000 1.0
C      1  0.5681970000000  0.4945840000000  0.5092520000000 1.0
C      1  0.5434810000000  0.5335940000000  0.5006700000000 1.0
C      1  0.5461610000000  0.5204620000000  0.6129930000000 1.0
C      1  0.5267900000000  0.4286630000000  0.4770550000000 1.0
C      1  0.5394360000000  0.5073010000000  0.5545480000000 1.0
C      1  0.4628820000000  0.5179630000000  0.4449990000000 1.0
C      1  0.5029630000000  0.4432110000000  0.4823880000000 1.0
C      1  0.5490560000000  0.5485510000000  0.5229010000000 1.0
C      1  0.3907360000000  0.4997590000000  0.4774440000000 1.0
C      1  0.5637710000000  0.5629440000000  0.5573060000000 1.0
C      1  0.5230670000000  0.4875650000000  0.3873840000000 1.0
C      1  0.5529540000000  0.3975760000000  0.4958710000000 1.0
C      1  0.5533910000000  0.4350010000000  0.5941050000000 1.0
C      1  0.5084750000000  0.3879960000000  0.4862100000000 1.0
C      1  0.4163560000000  0.5504080000000  0.5580910000000 1.0
C      1  0.4553710000000  0.4643740000000  0.5905140000000 1.0
C      1  0.5601730000000  0.5926240000000  0.4684500000000 1.0
C      1  0.4988640000000  0.5572630000000  0.5228380000000 1.0
C      1  0.5348330000000  0.4804550000000  0.5454360000000 1.0
C      1  0.4175520000000  0.4419240000000  0.5619660000000 1.0
C      1  0.5173650000000  0.6007980000000  0.4444110000000 1.0
C      1  0.4329090000000  0.5133030000000  0.4323930000000 1.0
C      1  0.4648660000000  0.4259850000000  0.4670570000000 1.0
C      1  0.4889700000000  0.4363430000000  0.5225670000000 1.0
C      1  0.5954320000000  0.4280540000000  0.4926510000000 1.0
C      1  0.4376850000000  0.5312970000000  0.5904350000000 1.0
C      1  0.4563800000000  0.4024290000000  0.4824640000000 1.0
C      1  0.5124260000000  0.4841930000000  0.5854090000000 1.0
C      1  0.4396670000000  0.5590620000000  0.4310330000000 1.0
C      1  0.4430800000000  0.4412850000000  0.5765880000000 1.0
C      1  0.5425960000000  0.4800660000000  0.5136900000000 1.0
C      1  0.4565990000000  0.4430950000000  0.5138920000000 1.0
C      1  0.5313230000000  0.4141520000000  0.4251350000000 1.0
C      1  0.4319230000000  0.4976110000000  0.5124710000000 1.0
C      1  0.5562640000000  0.4603230000000  0.5517360000000 1.0
C      1  0.4432100000000  0.5550120000000  0.4601590000000 1.0
C      1  0.4993820000000  0.4699180000000  0.3887750000000 1.0
C      1  0.5650770000000  0.4448230000000  0.5287650000000 1.0
C      1  0.5890940000000  0.4946060000000  0.5305030000000 1.0
C      1  0.3878460000000  0.4780680000000  0.5341960000000 1.0
C      1  0.5028200000000  0.6074220000000  0.5447180000000 1.0
C      1  0.5688330000000  0.4170680000000  0.4848060000000 1.0
C      1  0.4805590000000  0.5650130000000  0.4293180000000 1.0
C      1  0.5821650000000  0.4836560000000  0.4521880000000 1.0
C      1  0.4908040000000  0.4293350000000  0.5747720000000 1.0
C      1  0.4725980000000  0.5392180000000  0.5206320000000 1.0
C      1  0.4070790000000  0.5192300000000  0.4563210000000 1.0
C      1  0.3919740000000  0.5442570000000  0.4609580000000 1.0
C      1  0.4241640000000  0.4614850000000  0.4403320000000 1.0
C      1  0.4965440000000  0.4577580000000  0.5058190000000 1.0
C      1  0.4412830000000  0.5555140000000  0.5751920000000 1.0
C      1  0.5340680000000  0.5400180000000  0.5980960000000 1.0
C      1  0.5102330000000  0.5756320000000  0.5047190000000 1.0
C      1  0.5480160000000  0.5613910000000  0.5822340000000 1.0
C      1  0.5255950000000  0.5808350000000  0.4230990000000 1.0
C      1  0.4286540000000  0.4236900000000  0.5143480000000 1.0
C      1  0.4207270000000  0.5407760000000  0.4988170000000 1.0
C      1  0.4126580000000  0.4253070000000  0.5389880000000 1.0
C      1  0.5670850000000  0.5124250000000  0.5952260000000 1.0
C      1  0.5915810000000  0.5361050000000  0.4316420000000 1.0
C      1  0.5951940000000  0.5446220000000  0.5177870000000 1.0
C      1  0.4051700000000  0.4534950000000  0.4594160000000 1.0
C      1  0.4625040000000  0.4198530000000  0.5721270000000 1.0
C      1  0.5283230000000  0.6127300000000  0.4976190000000 1.0
C      1  0.5436050000000  0.5496910000000  0.4748120000000 1.0
C      1  0.5494350000000  0.4539250000000  0.5065520000000 1.0
C      1  0.4784390000000  0.4907850000000  0.4775320000000 1.0
C      1  0.5511010000000  0.4809010000000  0.3936160000000 1.0
C      1  0.5100790000000  0.3876470000000  0.5500810000000 1.0
C      1  0.4289230000000  0.5058180000000  0.5749430000000 1.0
C      1  0.4757340000000  0.5935810000000  0.5519360000000 1.0
C      1  0.4260630000000  0.5691680000000  0.5368580000000 1.0
C      1  0.4284620000000  0.4112430000000  0.4843200000000 1.0
C      1  0.4665900000000  0.5977440000000  0.5257430000000 1.0
C      1  0.4810520000000  0.5117950000000  0.3908220000000 1.0
C      1  0.4830740000000  0.5584090000000  0.4003180000000 1.0
C      1  0.4927840000000  0.6001250000000  0.4596660000000 1.0
C      1  0.4986950000000  0.5744720000000  0.4763410000000 1.0
C      1  0.5473750000000  0.5377430000000  0.4187150000000 1.0
C      1  0.5040160000000  0.5821370000000  0.5871340000000 1.0
C      1  0.4053330000000  0.5263810000000  0.5435910000000 1.0
C      1  0.5596970000000  0.5275200000000  0.4660090000000 1.0
C      1  0.4561810000000  0.4927470000000  0.5809930000000 1.0
C      1  0.5506560000000  0.5684870000000  0.4272350000000 1.0
C      1  0.5250870000000  0.5375660000000  0.3981520000000 1.0
C      1  0.4825170000000  0.3797150000000  0.5502450000000 1.0
C      1  0.5194830000000  0.5268190000000  0.5519990000000 1.0
C      1  0.4308020000000  0.5253630000000  0.4737750000000 1.0
C      1  0.4904050000000  0.4869420000000  0.5043920000000 1.0
C      1  0.4378930000000  0.4984920000000  0.4850090000000 1.0
C      1  0.4987230000000  0.4046030000000  0.5083350000000 1.0
C      1  0.4637630000000  0.6008570000000  0.4533430000000 1.0
C      1  0.4654500000000  0.5729510000000  0.5735240000000 1.0
C      1  0.4254610000000  0.5789290000000  0.4638480000000 1.0
C      1  0.5197820000000  0.4926480000000  0.4962270000000 1.0
C      1  0.4569150000000  0.5824440000000  0.4318690000000 1.0
C      1  0.4758370000000  0.5073410000000  0.5287960000000 1.0
C      1  0.5515890000000  0.4447880000000  0.4789490000000 1.0
C      1  0.4437850000000  0.5985280000000  0.4747380000000 1.0
C      1  0.5151080000000  0.4080160000000  0.5700290000000 1.0
C      1  0.5018380000000  0.5319740000000  0.4804910000000 1.0
C      1  0.4593080000000  0.4618090000000  0.5368790000000 1.0
C      1  0.5027640000000  0.4773330000000  0.5570040000000 1.0
C      1  0.6111550000000  0.4957700000000  0.4935160000000 1.0
C      1  0.5929980000000  0.4346970000000  0.5212010000000 1.0
C      1  0.4403730000000  0.5350700000000  0.4138610000000 1.0
C      1  0.5769850000000  0.4866100000000  0.5847370000000 1.0
C      1  0.4984900000000  0.4418970000000  0.6005560000000 1.0
C      1  0.5078660000000  0.4916540000000  0.4335590000000 1.0
C      1  0.4336590000000  0.4825110000000  0.4252820000000 1.0
C      1  0.5313850000000  0.5862320000000  0.5848880000000 1.0
C      1  0.5658080000000  0.5164980000000  0.4916730000000 1.0
C      1  0.5193680000000  0.5198630000000  0.4988290000000 1.0
C      1  0.3931620000000  0.4622150000000  0.5100870000000 1.0
C      1  0.4845150000000  0.5647210000000  0.5937060000000 1.0
C      1  0.5403080000000  0.5220500000000  0.4454940000000 1.0
C      1  0.5383830000000  0.4169860000000  0.5797120000000 1.0
C      1  0.4530080000000  0.4891360000000  0.5306020000000 1.0
C      1  0.3842760000000  0.5077010000000  0.5321030000000 1.0
C      1  0.4559400000000  0.4683950000000  0.4122100000000 1.0
C      1  0.4597450000000  0.3951180000000  0.5575100000000 1.0
C      1  0.5189810000000  0.4037670000000  0.4633370000000 1.0
C      1  0.5756710000000  0.5254840000000  0.4115190000000 1.0
C      1  0.4653210000000  0.5353220000000  0.3971450000000 1.0
C      1  0.4634210000000  0.3841000000000  0.5310340000000 1.0
C      1  0.4945800000000  0.4884570000000  0.6090020000000 1.0
END
