TITL C-883733-4178-313 0.717780612987014 125000 -17901.4078201218 0 0 119 (C1) n - 1
REM
REM in /home/nfs/bkarasulu/CARBON/AIRSS/Generating-Clusters/ReaxFF-fromJPCA2015/Units_Real/with-SteepDescent/Only-C1/SD-CG/Try1-3A/FIRE-CG
REM
REM
REM
REM
REM
REM ./C.cell (11c1c37f851c82e70ff6c80c92926a4b)
REM
REM compiler GCC version 9.2.1 20190827 (Red Hat 9.2.1-1)
REM options -cpp -mtune=generic -march=x86-64 -g -O0 -fpre-include=/usr/include/finclude/math-vector-fortran.h
REM seed 1054219585 -907257696 33363929 -1086752089 -122778132 247323967 -873037613 -23597941 -691783687 22844667 -2068365427 584563410 -1743445109 1643859953 1898918553 -1429600518 -1739222439 343065441 -260431753 1899362502 -656848168 -2080700333 507428712 -1448611403 2048207250 -2048694427 1263009278 -446329425 152860081 -504525052 -1710523205 -1369127941 -182457082
REM
CELL 1.54180   50.00000   50.00000   50.00000   90.00000   90.00000   90.00000
LATT -1
SFAC C  
C      1  0.4797220000000  0.4615010000000  0.4794840000000 1.0
C      1  0.4896050000000  0.5398610000000  0.4215970000000 1.0
C      1  0.5406870000000  0.5271510000000  0.5013720000000 1.0
C      1  0.4494130000000  0.5136140000000  0.4387250000000 1.0
C      1  0.4126400000000  0.4583860000000  0.5232810000000 1.0
C      1  0.4936760000000  0.5045430000000  0.4498040000000 1.0
C      1  0.5518920000000  0.5200550000000  0.4326540000000 1.0
C      1  0.5695020000000  0.4603100000000  0.4841350000000 1.0
C      1  0.4368410000000  0.4664060000000  0.4366100000000 1.0
C      1  0.5131080000000  0.5641770000000  0.5014590000000 1.0
C      1  0.5053620000000  0.5501780000000  0.4453810000000 1.0
C      1  0.5429180000000  0.4881640000000  0.5871150000000 1.0
C      1  0.4544990000000  0.5268710000000  0.5096620000000 1.0
C      1  0.4595060000000  0.4789260000000  0.5813260000000 1.0
C      1  0.5116490000000  0.5256570000000  0.4579440000000 1.0
C      1  0.5239970000000  0.4644780000000  0.4875590000000 1.0
C      1  0.5712900000000  0.4831820000000  0.4645610000000 1.0
C      1  0.4838400000000  0.4415300000000  0.5545690000000 1.0
C      1  0.4285100000000  0.5578040000000  0.4871510000000 1.0
C      1  0.5740480000000  0.4931910000000  0.5245820000000 1.0
C      1  0.4447110000000  0.5197830000000  0.5379970000000 1.0
C      1  0.4627240000000  0.5558170000000  0.5156610000000 1.0
C      1  0.5683570000000  0.4466340000000  0.5309360000000 1.0
C      1  0.4606930000000  0.5393140000000  0.4242640000000 1.0
C      1  0.4432480000000  0.5583700000000  0.4380920000000 1.0
C      1  0.5271450000000  0.4394300000000  0.4696470000000 1.0
C      1  0.4953640000000  0.5109250000000  0.5036940000000 1.0
C      1  0.5306340000000  0.4318550000000  0.4387040000000 1.0
C      1  0.5216720000000  0.5915960000000  0.4985240000000 1.0
C      1  0.4850730000000  0.4852940000000  0.5159210000000 1.0
C      1  0.4673230000000  0.4412910000000  0.5299920000000 1.0
C      1  0.5113580000000  0.4334770000000  0.5516000000000 1.0
C      1  0.5051140000000  0.5750910000000  0.4613140000000 1.0
C      1  0.4977520000000  0.4647230000000  0.5004860000000 1.0
C      1  0.5024220000000  0.4989570000000  0.5912270000000 1.0
C      1  0.5841080000000  0.5344220000000  0.4600320000000 1.0
C      1  0.4332310000000  0.4770810000000  0.5663380000000 1.0
C      1  0.5328450000000  0.5234320000000  0.5285760000000 1.0
C      1  0.5040280000000  0.5176800000000  0.4082010000000 1.0
C      1  0.4547620000000  0.5708950000000  0.4907590000000 1.0
C      1  0.4959740000000  0.4888340000000  0.5424410000000 1.0
C      1  0.5396790000000  0.4829330000000  0.4177110000000 1.0
C      1  0.5060070000000  0.4705770000000  0.5872750000000 1.0
C      1  0.5833980000000  0.5077740000000  0.4749800000000 1.0
C      1  0.4483370000000  0.5625140000000  0.5427950000000 1.0
C      1  0.4536720000000  0.4216770000000  0.4446730000000 1.0
C      1  0.4682530000000  0.5089570000000  0.4622710000000 1.0
C      1  0.5783310000000  0.4885580000000  0.5544080000000 1.0
C      1  0.5320470000000  0.5832700000000  0.4712150000000 1.0
C      1  0.5237350000000  0.4806920000000  0.5423580000000 1.0
C      1  0.5214740000000  0.5245070000000  0.5912350000000 1.0
C      1  0.5774540000000  0.4654610000000  0.5113490000000 1.0
C      1  0.5012070000000  0.5786430000000  0.5436520000000 1.0
C      1  0.5052240000000  0.3951150000000  0.4870310000000 1.0
C      1  0.4257270000000  0.5474000000000  0.4602950000000 1.0
C      1  0.4653280000000  0.5554490000000  0.5649590000000 1.0
C      1  0.4312780000000  0.4410560000000  0.5012390000000 1.0
C      1  0.5444230000000  0.5772720000000  0.5431120000000 1.0
C      1  0.5525400000000  0.4361530000000  0.4879660000000 1.0
C      1  0.5406330000000  0.5558560000000  0.5021160000000 1.0
C      1  0.4762060000000  0.5814510000000  0.4724680000000 1.0
C      1  0.4248980000000  0.4980970000000  0.5471060000000 1.0
C      1  0.5561140000000  0.5654520000000  0.4651340000000 1.0
C      1  0.4214940000000  0.4574900000000  0.5500420000000 1.0
C      1  0.4665880000000  0.5251610000000  0.5637320000000 1.0
C      1  0.5231310000000  0.5915540000000  0.5301240000000 1.0
C      1  0.4267790000000  0.5450530000000  0.5348970000000 1.0
C      1  0.5420440000000  0.4965750000000  0.5290330000000 1.0
C      1  0.4713870000000  0.5180450000000  0.4889220000000 1.0
C      1  0.4708570000000  0.4162880000000  0.5157960000000 1.0
C      1  0.4517020000000  0.4731970000000  0.4854690000000 1.0
C      1  0.4587580000000  0.4089140000000  0.4701320000000 1.0
C      1  0.4496820000000  0.4167610000000  0.4967790000000 1.0
C      1  0.4523200000000  0.4607730000000  0.5133990000000 1.0
C      1  0.4103510000000  0.4883540000000  0.5241790000000 1.0
C      1  0.5818110000000  0.5564710000000  0.4787240000000 1.0
C      1  0.4643690000000  0.5729060000000  0.4494220000000 1.0
C      1  0.5601780000000  0.5714750000000  0.5195570000000 1.0
C      1  0.5070250000000  0.5467210000000  0.5823370000000 1.0
C      1  0.4280440000000  0.5183240000000  0.4604400000000 1.0
C      1  0.5055280000000  0.4263780000000  0.4262620000000 1.0
C      1  0.5865210000000  0.5133250000000  0.5028140000000 1.0
C      1  0.4881860000000  0.4120160000000  0.4676010000000 1.0
C      1  0.5480480000000  0.4308830000000  0.5166230000000 1.0
C      1  0.5248670000000  0.4581430000000  0.5646260000000 1.0
C      1  0.4762640000000  0.4519900000000  0.4108730000000 1.0
C      1  0.5025890000000  0.5280860000000  0.5281930000000 1.0
C      1  0.4138360000000  0.5110770000000  0.5041890000000 1.0
C      1  0.4953070000000  0.4408920000000  0.4664080000000 1.0
C      1  0.5858650000000  0.5580930000000  0.5282100000000 1.0
C      1  0.5731630000000  0.5481880000000  0.5513000000000 1.0
C      1  0.5583460000000  0.4916140000000  0.4394690000000 1.0
C      1  0.4946070000000  0.5573760000000  0.5230260000000 1.0
C      1  0.4738130000000  0.5038450000000  0.5858420000000 1.0
C      1  0.4920810000000  0.5674540000000  0.5702020000000 1.0
C      1  0.5487250000000  0.5285490000000  0.5791090000000 1.0
C      1  0.5212410000000  0.5140300000000  0.4827810000000 1.0
C      1  0.4154180000000  0.5410640000000  0.5085260000000 1.0
C      1  0.4908870000000  0.5161890000000  0.5507030000000 1.0
C      1  0.5718560000000  0.4609750000000  0.5573140000000 1.0
C      1  0.5899000000000  0.5415400000000  0.5036200000000 1.0
C      1  0.5124630000000  0.4727430000000  0.4216670000000 1.0
C      1  0.5516300000000  0.4619610000000  0.5790920000000 1.0
C      1  0.5221640000000  0.4213270000000  0.5281270000000 1.0
C      1  0.4747910000000  0.4275220000000  0.4240380000000 1.0
C      1  0.5057380000000  0.4775670000000  0.4505110000000 1.0
C      1  0.4449230000000  0.4868410000000  0.4215370000000 1.0
C      1  0.5622060000000  0.5456560000000  0.4435670000000 1.0
C      1  0.5329170000000  0.5116310000000  0.4116870000000 1.0
C      1  0.5448420000000  0.5449260000000  0.5534170000000 1.0
C      1  0.5644400000000  0.5035650000000  0.5765470000000 1.0
C      1  0.4805250000000  0.4591130000000  0.5783500000000 1.0
C      1  0.4321820000000  0.4422820000000  0.4494100000000 1.0
C      1  0.5001830000000  0.4071540000000  0.5132950000000 1.0
C      1  0.5244790000000  0.4871210000000  0.4706480000000 1.0
C      1  0.4304760000000  0.4547140000000  0.4757970000000 1.0
C      1  0.4674880000000  0.4777160000000  0.4035890000000 1.0
C      1  0.4947110000000  0.4897810000000  0.4046610000000 1.0
C      1  0.4330600000000  0.5028610000000  0.4846550000000 1.0
END
