TITL C-884135-4325-324 -4.78234246656262 125000 -21343.362692275 0 0 144 (C1) n - 1
REM
REM in /home/nfs/bkarasulu/CARBON/AIRSS/Generating-Clusters/ReaxFF-fromJPCA2015/Units_Real/with-SteepDescent/Only-C1/SD-CG/Try1-3A/FIRE-CG
REM
REM
REM
REM
REM
REM ./C.cell (11c1c37f851c82e70ff6c80c92926a4b)
REM
REM compiler GCC version 9.2.1 20190827 (Red Hat 9.2.1-1)
REM options -cpp -mtune=generic -march=x86-64 -g -O0 -fpre-include=/usr/include/finclude/math-vector-fortran.h
REM seed -618808833 1556251540 -497049658 665059458 719290379 -2075583333 610720625 -428949887 -893816687 -57114808 1186136970 917671468 719935197 -1131522869 -549739572 371954641 952874285 -21231977 -1805444074 -518810408 1204231085 -385438094 1894870124 320532387 386750427 -1155657801 1917733030 -1795429551 -1372581136 1583011349 -1794695764 674278363 -497568358
REM
CELL 1.54180   50.00000   50.00000   50.00000   90.00000   90.00000   90.00000
LATT -1
SFAC C  
C      1  0.4935930000000  0.5048180000000  0.5225860000000 1.0
C      1  0.6049850000000  0.4914730000000  0.5424720000000 1.0
C      1  0.5178650000000  0.5708180000000  0.5465450000000 1.0
C      1  0.4460430000000  0.4205850000000  0.4536760000000 1.0
C      1  0.4558300000000  0.5326960000000  0.5283110000000 1.0
C      1  0.5334320000000  0.4257770000000  0.4433370000000 1.0
C      1  0.5840780000000  0.5116170000000  0.4422680000000 1.0
C      1  0.5172250000000  0.4188770000000  0.5460310000000 1.0
C      1  0.5084570000000  0.4385800000000  0.4783650000000 1.0
C      1  0.5544660000000  0.4533180000000  0.5636720000000 1.0
C      1  0.4743960000000  0.4858500000000  0.4377590000000 1.0
C      1  0.4434020000000  0.4859660000000  0.5406620000000 1.0
C      1  0.4943160000000  0.3974520000000  0.4721740000000 1.0
C      1  0.4500580000000  0.5827260000000  0.5466500000000 1.0
C      1  0.4867510000000  0.5920090000000  0.5181150000000 1.0
C      1  0.6056260000000  0.4862720000000  0.5133120000000 1.0
C      1  0.4802690000000  0.5221230000000  0.5404730000000 1.0
C      1  0.4036250000000  0.5114560000000  0.5046050000000 1.0
C      1  0.4300810000000  0.5194700000000  0.4219180000000 1.0
C      1  0.4022660000000  0.4901270000000  0.4847600000000 1.0
C      1  0.4102310000000  0.5596170000000  0.5508600000000 1.0
C      1  0.4953490000000  0.5765300000000  0.5654140000000 1.0
C      1  0.5762330000000  0.5741360000000  0.4984720000000 1.0
C      1  0.4896990000000  0.6196330000000  0.4847950000000 1.0
C      1  0.4953340000000  0.4510780000000  0.4564750000000 1.0
C      1  0.4691350000000  0.4650010000000  0.5493960000000 1.0
C      1  0.5549290000000  0.5857400000000  0.5160920000000 1.0
C      1  0.5450230000000  0.4747870000000  0.5810920000000 1.0
C      1  0.4625630000000  0.5013740000000  0.5838720000000 1.0
C      1  0.5654640000000  0.4618570000000  0.4273340000000 1.0
C      1  0.4663820000000  0.4732010000000  0.4992020000000 1.0
C      1  0.4490400000000  0.4548370000000  0.5681040000000 1.0
C      1  0.5100180000000  0.5488660000000  0.4990550000000 1.0
C      1  0.5091500000000  0.4582230000000  0.5211470000000 1.0
C      1  0.5563080000000  0.5391280000000  0.5207710000000 1.0
C      1  0.5034110000000  0.4936290000000  0.4783980000000 1.0
C      1  0.5143490000000  0.5217960000000  0.5106340000000 1.0
C      1  0.4443630000000  0.5632970000000  0.5256360000000 1.0
C      1  0.4038060000000  0.4847090000000  0.4560470000000 1.0
C      1  0.5498960000000  0.4752330000000  0.4624040000000 1.0
C      1  0.4809810000000  0.4985130000000  0.4974670000000 1.0
C      1  0.5375300000000  0.4133620000000  0.4960220000000 1.0
C      1  0.5590410000000  0.5636190000000  0.4789960000000 1.0
C      1  0.4778400000000  0.5916750000000  0.5475720000000 1.0
C      1  0.5526310000000  0.4932610000000  0.5004280000000 1.0
C      1  0.4269130000000  0.4324210000000  0.5227410000000 1.0
C      1  0.5625980000000  0.5500480000000  0.5506540000000 1.0
C      1  0.5634100000000  0.5249680000000  0.4264120000000 1.0
C      1  0.4488160000000  0.5560630000000  0.4253530000000 1.0
C      1  0.4683150000000  0.3956010000000  0.5202370000000 1.0
C      1  0.5219240000000  0.4107430000000  0.4671130000000 1.0
C      1  0.5477000000000  0.5060160000000  0.5798510000000 1.0
C      1  0.4729750000000  0.3905230000000  0.5490380000000 1.0
C      1  0.5983370000000  0.4582600000000  0.5033260000000 1.0
C      1  0.5556440000000  0.4850320000000  0.5280980000000 1.0
C      1  0.5473400000000  0.5737260000000  0.5423220000000 1.0
C      1  0.4505320000000  0.4720940000000  0.4729230000000 1.0
C      1  0.5205040000000  0.4076540000000  0.5183970000000 1.0
C      1  0.5985050000000  0.5124590000000  0.5009460000000 1.0
C      1  0.5791330000000  0.4772450000000  0.4642660000000 1.0
C      1  0.4468520000000  0.5566870000000  0.4566300000000 1.0
C      1  0.4762730000000  0.5657450000000  0.4211050000000 1.0
C      1  0.4436700000000  0.5208620000000  0.5745060000000 1.0
C      1  0.4689980000000  0.5298080000000  0.4593490000000 1.0
C      1  0.4989810000000  0.4544790000000  0.4081000000000 1.0
C      1  0.4885730000000  0.5111110000000  0.5662170000000 1.0
C      1  0.5343640000000  0.6000470000000  0.4985220000000 1.0
C      1  0.4139820000000  0.4767160000000  0.5442010000000 1.0
C      1  0.5376380000000  0.5714420000000  0.4386860000000 1.0
C      1  0.5860740000000  0.5265910000000  0.5220130000000 1.0
C      1  0.5936340000000  0.4535510000000  0.4751580000000 1.0
C      1  0.4949840000000  0.3981020000000  0.5036220000000 1.0
C      1  0.4983380000000  0.4788710000000  0.5367760000000 1.0
C      1  0.4243900000000  0.4710140000000  0.4941070000000 1.0
C      1  0.4542600000000  0.5477770000000  0.5786960000000 1.0
C      1  0.4166180000000  0.4402420000000  0.4965300000000 1.0
C      1  0.4350590000000  0.5673200000000  0.5671670000000 1.0
C      1  0.4905290000000  0.5051840000000  0.4006780000000 1.0
C      1  0.5288770000000  0.4395680000000  0.5635890000000 1.0
C      1  0.5380550000000  0.5092280000000  0.4311040000000 1.0
C      1  0.5402710000000  0.4752180000000  0.4345760000000 1.0
C      1  0.4840200000000  0.4476790000000  0.5146720000000 1.0
C      1  0.5674930000000  0.5261870000000  0.5667320000000 1.0
C      1  0.5284010000000  0.5934490000000  0.4723930000000 1.0
C      1  0.4618840000000  0.4443620000000  0.4632350000000 1.0
C      1  0.5167660000000  0.5880900000000  0.4477630000000 1.0
C      1  0.4877470000000  0.4280220000000  0.4964200000000 1.0
C      1  0.4884400000000  0.4167760000000  0.5528460000000 1.0
C      1  0.5024610000000  0.5671160000000  0.5221390000000 1.0
C      1  0.5591830000000  0.5126200000000  0.4805960000000 1.0
C      1  0.4727300000000  0.4379570000000  0.5392990000000 1.0
C      1  0.4724200000000  0.5983940000000  0.4861390000000 1.0
C      1  0.4739100000000  0.5280640000000  0.3945170000000 1.0
C      1  0.5776950000000  0.4423270000000  0.5155840000000 1.0
C      1  0.4092000000000  0.4569290000000  0.4588090000000 1.0
C      1  0.5256280000000  0.4532560000000  0.4982440000000 1.0
C      1  0.4265380000000  0.5482090000000  0.4761080000000 1.0
C      1  0.4101850000000  0.5402620000000  0.4970330000000 1.0
C      1  0.5166740000000  0.4487900000000  0.4323200000000 1.0
C      1  0.4945980000000  0.4786250000000  0.4567250000000 1.0
C      1  0.4898900000000  0.4726690000000  0.5973740000000 1.0
C      1  0.4453730000000  0.5352990000000  0.4052990000000 1.0
C      1  0.5025730000000  0.5326640000000  0.5826680000000 1.0
C      1  0.5901950000000  0.5173130000000  0.5495660000000 1.0
C      1  0.4640100000000  0.5236850000000  0.5009520000000 1.0
C      1  0.5052840000000  0.4958820000000  0.6070230000000 1.0
C      1  0.4930290000000  0.5463200000000  0.4061200000000 1.0
C      1  0.4477590000000  0.4152430000000  0.5103150000000 1.0
C      1  0.4793920000000  0.5406920000000  0.4846800000000 1.0
C      1  0.4813870000000  0.4780370000000  0.4097080000000 1.0
C      1  0.4087000000000  0.5034010000000  0.5326240000000 1.0
C      1  0.4161450000000  0.5589310000000  0.5214660000000 1.0
C      1  0.4531580000000  0.4979650000000  0.4543300000000 1.0
C      1  0.4199840000000  0.4324310000000  0.4680140000000 1.0
C      1  0.4862380000000  0.5817370000000  0.4433040000000 1.0
C      1  0.5518380000000  0.5507250000000  0.4313170000000 1.0
C      1  0.5393850000000  0.5168600000000  0.4599590000000 1.0
C      1  0.5602480000000  0.4362680000000  0.4431660000000 1.0
C      1  0.5409090000000  0.5519900000000  0.4967490000000 1.0
C      1  0.5751970000000  0.4320640000000  0.4685670000000 1.0
C      1  0.5836920000000  0.5536330000000  0.4783370000000 1.0
C      1  0.5850820000000  0.4832510000000  0.4360310000000 1.0
C      1  0.4685860000000  0.4018470000000  0.4593410000000 1.0
C      1  0.4833280000000  0.5546910000000  0.5812370000000 1.0
C      1  0.4342820000000  0.5146810000000  0.5458640000000 1.0
C      1  0.5171330000000  0.4647740000000  0.5780540000000 1.0
C      1  0.4433280000000  0.4801790000000  0.5133440000000 1.0
C      1  0.4625850000000  0.4282520000000  0.4887460000000 1.0
C      1  0.4257900000000  0.5006880000000  0.4412000000000 1.0
C      1  0.5069770000000  0.6123390000000  0.5057960000000 1.0
C      1  0.5069980000000  0.5224400000000  0.4203590000000 1.0
C      1  0.5324030000000  0.4785250000000  0.4853990000000 1.0
C      1  0.4962250000000  0.5287340000000  0.4482210000000 1.0
C      1  0.5371800000000  0.5001580000000  0.5478380000000 1.0
C      1  0.5640690000000  0.4255740000000  0.4950040000000 1.0
C      1  0.4613300000000  0.4730500000000  0.5892620000000 1.0
C      1  0.4263840000000  0.4504620000000  0.5472770000000 1.0
C      1  0.4665050000000  0.5819380000000  0.4632450000000 1.0
C      1  0.5647460000000  0.4595570000000  0.5359050000000 1.0
C      1  0.5112690000000  0.4881670000000  0.5580350000000 1.0
C      1  0.5129680000000  0.5195830000000  0.4706760000000 1.0
C      1  0.5864760000000  0.5234790000000  0.4743980000000 1.0
C      1  0.5233700000000  0.5168480000000  0.5957780000000 1.0
C      1  0.5340910000000  0.5223350000000  0.5294950000000 1.0
END
