TITL C-883726-8501-251 26.7592929869833 125000 -29403.0064951175 0 0 198 (C1) n - 1
REM
REM in /home/nfs/bkarasulu/CARBON/AIRSS/Generating-Clusters/ReaxFF-fromJPCA2015/Units_Real/with-SteepDescent/Only-C1/SD-CG/Try1-3A/FIRE-CG
REM
REM
REM
REM
REM
REM ./C.cell (11c1c37f851c82e70ff6c80c92926a4b)
REM
REM compiler GCC version 9.2.1 20190827 (Red Hat 9.2.1-1)
REM options -cpp -mtune=generic -march=x86-64 -g -O0 -fpre-include=/usr/include/finclude/math-vector-fortran.h
REM seed -1287523966 -143798641 -2142921480 1293685349 -281814004 -1661042475 1954805414 -957081445 -449157847 569033383 -1293371791 -580776670 -1237626223 -375133687 398516699 223215925 1978100917 -1716564640 -35891104 1402736621 845322952 121310977 -209673718 1197791103 -198480507 661121931 -1956189747 -281973350 443827236 400156144 -1730821418 -450886432 744912117
REM
CELL 1.54180   50.00000   50.00000   50.00000   90.00000   90.00000   90.00000
LATT -1
SFAC C  
C      1  0.5571110000000  0.5888820000000  0.5016100000000 1.0
C      1  0.4223200000000  0.4484050000000  0.4326410000000 1.0
C      1  0.4883780000000  0.5607300000000  0.4063780000000 1.0
C      1  0.5728660000000  0.5008610000000  0.4261590000000 1.0
C      1  0.5811610000000  0.4207660000000  0.5274470000000 1.0
C      1  0.4984370000000  0.4836390000000  0.4652940000000 1.0
C      1  0.5998790000000  0.4385670000000  0.5353030000000 1.0
C      1  0.4632220000000  0.5362710000000  0.5934130000000 1.0
C      1  0.4587470000000  0.5952540000000  0.5666450000000 1.0
C      1  0.4496830000000  0.4372190000000  0.4293690000000 1.0
C      1  0.4933650000000  0.6108720000000  0.4632360000000 1.0
C      1  0.5753410000000  0.5285550000000  0.4287930000000 1.0
C      1  0.5234940000000  0.4575470000000  0.5915710000000 1.0
C      1  0.5117860000000  0.5308840000000  0.6063800000000 1.0
C      1  0.4000840000000  0.4647440000000  0.4728160000000 1.0
C      1  0.5066110000000  0.5490370000000  0.5026780000000 1.0
C      1  0.5038330000000  0.4075520000000  0.4969510000000 1.0
C      1  0.5095340000000  0.4722650000000  0.6141790000000 1.0
C      1  0.4929340000000  0.4308650000000  0.4156360000000 1.0
C      1  0.5246470000000  0.4740510000000  0.4592070000000 1.0
C      1  0.4769200000000  0.4735350000000  0.4482180000000 1.0
C      1  0.4271650000000  0.4272520000000  0.5228640000000 1.0
C      1  0.5944150000000  0.5729580000000  0.5344540000000 1.0
C      1  0.4506620000000  0.4330380000000  0.4745460000000 1.0
C      1  0.4367550000000  0.5836670000000  0.5524640000000 1.0
C      1  0.5445230000000  0.4976510000000  0.4646470000000 1.0
C      1  0.5390110000000  0.5210260000000  0.5728020000000 1.0
C      1  0.4645510000000  0.3900050000000  0.4721850000000 1.0
C      1  0.4612540000000  0.4760590000000  0.5397590000000 1.0
C      1  0.4978700000000  0.4344490000000  0.5393920000000 1.0
C      1  0.4893130000000  0.3902390000000  0.5421050000000 1.0
C      1  0.4982290000000  0.5687060000000  0.4633630000000 1.0
C      1  0.6119580000000  0.5283700000000  0.5319210000000 1.0
C      1  0.4077900000000  0.5134990000000  0.4770470000000 1.0
C      1  0.5066230000000  0.3946110000000  0.4694710000000 1.0
C      1  0.5673260000000  0.4466720000000  0.4971840000000 1.0
C      1  0.5603580000000  0.4052600000000  0.5167540000000 1.0
C      1  0.5642380000000  0.5333320000000  0.5276000000000 1.0
C      1  0.4338710000000  0.5097750000000  0.4647770000000 1.0
C      1  0.4615530000000  0.5002940000000  0.4973360000000 1.0
C      1  0.4975510000000  0.5037510000000  0.3610700000000 1.0
C      1  0.5640490000000  0.4334270000000  0.4327420000000 1.0
C      1  0.4718220000000  0.4324600000000  0.5824250000000 1.0
C      1  0.5821670000000  0.5359170000000  0.5699450000000 1.0
C      1  0.4866080000000  0.5481290000000  0.6041340000000 1.0
C      1  0.5595150000000  0.4828590000000  0.4086030000000 1.0
C      1  0.5265500000000  0.5733030000000  0.5951030000000 1.0
C      1  0.5354640000000  0.4864600000000  0.3925960000000 1.0
C      1  0.4539290000000  0.5279280000000  0.4556450000000 1.0
C      1  0.5107160000000  0.3918060000000  0.5234690000000 1.0
C      1  0.6165100000000  0.5121660000000  0.4863210000000 1.0
C      1  0.4573580000000  0.5520360000000  0.5013510000000 1.0
C      1  0.4810110000000  0.4815310000000  0.4199200000000 1.0
C      1  0.6137380000000  0.4595710000000  0.5393750000000 1.0
C      1  0.5133620000000  0.4359920000000  0.4863680000000 1.0
C      1  0.6047500000000  0.4832090000000  0.4867380000000 1.0
C      1  0.5307640000000  0.5327510000000  0.3777380000000 1.0
C      1  0.4721870000000  0.5541030000000  0.5497190000000 1.0
C      1  0.5366250000000  0.4405880000000  0.4011240000000 1.0
C      1  0.4477710000000  0.5254040000000  0.5034660000000 1.0
C      1  0.4260080000000  0.4186540000000  0.4691790000000 1.0
C      1  0.4815370000000  0.3982460000000  0.4520670000000 1.0
C      1  0.5555530000000  0.4024470000000  0.4869640000000 1.0
C      1  0.5428470000000  0.5713510000000  0.5510320000000 1.0
C      1  0.4970170000000  0.4571110000000  0.4980510000000 1.0
C      1  0.5348750000000  0.4039600000000  0.5370320000000 1.0
C      1  0.5441780000000  0.4934880000000  0.6188840000000 1.0
C      1  0.4927140000000  0.4594740000000  0.4051800000000 1.0
C      1  0.5349870000000  0.4297380000000  0.5888210000000 1.0
C      1  0.5048360000000  0.5363350000000  0.4572160000000 1.0
C      1  0.5240150000000  0.4117810000000  0.5682650000000 1.0
C      1  0.4471450000000  0.5691460000000  0.4801920000000 1.0
C      1  0.4839940000000  0.4737660000000  0.6043150000000 1.0
C      1  0.6055190000000  0.4502850000000  0.4486030000000 1.0
C      1  0.5848200000000  0.4295530000000  0.4527480000000 1.0
C      1  0.4713820000000  0.6190510000000  0.5068860000000 1.0
C      1  0.4796430000000  0.5239310000000  0.3706350000000 1.0
C      1  0.5029910000000  0.4888030000000  0.5634530000000 1.0
C      1  0.6005080000000  0.5503280000000  0.5510550000000 1.0
C      1  0.4803110000000  0.5225790000000  0.4449300000000 1.0
C      1  0.5186660000000  0.4627030000000  0.3925500000000 1.0
C      1  0.4528000000000  0.4285350000000  0.5673980000000 1.0
C      1  0.4676510000000  0.6190590000000  0.4773910000000 1.0
C      1  0.4979910000000  0.5735520000000  0.4910140000000 1.0
C      1  0.5111820000000  0.4998820000000  0.5132570000000 1.0
C      1  0.4496220000000  0.4885200000000  0.3819810000000 1.0
C      1  0.5024240000000  0.5294330000000  0.4839600000000 1.0
C      1  0.5775300000000  0.5391270000000  0.4908780000000 1.0
C      1  0.5369020000000  0.4218750000000  0.4435650000000 1.0
C      1  0.5412600000000  0.5892240000000  0.4405120000000 1.0
C      1  0.5868330000000  0.5900410000000  0.5114540000000 1.0
C      1  0.4019410000000  0.5411220000000  0.4851660000000 1.0
C      1  0.5266770000000  0.4451570000000  0.4637300000000 1.0
C      1  0.4595740000000  0.4775680000000  0.5127130000000 1.0
C      1  0.5414260000000  0.4983040000000  0.4996890000000 1.0
C      1  0.5106010000000  0.5996010000000  0.5561570000000 1.0
C      1  0.4039130000000  0.5115590000000  0.5739860000000 1.0
C      1  0.4972040000000  0.5737200000000  0.5948480000000 1.0
C      1  0.5954840000000  0.4772210000000  0.4588630000000 1.0
C      1  0.4395550000000  0.4871100000000  0.4803840000000 1.0
C      1  0.5612250000000  0.5629130000000  0.4928890000000 1.0
C      1  0.4849070000000  0.5919680000000  0.5132930000000 1.0
C      1  0.5343710000000  0.4785110000000  0.5735050000000 1.0
C      1  0.4166610000000  0.4863420000000  0.5770260000000 1.0
C      1  0.5961520000000  0.5825640000000  0.4849480000000 1.0
C      1  0.6117830000000  0.5003160000000  0.5374720000000 1.0
C      1  0.5974020000000  0.5419670000000  0.4440610000000 1.0
C      1  0.4333590000000  0.4825220000000  0.4005680000000 1.0
C      1  0.4306050000000  0.5702380000000  0.5284580000000 1.0
C      1  0.4243960000000  0.5211550000000  0.5201340000000 1.0
C      1  0.4097500000000  0.4408120000000  0.4575110000000 1.0
C      1  0.4629980000000  0.4585110000000  0.5940980000000 1.0
C      1  0.4655100000000  0.5045070000000  0.5442440000000 1.0
C      1  0.5345960000000  0.4000840000000  0.4659760000000 1.0
C      1  0.5158460000000  0.5495380000000  0.5297680000000 1.0
C      1  0.3940900000000  0.4913960000000  0.4614910000000 1.0
C      1  0.3961900000000  0.4278180000000  0.5147350000000 1.0
C      1  0.4539890000000  0.5525050000000  0.5713140000000 1.0
C      1  0.4983780000000  0.5405040000000  0.5511710000000 1.0
C      1  0.4952410000000  0.4140100000000  0.5638160000000 1.0
C      1  0.5976370000000  0.5650320000000  0.4632780000000 1.0
C      1  0.4434810000000  0.5658100000000  0.4290750000000 1.0
C      1  0.4685420000000  0.4571170000000  0.5000320000000 1.0
C      1  0.6055490000000  0.5329490000000  0.5035860000000 1.0
C      1  0.4789320000000  0.4191740000000  0.5152300000000 1.0
C      1  0.5431360000000  0.4488840000000  0.5140180000000 1.0
C      1  0.4828550000000  0.5112270000000  0.4183940000000 1.0
C      1  0.5495230000000  0.4762740000000  0.5196000000000 1.0
C      1  0.5172730000000  0.5693530000000  0.4039060000000 1.0
C      1  0.3893360000000  0.5454200000000  0.5384190000000 1.0
C      1  0.5194840000000  0.6131470000000  0.4785770000000 1.0
C      1  0.6117480000000  0.5262380000000  0.4625900000000 1.0
C      1  0.4928500000000  0.4645310000000  0.5445860000000 1.0
C      1  0.4709140000000  0.5759740000000  0.4230320000000 1.0
C      1  0.4864130000000  0.4942310000000  0.5872580000000 1.0
C      1  0.5705720000000  0.4907970000000  0.4514210000000 1.0
C      1  0.5342160000000  0.5890810000000  0.5705670000000 1.0
C      1  0.4719760000000  0.4175450000000  0.4303800000000 1.0
C      1  0.4159200000000  0.4763010000000  0.4945990000000 1.0
C      1  0.4414460000000  0.5193980000000  0.5441920000000 1.0
C      1  0.4298620000000  0.4334520000000  0.5523550000000 1.0
C      1  0.6005220000000  0.4793800000000  0.5410680000000 1.0
C      1  0.5488460000000  0.4806280000000  0.5483280000000 1.0
C      1  0.4231040000000  0.5471230000000  0.4225040000000 1.0
C      1  0.5385300000000  0.5484100000000  0.6037260000000 1.0
C      1  0.5750100000000  0.4226450000000  0.4809980000000 1.0
C      1  0.4559060000000  0.4334860000000  0.5037280000000 1.0
C      1  0.5207490000000  0.4228410000000  0.4176520000000 1.0
C      1  0.4882420000000  0.5879220000000  0.4448750000000 1.0
C      1  0.5607380000000  0.4536360000000  0.4123040000000 1.0
C      1  0.3991040000000  0.5483830000000  0.4570330000000 1.0
C      1  0.5489820000000  0.5389360000000  0.4351810000000 1.0
C      1  0.5601500000000  0.5195850000000  0.5041210000000 1.0
C      1  0.5073050000000  0.4724900000000  0.5200560000000 1.0
C      1  0.5301420000000  0.6040820000000  0.5048100000000 1.0
C      1  0.4456040000000  0.5544970000000  0.4556250000000 1.0
C      1  0.4943300000000  0.5092360000000  0.5418220000000 1.0
C      1  0.4456520000000  0.5988850000000  0.4775680000000 1.0
C      1  0.4620550000000  0.5665990000000  0.5254960000000 1.0
C      1  0.3753520000000  0.5232760000000  0.5296960000000 1.0
C      1  0.5356170000000  0.6042260000000  0.4572340000000 1.0
C      1  0.5596540000000  0.5324590000000  0.5901830000000 1.0
C      1  0.5272710000000  0.4325830000000  0.5318510000000 1.0
C      1  0.5724580000000  0.5198240000000  0.5488190000000 1.0
C      1  0.4109730000000  0.4030710000000  0.5120600000000 1.0
C      1  0.4067930000000  0.4916210000000  0.5198830000000 1.0
C      1  0.4113670000000  0.4791230000000  0.5470260000000 1.0
C      1  0.5402560000000  0.5676850000000  0.4227870000000 1.0
C      1  0.4023660000000  0.4984840000000  0.4345750000000 1.0
C      1  0.4042930000000  0.5285080000000  0.4321950000000 1.0
C      1  0.3741220000000  0.4977650000000  0.5192000000000 1.0
C      1  0.5173130000000  0.5004490000000  0.6197110000000 1.0
C      1  0.5668640000000  0.4657230000000  0.6022250000000 1.0
C      1  0.4685990000000  0.4969260000000  0.3634970000000 1.0
C      1  0.4340540000000  0.4619950000000  0.5476870000000 1.0
C      1  0.5831420000000  0.4700330000000  0.4981640000000 1.0
C      1  0.4880520000000  0.5923690000000  0.5737840000000 1.0
C      1  0.4097530000000  0.5507470000000  0.5173300000000 1.0
C      1  0.5510160000000  0.5072220000000  0.5529690000000 1.0
C      1  0.4603870000000  0.5064410000000  0.5912100000000 1.0
C      1  0.4678360000000  0.3932060000000  0.5228530000000 1.0
C      1  0.4938790000000  0.5038360000000  0.4889090000000 1.0
C      1  0.4814940000000  0.5327280000000  0.3983670000000 1.0
C      1  0.4162250000000  0.4759190000000  0.4209800000000 1.0
C      1  0.4017900000000  0.5383380000000  0.5652140000000 1.0
C      1  0.4528850000000  0.3849690000000  0.4966190000000 1.0
C      1  0.5596300000000  0.4409050000000  0.5970790000000 1.0
C      1  0.5109040000000  0.6008270000000  0.5264030000000 1.0
C      1  0.4314740000000  0.5392160000000  0.5621760000000 1.0
C      1  0.5248690000000  0.5058600000000  0.3729410000000 1.0
C      1  0.4262210000000  0.3954810000000  0.4876520000000 1.0
C      1  0.4595070000000  0.4507110000000  0.4535680000000 1.0
C      1  0.5432030000000  0.5528190000000  0.5327700000000 1.0
C      1  0.5338200000000  0.5235500000000  0.4518300000000 1.0
C      1  0.5324760000000  0.5548350000000  0.3854020000000 1.0
C      1  0.4445730000000  0.4821940000000  0.5884590000000 1.0
C      1  0.5579040000000  0.4909950000000  0.5942810000000 1.0
C      1  0.5131440000000  0.5301030000000  0.5764920000000 1.0
END
