TITL C-883735-9890-420 72.0480179711492 125000 -26905.7018813308 0 0 184 (C1) n - 1
REM
REM in /home/nfs/bkarasulu/CARBON/AIRSS/Generating-Clusters/ReaxFF-fromJPCA2015/Units_Real/with-SteepDescent/Only-C1/SD-CG/Try1-3A/FIRE-CG
REM
REM
REM
REM
REM
REM ./C.cell (11c1c37f851c82e70ff6c80c92926a4b)
REM
REM compiler GCC version 9.2.1 20190827 (Red Hat 9.2.1-1)
REM options -cpp -mtune=generic -march=x86-64 -g -O0 -fpre-include=/usr/include/finclude/math-vector-fortran.h
REM seed 951005856 -294784866 -795000090 -1497376369 1020104737 -1959501626 931842241 1564085338 -1622462739 2085024779 1076623819 535720988 1741251067 2068771064 849262283 254619449 914954173 544775302 -2141583407 -1583047666 -1218044983 755275371 -1919870077 174760026 -874065697 -350901995 -101873566 -1299733124 308416293 -1173631049 1136128014 1496845926 -530801805
REM
CELL 1.54180   50.00000   50.00000   50.00000   90.00000   90.00000   90.00000
LATT -1
SFAC C  
C      1  0.6064940000000  0.4637040000000  0.4817940000000 1.0
C      1  0.5395360000000  0.3964760000000  0.5085710000000 1.0
C      1  0.4857670000000  0.5539680000000  0.4465570000000 1.0
C      1  0.5233690000000  0.3784740000000  0.4859800000000 1.0
C      1  0.4213640000000  0.4900880000000  0.5898000000000 1.0
C      1  0.4524680000000  0.5100070000000  0.3957980000000 1.0
C      1  0.5021370000000  0.4735850000000  0.5482580000000 1.0
C      1  0.4818440000000  0.5618850000000  0.4051890000000 1.0
C      1  0.4328080000000  0.4647700000000  0.5863350000000 1.0
C      1  0.6048720000000  0.4240300000000  0.4764830000000 1.0
C      1  0.4883000000000  0.4841010000000  0.6071050000000 1.0
C      1  0.4083610000000  0.4487260000000  0.5434200000000 1.0
C      1  0.5974810000000  0.5514710000000  0.4554070000000 1.0
C      1  0.5356490000000  0.4700570000000  0.5042900000000 1.0
C      1  0.5058170000000  0.4276730000000  0.5614870000000 1.0
C      1  0.5952690000000  0.5207090000000  0.4970610000000 1.0
C      1  0.5785390000000  0.4698970000000  0.4753730000000 1.0
C      1  0.4581580000000  0.6004970000000  0.4987630000000 1.0
C      1  0.5449030000000  0.5332780000000  0.6077640000000 1.0
C      1  0.4385320000000  0.4772020000000  0.4703290000000 1.0
C      1  0.5214430000000  0.5876260000000  0.5346860000000 1.0
C      1  0.5083350000000  0.3985780000000  0.4696890000000 1.0
C      1  0.4693750000000  0.3956870000000  0.5515430000000 1.0
C      1  0.5236160000000  0.4222360000000  0.5046080000000 1.0
C      1  0.5527000000000  0.4302640000000  0.4477690000000 1.0
C      1  0.5010400000000  0.6140610000000  0.5058380000000 1.0
C      1  0.5155720000000  0.6063360000000  0.4566960000000 1.0
C      1  0.5946450000000  0.5291800000000  0.4380910000000 1.0
C      1  0.4511070000000  0.4126060000000  0.5014040000000 1.0
C      1  0.4951340000000  0.4868280000000  0.3977830000000 1.0
C      1  0.5204000000000  0.5194060000000  0.5733780000000 1.0
C      1  0.4422400000000  0.6008260000000  0.4771180000000 1.0
C      1  0.4211150000000  0.4533950000000  0.4660080000000 1.0
C      1  0.5003840000000  0.4174430000000  0.4909320000000 1.0
C      1  0.6046480000000  0.4396860000000  0.5002600000000 1.0
C      1  0.6117240000000  0.4547810000000  0.4529290000000 1.0
C      1  0.4767620000000  0.6198780000000  0.4900040000000 1.0
C      1  0.5333870000000  0.4866030000000  0.6039010000000 1.0
C      1  0.4006480000000  0.4742550000000  0.5504590000000 1.0
C      1  0.4132320000000  0.4374600000000  0.5167300000000 1.0
C      1  0.4978780000000  0.5760820000000  0.5220070000000 1.0
C      1  0.5232220000000  0.5867220000000  0.4350370000000 1.0
C      1  0.5216870000000  0.4846440000000  0.3825710000000 1.0
C      1  0.4347730000000  0.5815310000000  0.5467820000000 1.0
C      1  0.4194610000000  0.5490200000000  0.4524400000000 1.0
C      1  0.4867850000000  0.4411060000000  0.5784170000000 1.0
C      1  0.4063970000000  0.4837240000000  0.4969550000000 1.0
C      1  0.4870970000000  0.3807630000000  0.5393540000000 1.0
C      1  0.4683470000000  0.4364530000000  0.4625120000000 1.0
C      1  0.4717940000000  0.5042450000000  0.4407160000000 1.0
C      1  0.5683970000000  0.5895380000000  0.5180130000000 1.0
C      1  0.5358550000000  0.5462000000000  0.5409400000000 1.0
C      1  0.4701890000000  0.5729300000000  0.4647820000000 1.0
C      1  0.4445790000000  0.5321620000000  0.4135060000000 1.0
C      1  0.3915590000000  0.5477340000000  0.4608520000000 1.0
C      1  0.6043980000000  0.5093830000000  0.5650870000000 1.0
C      1  0.4975490000000  0.6019330000000  0.5346100000000 1.0
C      1  0.5270800000000  0.4689070000000  0.4508170000000 1.0
C      1  0.4714630000000  0.4678220000000  0.3975560000000 1.0
C      1  0.5413080000000  0.4002790000000  0.5368890000000 1.0
C      1  0.4483120000000  0.5877790000000  0.4526890000000 1.0
C      1  0.4815420000000  0.3916610000000  0.4510750000000 1.0
C      1  0.4185800000000  0.6086160000000  0.5009730000000 1.0
C      1  0.5764360000000  0.5709960000000  0.4965110000000 1.0
C      1  0.4513890000000  0.5735790000000  0.5950840000000 1.0
C      1  0.4270390000000  0.5266770000000  0.4774210000000 1.0
C      1  0.5752150000000  0.5700090000000  0.5644480000000 1.0
C      1  0.4993100000000  0.5050000000000  0.4897240000000 1.0
C      1  0.4102920000000  0.4555940000000  0.4948290000000 1.0
C      1  0.4911510000000  0.4946300000000  0.5156130000000 1.0
C      1  0.4463790000000  0.4817170000000  0.4010760000000 1.0
C      1  0.4916760000000  0.3952600000000  0.4250540000000 1.0
C      1  0.5870860000000  0.4056390000000  0.4855330000000 1.0
C      1  0.4182070000000  0.4969160000000  0.4731490000000 1.0
C      1  0.3946010000000  0.5646660000000  0.5136230000000 1.0
C      1  0.5331110000000  0.4356550000000  0.4095860000000 1.0
C      1  0.5423870000000  0.4462280000000  0.5814220000000 1.0
C      1  0.4426960000000  0.3989670000000  0.4832660000000 1.0
C      1  0.5040790000000  0.4461270000000  0.5369070000000 1.0
C      1  0.4481960000000  0.4850610000000  0.5989580000000 1.0
C      1  0.5113500000000  0.5005560000000  0.6153000000000 1.0
C      1  0.4053050000000  0.5762820000000  0.5371010000000 1.0
C      1  0.5699050000000  0.4978390000000  0.4844850000000 1.0
C      1  0.4760850000000  0.4319410000000  0.4954720000000 1.0
C      1  0.6230630000000  0.5248630000000  0.4955590000000 1.0
C      1  0.5820190000000  0.4307550000000  0.5189210000000 1.0
C      1  0.5566300000000  0.4458200000000  0.4214930000000 1.0
C      1  0.5282180000000  0.4464000000000  0.5194150000000 1.0
C      1  0.6066370000000  0.5427600000000  0.4819340000000 1.0
C      1  0.4690280000000  0.4441900000000  0.4143480000000 1.0
C      1  0.5550960000000  0.5888850000000  0.5657050000000 1.0
C      1  0.4854180000000  0.4795350000000  0.4462650000000 1.0
C      1  0.5328200000000  0.4585060000000  0.4771750000000 1.0
C      1  0.4423380000000  0.4236580000000  0.5659230000000 1.0
C      1  0.3963710000000  0.4945780000000  0.4492790000000 1.0
C      1  0.5149680000000  0.5267050000000  0.4786820000000 1.0
C      1  0.5261710000000  0.4602320000000  0.5995270000000 1.0
C      1  0.4348700000000  0.4501660000000  0.5606610000000 1.0
C      1  0.5027360000000  0.5688030000000  0.5729900000000 1.0
C      1  0.5725950000000  0.4727970000000  0.4187110000000 1.0
C      1  0.5111770000000  0.4853070000000  0.4336500000000 1.0
C      1  0.4982330000000  0.5730000000000  0.4263490000000 1.0
C      1  0.4296680000000  0.4130410000000  0.5189070000000 1.0
C      1  0.4768880000000  0.4702230000000  0.5623150000000 1.0
C      1  0.4177240000000  0.5091950000000  0.5396460000000 1.0
C      1  0.5283170000000  0.4971290000000  0.4538460000000 1.0
C      1  0.5099390000000  0.4225650000000  0.4283850000000 1.0
C      1  0.5598170000000  0.5993770000000  0.5398890000000 1.0
C      1  0.4028280000000  0.5060710000000  0.5144410000000 1.0
C      1  0.6146240000000  0.5073020000000  0.5156470000000 1.0
C      1  0.4983990000000  0.4579380000000  0.6006750000000 1.0
C      1  0.5174520000000  0.5294620000000  0.6131610000000 1.0
C      1  0.4638010000000  0.5290210000000  0.4371350000000 1.0
C      1  0.4584270000000  0.5360260000000  0.5364060000000 1.0
C      1  0.5829140000000  0.5470650000000  0.5522930000000 1.0
C      1  0.3898700000000  0.5214900000000  0.4498090000000 1.0
C      1  0.5891260000000  0.5327980000000  0.5773880000000 1.0
C      1  0.4773840000000  0.4449910000000  0.5219230000000 1.0
C      1  0.4277570000000  0.4657020000000  0.4183560000000 1.0
C      1  0.4379620000000  0.6011370000000  0.5204690000000 1.0
C      1  0.4420030000000  0.4299590000000  0.4515040000000 1.0
C      1  0.5607620000000  0.5457100000000  0.5036920000000 1.0
C      1  0.5443060000000  0.5023300000000  0.5807700000000 1.0
C      1  0.5279960000000  0.5745900000000  0.4897170000000 1.0
C      1  0.5552500000000  0.4148750000000  0.5548900000000 1.0
C      1  0.3890750000000  0.5487980000000  0.4916020000000 1.0
C      1  0.4063630000000  0.4970830000000  0.5652120000000 1.0
C      1  0.4602990000000  0.4613990000000  0.5387610000000 1.0
C      1  0.5219030000000  0.6012060000000  0.4881320000000 1.0
C      1  0.5122490000000  0.5160980000000  0.5482680000000 1.0
C      1  0.4595670000000  0.4807130000000  0.4891770000000 1.0
C      1  0.5658660000000  0.4999110000000  0.5347220000000 1.0
C      1  0.5979580000000  0.5025860000000  0.4355550000000 1.0
C      1  0.4713160000000  0.4953850000000  0.5858260000000 1.0
C      1  0.5094630000000  0.4950030000000  0.5349430000000 1.0
C      1  0.4922330000000  0.6176010000000  0.4652610000000 1.0
C      1  0.5716960000000  0.4377000000000  0.5450930000000 1.0
C      1  0.4872660000000  0.5478200000000  0.5243170000000 1.0
C      1  0.5009970000000  0.5391020000000  0.5867580000000 1.0
C      1  0.5306330000000  0.5341200000000  0.4301750000000 1.0
C      1  0.5126820000000  0.5337690000000  0.5302180000000 1.0
C      1  0.4678630000000  0.4179260000000  0.5739920000000 1.0
C      1  0.5708320000000  0.4062030000000  0.5073250000000 1.0
C      1  0.4075750000000  0.5295210000000  0.4987430000000 1.0
C      1  0.5557340000000  0.4895750000000  0.5094000000000 1.0
C      1  0.4810440000000  0.5128120000000  0.3911420000000 1.0
C      1  0.4405590000000  0.4061020000000  0.5448870000000 1.0
C      1  0.5655580000000  0.5242400000000  0.5937420000000 1.0
C      1  0.4466370000000  0.5114220000000  0.5329360000000 1.0
C      1  0.5489610000000  0.5751760000000  0.4406420000000 1.0
C      1  0.5528770000000  0.5095070000000  0.4620750000000 1.0
C      1  0.4778560000000  0.5412550000000  0.4983700000000 1.0
C      1  0.5616260000000  0.5346860000000  0.5319180000000 1.0
C      1  0.4351160000000  0.5673760000000  0.4352970000000 1.0
C      1  0.5727260000000  0.5637360000000  0.4471150000000 1.0
C      1  0.5231660000000  0.5309230000000  0.4026540000000 1.0
C      1  0.4956230000000  0.5376390000000  0.3947760000000 1.0
C      1  0.5385140000000  0.5061760000000  0.3938910000000 1.0
C      1  0.4834690000000  0.4857950000000  0.4752440000000 1.0
C      1  0.5323770000000  0.4220030000000  0.5698900000000 1.0
C      1  0.5340750000000  0.5479730000000  0.4913290000000 1.0
C      1  0.4522300000000  0.5455520000000  0.5819410000000 1.0
C      1  0.4526670000000  0.3980230000000  0.4575870000000 1.0
C      1  0.4560300000000  0.5894480000000  0.5706340000000 1.0
C      1  0.5283570000000  0.4149430000000  0.4491330000000 1.0
C      1  0.5113940000000  0.5377620000000  0.4521120000000 1.0
C      1  0.4616180000000  0.5573780000000  0.4864850000000 1.0
C      1  0.4521450000000  0.5600300000000  0.4110580000000 1.0
C      1  0.5592360000000  0.4484160000000  0.4705430000000 1.0
C      1  0.4735590000000  0.5266870000000  0.5855850000000 1.0
C      1  0.5601890000000  0.4589260000000  0.5617750000000 1.0
C      1  0.5978800000000  0.4752740000000  0.4324550000000 1.0
C      1  0.4617430000000  0.4876510000000  0.5182520000000 1.0
C      1  0.5568170000000  0.5194120000000  0.4348110000000 1.0
C      1  0.5976810000000  0.5004640000000  0.5380120000000 1.0
C      1  0.4845690000000  0.5871450000000  0.5635110000000 1.0
C      1  0.5293930000000  0.5713700000000  0.5576270000000 1.0
C      1  0.4430540000000  0.5529600000000  0.5538230000000 1.0
C      1  0.4417720000000  0.4406520000000  0.4232520000000 1.0
C      1  0.4850400000000  0.4433690000000  0.4397430000000 1.0
C      1  0.5567780000000  0.4866590000000  0.5585040000000 1.0
C      1  0.4104770000000  0.4701110000000  0.4416250000000 1.0
C      1  0.4549790000000  0.5296930000000  0.4864140000000 1.0
C      1  0.5597160000000  0.4984700000000  0.4131420000000 1.0
END
