TITL C-883736-9678-395 33.7110465894072 125000 -7787.40890523274 0 0 54 (C1) n - 1
REM
REM in /home/nfs/bkarasulu/CARBON/AIRSS/Generating-Clusters/ReaxFF-fromJPCA2015/Units_Real/with-SteepDescent/Only-C1/SD-CG/Try1-3A/FIRE-CG
REM
REM
REM
REM
REM
REM ./C.cell (11c1c37f851c82e70ff6c80c92926a4b)
REM
REM compiler GCC version 9.2.1 20190827 (Red Hat 9.2.1-1)
REM options -cpp -mtune=generic -march=x86-64 -g -O0 -fpre-include=/usr/include/finclude/math-vector-fortran.h
REM seed -349999427 1215851216 -670747463 533972693 1370365185 -690801611 -798836616 1853432776 -2046784790 1961014068 -2090195790 -1225114637 -425359733 -1381874015 1554867317 1311953555 598101517 -874935893 579360926 -2063768699 -1295763076 1357457671 -254959605 760441493 -811058403 4161035 606907082 1333076198 -145255170 1049152058 1932435264 -253415233 -1732698178
REM
CELL 1.54180   50.00000   50.00000   50.00000   90.00000   90.00000   90.00000
LATT -1
SFAC C  
C      1  0.4435960000000  0.4908380000000  0.4589330000000 1.0
C      1  0.5354060000000  0.5362550000000  0.4718980000000 1.0
C      1  0.5234640000000  0.4882360000000  0.4805060000000 1.0
C      1  0.4567460000000  0.4658480000000  0.4503570000000 1.0
C      1  0.5062850000000  0.5301370000000  0.4465460000000 1.0
C      1  0.4634710000000  0.5434240000000  0.5475120000000 1.0
C      1  0.5341290000000  0.4429870000000  0.4834420000000 1.0
C      1  0.5702780000000  0.4707770000000  0.5055940000000 1.0
C      1  0.4241970000000  0.4935300000000  0.5090450000000 1.0
C      1  0.5573050000000  0.5394970000000  0.5119520000000 1.0
C      1  0.5649730000000  0.5127710000000  0.4818640000000 1.0
C      1  0.5250510000000  0.5195200000000  0.5489880000000 1.0
C      1  0.4424420000000  0.5236090000000  0.5475640000000 1.0
C      1  0.4909330000000  0.5035610000000  0.5216080000000 1.0
C      1  0.4606630000000  0.4503660000000  0.5004140000000 1.0
C      1  0.4745430000000  0.5585940000000  0.4795060000000 1.0
C      1  0.5148670000000  0.5428630000000  0.5335540000000 1.0
C      1  0.5358770000000  0.5138920000000  0.4895180000000 1.0
C      1  0.5789570000000  0.4978870000000  0.5028210000000 1.0
C      1  0.4901740000000  0.4517200000000  0.5063940000000 1.0
C      1  0.5033950000000  0.4569170000000  0.5336760000000 1.0
C      1  0.4688980000000  0.5585210000000  0.5089220000000 1.0
C      1  0.4799850000000  0.5007940000000  0.4955240000000 1.0
C      1  0.5689130000000  0.5168920000000  0.5249460000000 1.0
C      1  0.5226680000000  0.5573970000000  0.4829250000000 1.0
C      1  0.5071570000000  0.4360000000000  0.4836440000000 1.0
C      1  0.5351790000000  0.5242630000000  0.4470130000000 1.0
C      1  0.5141720000000  0.4834630000000  0.5283600000000 1.0
C      1  0.4812320000000  0.5073850000000  0.5500410000000 1.0
C      1  0.4855010000000  0.4655460000000  0.4421820000000 1.0
C      1  0.4971790000000  0.4788490000000  0.4883470000000 1.0
C      1  0.5065360000000  0.5022110000000  0.5647030000000 1.0
C      1  0.4849190000000  0.5137500000000  0.4478990000000 1.0
C      1  0.4998410000000  0.5528780000000  0.4661300000000 1.0
C      1  0.4634230000000  0.5128610000000  0.4696140000000 1.0
C      1  0.4538460000000  0.4967850000000  0.5566490000000 1.0
C      1  0.4397220000000  0.4648430000000  0.5153850000000 1.0
C      1  0.5481620000000  0.5038110000000  0.5406180000000 1.0
C      1  0.4439420000000  0.5420200000000  0.5038800000000 1.0
C      1  0.4464610000000  0.4766650000000  0.5391770000000 1.0
C      1  0.5528880000000  0.4511590000000  0.5468800000000 1.0
C      1  0.5317340000000  0.5527540000000  0.5117490000000 1.0
C      1  0.4308990000000  0.4904350000000  0.4830620000000 1.0
C      1  0.4862220000000  0.5527740000000  0.5331050000000 1.0
C      1  0.5099650000000  0.4740950000000  0.5562550000000 1.0
C      1  0.5576980000000  0.4578150000000  0.4819330000000 1.0
C      1  0.5571020000000  0.4727320000000  0.5332290000000 1.0
C      1  0.4941460000000  0.4921360000000  0.4408640000000 1.0
C      1  0.5549150000000  0.5033850000000  0.4547410000000 1.0
C      1  0.4519890000000  0.5399720000000  0.4756520000000 1.0
C      1  0.5441130000000  0.4770430000000  0.4624970000000 1.0
C      1  0.4327330000000  0.5203080000000  0.5198300000000 1.0
C      1  0.4892190000000  0.4417440000000  0.4611560000000 1.0
C      1  0.4618920000000  0.4454850000000  0.4713980000000 1.0
END
