TITL C-884129-4740-68 61.6813324280587 125000 -29042.9918093316 0 0 196 (C1) n - 1
REM
REM in /home/nfs/bkarasulu/CARBON/AIRSS/Generating-Clusters/ReaxFF-fromJPCA2015/Units_Real/with-SteepDescent/Only-C1/SD-CG/Try1-3A/FIRE-CG
REM
REM
REM
REM
REM
REM ./C.cell (11c1c37f851c82e70ff6c80c92926a4b)
REM
REM compiler GCC version 9.2.1 20190827 (Red Hat 9.2.1-1)
REM options -cpp -mtune=generic -march=x86-64 -g -O0 -fpre-include=/usr/include/finclude/math-vector-fortran.h
REM seed -597441309 -1402214700 1413701 696139772 -267464278 -1837413962 99964614 775315017 -1933755365 2115206129 -1969317490 367618703 -1904769349 527346100 151803453 1298336325 680604798 -320237373 2089094585 1038587536 368632974 -1697619615 -644556129 -499520573 1299125280 -236869564 -26874995 -335519061 -504911223 -1463100000 -1716690157 365003394 -639401206
REM
CELL 1.54180   50.00000   50.00000   50.00000   90.00000   90.00000   90.00000
LATT -1
SFAC C  
C      1  0.4858930000000  0.4932310000000  0.6123670000000 1.0
C      1  0.5259680000000  0.3929410000000  0.4987160000000 1.0
C      1  0.4396130000000  0.5934300000000  0.4992760000000 1.0
C      1  0.5280760000000  0.5560260000000  0.5873420000000 1.0
C      1  0.5053530000000  0.6005940000000  0.5152950000000 1.0
C      1  0.4271260000000  0.5803340000000  0.5215460000000 1.0
C      1  0.5185940000000  0.4545700000000  0.6103280000000 1.0
C      1  0.4474160000000  0.4455710000000  0.4386160000000 1.0
C      1  0.4515450000000  0.5074000000000  0.5365180000000 1.0
C      1  0.5455020000000  0.4457320000000  0.6069800000000 1.0
C      1  0.4927480000000  0.4074370000000  0.5564170000000 1.0
C      1  0.5163600000000  0.5365410000000  0.5535360000000 1.0
C      1  0.5288780000000  0.4725150000000  0.5614590000000 1.0
C      1  0.5145040000000  0.4850850000000  0.6093710000000 1.0
C      1  0.4760040000000  0.5191590000000  0.6044650000000 1.0
C      1  0.5535710000000  0.4607050000000  0.5227620000000 1.0
C      1  0.5461330000000  0.4400120000000  0.4126840000000 1.0
C      1  0.5073550000000  0.5031970000000  0.5226520000000 1.0
C      1  0.4237020000000  0.5423010000000  0.4087970000000 1.0
C      1  0.4191480000000  0.5624890000000  0.4302730000000 1.0
C      1  0.5105780000000  0.5768440000000  0.4988130000000 1.0
C      1  0.4154840000000  0.4985370000000  0.4381540000000 1.0
C      1  0.3749880000000  0.5091970000000  0.5309150000000 1.0
C      1  0.4414290000000  0.5335950000000  0.4744020000000 1.0
C      1  0.5971500000000  0.5714020000000  0.4639900000000 1.0
C      1  0.5734240000000  0.4223270000000  0.4785730000000 1.0
C      1  0.6091280000000  0.4878180000000  0.4834580000000 1.0
C      1  0.5680220000000  0.4636700000000  0.5994380000000 1.0
C      1  0.5072710000000  0.5839510000000  0.4206660000000 1.0
C      1  0.4821770000000  0.5527420000000  0.4343000000000 1.0
C      1  0.3887790000000  0.5630510000000  0.4720070000000 1.0
C      1  0.5120980000000  0.4760650000000  0.4218530000000 1.0
C      1  0.5937340000000  0.5434970000000  0.4562480000000 1.0
C      1  0.4658150000000  0.4783670000000  0.3920220000000 1.0
C      1  0.4853800000000  0.5683790000000  0.5505050000000 1.0
C      1  0.5578770000000  0.5937770000000  0.4517320000000 1.0
C      1  0.5101560000000  0.4097080000000  0.4366350000000 1.0
C      1  0.5603440000000  0.6068400000000  0.4777740000000 1.0
C      1  0.4522100000000  0.6138000000000  0.4607080000000 1.0
C      1  0.5587220000000  0.4171320000000  0.4527500000000 1.0
C      1  0.5329050000000  0.4023360000000  0.4526220000000 1.0
C      1  0.4953520000000  0.5208420000000  0.5421350000000 1.0
C      1  0.5508350000000  0.5144120000000  0.3991730000000 1.0
C      1  0.5367350000000  0.4785210000000  0.4639910000000 1.0
C      1  0.4673980000000  0.4030780000000  0.4720910000000 1.0
C      1  0.4570320000000  0.4317970000000  0.5738400000000 1.0
C      1  0.5405400000000  0.5055120000000  0.6050280000000 1.0
C      1  0.5513880000000  0.5745110000000  0.4302590000000 1.0
C      1  0.5435910000000  0.6101980000000  0.5012590000000 1.0
C      1  0.4124340000000  0.5378050000000  0.5460000000000 1.0
C      1  0.4419620000000  0.4886340000000  0.6021940000000 1.0
C      1  0.5108040000000  0.4340520000000  0.4752010000000 1.0
C      1  0.4380720000000  0.5791250000000  0.4450510000000 1.0
C      1  0.4339460000000  0.4904080000000  0.4151270000000 1.0
C      1  0.5709130000000  0.5012290000000  0.5655140000000 1.0
C      1  0.5282890000000  0.4550600000000  0.5092960000000 1.0
C      1  0.5107780000000  0.4849900000000  0.5805010000000 1.0
C      1  0.5091310000000  0.4179070000000  0.5770320000000 1.0
C      1  0.5388260000000  0.5578700000000  0.5076090000000 1.0
C      1  0.6004790000000  0.4502200000000  0.4706030000000 1.0
C      1  0.5362770000000  0.4132580000000  0.5692870000000 1.0
C      1  0.4860050000000  0.5044230000000  0.4687490000000 1.0
C      1  0.4550120000000  0.5123800000000  0.5856810000000 1.0
C      1  0.4892840000000  0.4635190000000  0.3884190000000 1.0
C      1  0.5360520000000  0.3992660000000  0.5437680000000 1.0
C      1  0.4911740000000  0.5550640000000  0.4619840000000 1.0
C      1  0.4652820000000  0.6065020000000  0.5037430000000 1.0
C      1  0.6221450000000  0.5310900000000  0.5466070000000 1.0
C      1  0.4883400000000  0.4498890000000  0.4835080000000 1.0
C      1  0.6035630000000  0.4641350000000  0.5523320000000 1.0
C      1  0.4094070000000  0.4608700000000  0.5241540000000 1.0
C      1  0.4208210000000  0.4438540000000  0.4510490000000 1.0
C      1  0.4225170000000  0.4861230000000  0.5844810000000 1.0
C      1  0.3994860000000  0.5204580000000  0.4835920000000 1.0
C      1  0.4793890000000  0.6035370000000  0.5295020000000 1.0
C      1  0.4401320000000  0.5780210000000  0.5474260000000 1.0
C      1  0.5192530000000  0.4062490000000  0.4757020000000 1.0
C      1  0.4637030000000  0.4446210000000  0.4983510000000 1.0
C      1  0.5568100000000  0.4452570000000  0.4514530000000 1.0
C      1  0.5803090000000  0.5840710000000  0.4861100000000 1.0
C      1  0.5678830000000  0.5692990000000  0.5075200000000 1.0
C      1  0.5698560000000  0.5570670000000  0.5583650000000 1.0
C      1  0.5563980000000  0.4872000000000  0.5095740000000 1.0
C      1  0.4335380000000  0.4452000000000  0.5635430000000 1.0
C      1  0.4589170000000  0.5110200000000  0.4751350000000 1.0
C      1  0.5364370000000  0.5010290000000  0.5256430000000 1.0
C      1  0.4821330000000  0.4728790000000  0.4615280000000 1.0
C      1  0.5573070000000  0.4897450000000  0.4810510000000 1.0
C      1  0.4721830000000  0.5038670000000  0.5587150000000 1.0
C      1  0.4186830000000  0.5070630000000  0.5435550000000 1.0
C      1  0.5382520000000  0.4746100000000  0.4342860000000 1.0
C      1  0.4150450000000  0.5257090000000  0.4589950000000 1.0
C      1  0.4056730000000  0.4381150000000  0.5026270000000 1.0
C      1  0.5044650000000  0.5364200000000  0.4833860000000 1.0
C      1  0.5347140000000  0.5309260000000  0.5964570000000 1.0
C      1  0.4147970000000  0.5535650000000  0.5160760000000 1.0
C      1  0.4416380000000  0.4914340000000  0.4939910000000 1.0
C      1  0.5058990000000  0.4870960000000  0.3951540000000 1.0
C      1  0.4957620000000  0.6050220000000  0.4615780000000 1.0
C      1  0.5724200000000  0.4519010000000  0.4757470000000 1.0
C      1  0.4165470000000  0.5134700000000  0.4124270000000 1.0
C      1  0.4456380000000  0.4640360000000  0.4856430000000 1.0
C      1  0.4064370000000  0.4873700000000  0.5639930000000 1.0
C      1  0.3811090000000  0.5317280000000  0.5470450000000 1.0
C      1  0.5018990000000  0.3881740000000  0.5122000000000 1.0
C      1  0.4704580000000  0.4297270000000  0.4278950000000 1.0
C      1  0.3960690000000  0.4606800000000  0.5516620000000 1.0
C      1  0.4542510000000  0.4654790000000  0.4584580000000 1.0
C      1  0.5470550000000  0.5725550000000  0.5688140000000 1.0
C      1  0.5582640000000  0.5199240000000  0.4794550000000 1.0
C      1  0.4745360000000  0.6162720000000  0.4777330000000 1.0
C      1  0.5016850000000  0.5141780000000  0.4459780000000 1.0
C      1  0.5628240000000  0.5514610000000  0.4150850000000 1.0
C      1  0.4665270000000  0.4727530000000  0.6067250000000 1.0
C      1  0.4757990000000  0.3942310000000  0.5002490000000 1.0
C      1  0.3926530000000  0.5472190000000  0.4945050000000 1.0
C      1  0.5814350000000  0.4990180000000  0.4233270000000 1.0
C      1  0.5086580000000  0.3932020000000  0.5391310000000 1.0
C      1  0.5799860000000  0.5319850000000  0.5701840000000 1.0
C      1  0.4097060000000  0.4136400000000  0.5145740000000 1.0
C      1  0.4576510000000  0.5996710000000  0.4364490000000 1.0
C      1  0.4397360000000  0.4076120000000  0.4798830000000 1.0
C      1  0.4816940000000  0.4110720000000  0.4468090000000 1.0
C      1  0.5324930000000  0.5364370000000  0.4915730000000 1.0
C      1  0.4032020000000  0.4694080000000  0.4483780000000 1.0
C      1  0.4626980000000  0.5342520000000  0.4237230000000 1.0
C      1  0.5081020000000  0.5787600000000  0.4683560000000 1.0
C      1  0.5871000000000  0.5291920000000  0.4803290000000 1.0
C      1  0.4337880000000  0.5944160000000  0.4702510000000 1.0
C      1  0.4574220000000  0.3977400000000  0.5226190000000 1.0
C      1  0.5991770000000  0.4898660000000  0.5529530000000 1.0
C      1  0.3997340000000  0.5514640000000  0.4491770000000 1.0
C      1  0.4871280000000  0.6006080000000  0.4345730000000 1.0
C      1  0.4668910000000  0.5876700000000  0.5492880000000 1.0
C      1  0.4998540000000  0.4374310000000  0.5970320000000 1.0
C      1  0.5303600000000  0.5123130000000  0.4446440000000 1.0
C      1  0.5694860000000  0.4148620000000  0.5066870000000 1.0
C      1  0.4588180000000  0.4390640000000  0.5265320000000 1.0
C      1  0.5829310000000  0.5663650000000  0.5323720000000 1.0
C      1  0.5181790000000  0.4288460000000  0.4149990000000 1.0
C      1  0.6217210000000  0.4991980000000  0.5063080000000 1.0
C      1  0.5548580000000  0.4265770000000  0.5866280000000 1.0
C      1  0.4573380000000  0.5321940000000  0.5225760000000 1.0
C      1  0.4131410000000  0.5001630000000  0.4977430000000 1.0
C      1  0.5005280000000  0.5177240000000  0.3987130000000 1.0
C      1  0.4201530000000  0.4298410000000  0.4767090000000 1.0
C      1  0.5888970000000  0.4739160000000  0.4338390000000 1.0
C      1  0.4861780000000  0.4718020000000  0.4338180000000 1.0
C      1  0.5522550000000  0.5254490000000  0.4518790000000 1.0
C      1  0.6054730000000  0.5505040000000  0.5358680000000 1.0
C      1  0.5723810000000  0.4382680000000  0.5217560000000 1.0
C      1  0.4021860000000  0.4939570000000  0.5219690000000 1.0
C      1  0.4931430000000  0.5549500000000  0.5030610000000 1.0
C      1  0.6173370000000  0.5039680000000  0.5348150000000 1.0
C      1  0.4990520000000  0.5559720000000  0.5740800000000 1.0
C      1  0.5695040000000  0.4481340000000  0.4273780000000 1.0
C      1  0.4712360000000  0.5219880000000  0.3980280000000 1.0
C      1  0.4881680000000  0.4838170000000  0.5145940000000 1.0
C      1  0.4769220000000  0.5457130000000  0.5926120000000 1.0
C      1  0.5755100000000  0.5309220000000  0.4335050000000 1.0
C      1  0.4067670000000  0.4408460000000  0.5684630000000 1.0
C      1  0.5283720000000  0.5470230000000  0.5316720000000 1.0
C      1  0.5134630000000  0.5432310000000  0.3920480000000 1.0
C      1  0.5290500000000  0.4556640000000  0.4806690000000 1.0
C      1  0.4324400000000  0.3976370000000  0.5078160000000 1.0
C      1  0.5631840000000  0.4917800000000  0.5934600000000 1.0
C      1  0.5441830000000  0.5411370000000  0.3944080000000 1.0
C      1  0.4323450000000  0.5540890000000  0.5622270000000 1.0
C      1  0.5392380000000  0.5909280000000  0.5495360000000 1.0
C      1  0.3799680000000  0.4694640000000  0.4583010000000 1.0
C      1  0.4814400000000  0.5464840000000  0.5285610000000 1.0
C      1  0.5049970000000  0.4618340000000  0.5476200000000 1.0
C      1  0.4912420000000  0.4403390000000  0.4089080000000 1.0
C      1  0.5562840000000  0.4899030000000  0.4121840000000 1.0
C      1  0.4397680000000  0.5417720000000  0.5020000000000 1.0
C      1  0.5968600000000  0.4407050000000  0.5609840000000 1.0
C      1  0.4390820000000  0.4588450000000  0.5338830000000 1.0
C      1  0.4722030000000  0.4461990000000  0.5940300000000 1.0
C      1  0.4507040000000  0.5423900000000  0.3975680000000 1.0
C      1  0.4876680000000  0.4788090000000  0.5641290000000 1.0
C      1  0.4582110000000  0.4843920000000  0.5187640000000 1.0
C      1  0.5891560000000  0.4301390000000  0.5390610000000 1.0
C      1  0.6103650000000  0.5152220000000  0.4861160000000 1.0
C      1  0.5023760000000  0.4596790000000  0.5199180000000 1.0
C      1  0.4956310000000  0.5613960000000  0.4066810000000 1.0
C      1  0.4633590000000  0.4845010000000  0.4180550000000 1.0
C      1  0.6090080000000  0.5344000000000  0.5750110000000 1.0
C      1  0.5478470000000  0.4906910000000  0.5494400000000 1.0
C      1  0.5186290000000  0.5329410000000  0.4311980000000 1.0
C      1  0.5312070000000  0.6085920000000  0.5281610000000 1.0
C      1  0.4496380000000  0.5427960000000  0.5826750000000 1.0
C      1  0.5243060000000  0.5652360000000  0.4369180000000 1.0
C      1  0.4663680000000  0.4169200000000  0.5485000000000 1.0
C      1  0.5781280000000  0.4420160000000  0.5822180000000 1.0
C      1  0.5470590000000  0.3995530000000  0.5169960000000 1.0
C      1  0.6088790000000  0.4730050000000  0.4565430000000 1.0
END
