TITL C-884129-4740-371 24.6916267579517 125000 -10112.4885483588 0 0 69 (C1) n - 1
REM
REM in /home/nfs/bkarasulu/CARBON/AIRSS/Generating-Clusters/ReaxFF-fromJPCA2015/Units_Real/with-SteepDescent/Only-C1/SD-CG/Try1-3A/FIRE-CG
REM
REM
REM
REM
REM
REM ./C.cell (11c1c37f851c82e70ff6c80c92926a4b)
REM
REM compiler GCC version 9.2.1 20190827 (Red Hat 9.2.1-1)
REM options -cpp -mtune=generic -march=x86-64 -g -O0 -fpre-include=/usr/include/finclude/math-vector-fortran.h
REM seed -1784525545 -809100441 -1254950180 646932874 1755398983 806759505 1300816510 1128325264 814322599 114960755 -433979067 887192194 967396559 -919162211 257946560 -753384684 1201001885 -1137827437 2006894427 -1285541208 1296114038 1412295400 -147932863 -1301907952 -725586368 -2081986083 -1567733395 -1161507856 1596035524 15661087 -33468777 -834794773 -1231371981
REM
CELL 1.54180   50.00000   50.00000   50.00000   90.00000   90.00000   90.00000
LATT -1
SFAC C  
C      1  0.4308260000000  0.4685500000000  0.5064780000000 1.0
C      1  0.5339710000000  0.4290850000000  0.4871090000000 1.0
C      1  0.4435740000000  0.4407660000000  0.4800870000000 1.0
C      1  0.5434740000000  0.5511750000000  0.5035860000000 1.0
C      1  0.5052530000000  0.5816780000000  0.4904820000000 1.0
C      1  0.4994930000000  0.4732950000000  0.5686630000000 1.0
C      1  0.4935420000000  0.4675840000000  0.4358050000000 1.0
C      1  0.5526400000000  0.5219910000000  0.4595510000000 1.0
C      1  0.5181860000000  0.5369980000000  0.5134150000000 1.0
C      1  0.5215540000000  0.4690810000000  0.5510500000000 1.0
C      1  0.5412950000000  0.5179360000000  0.5622840000000 1.0
C      1  0.4311060000000  0.5088580000000  0.5076400000000 1.0
C      1  0.4656650000000  0.4358320000000  0.4619110000000 1.0
C      1  0.5342780000000  0.4491100000000  0.5339610000000 1.0
C      1  0.5330700000000  0.4956780000000  0.5403070000000 1.0
C      1  0.4867280000000  0.5295860000000  0.4975260000000 1.0
C      1  0.5077120000000  0.4571480000000  0.4595980000000 1.0
C      1  0.5331800000000  0.4813210000000  0.4345300000000 1.0
C      1  0.4460570000000  0.5494880000000  0.4745260000000 1.0
C      1  0.5614740000000  0.4596910000000  0.5285060000000 1.0
C      1  0.5067780000000  0.5222980000000  0.4342010000000 1.0
C      1  0.4867590000000  0.4242020000000  0.4788510000000 1.0
C      1  0.4372640000000  0.5222050000000  0.4801620000000 1.0
C      1  0.5697110000000  0.5375430000000  0.5069800000000 1.0
C      1  0.4706020000000  0.5554710000000  0.5131680000000 1.0
C      1  0.4672180000000  0.4520860000000  0.5474520000000 1.0
C      1  0.5044490000000  0.4747210000000  0.4827210000000 1.0
C      1  0.4957360000000  0.5721670000000  0.4641860000000 1.0
C      1  0.5613950000000  0.5246990000000  0.5448950000000 1.0
C      1  0.4395520000000  0.4860800000000  0.5237790000000 1.0
C      1  0.4796080000000  0.5138000000000  0.4729170000000 1.0
C      1  0.4835680000000  0.4978500000000  0.5401890000000 1.0
C      1  0.4842030000000  0.5382710000000  0.4403590000000 1.0
C      1  0.5083800000000  0.4923050000000  0.4270100000000 1.0
C      1  0.4427040000000  0.4410950000000  0.5090820000000 1.0
C      1  0.5232930000000  0.5625910000000  0.4579570000000 1.0
C      1  0.5009420000000  0.5503200000000  0.5594950000000 1.0
C      1  0.5198620000000  0.4341920000000  0.5133340000000 1.0
C      1  0.5262280000000  0.4919840000000  0.4907890000000 1.0
C      1  0.5786170000000  0.4846550000000  0.5262010000000 1.0
C      1  0.4819750000000  0.4505930000000  0.5747190000000 1.0
C      1  0.4612710000000  0.4795600000000  0.5401780000000 1.0
C      1  0.5326450000000  0.5711690000000  0.4851390000000 1.0
C      1  0.5785480000000  0.5144430000000  0.5271440000000 1.0
C      1  0.4583640000000  0.5636590000000  0.4943360000000 1.0
C      1  0.4671350000000  0.4345880000000  0.5236850000000 1.0
C      1  0.4482510000000  0.4806370000000  0.4536250000000 1.0
C      1  0.4461520000000  0.4712150000000  0.4816010000000 1.0
C      1  0.4751920000000  0.5357300000000  0.5612850000000 1.0
C      1  0.4914630000000  0.4290200000000  0.5077260000000 1.0
C      1  0.4818050000000  0.5056860000000  0.5130230000000 1.0
C      1  0.4663970000000  0.4598830000000  0.4440940000000 1.0
C      1  0.5126210000000  0.4285800000000  0.4661910000000 1.0
C      1  0.4702570000000  0.5577570000000  0.4556790000000 1.0
C      1  0.4333690000000  0.5288700000000  0.5302370000000 1.0
C      1  0.5734010000000  0.5346180000000  0.4773710000000 1.0
C      1  0.5151800000000  0.5272960000000  0.5710420000000 1.0
C      1  0.5087410000000  0.5583260000000  0.5329150000000 1.0
C      1  0.5230880000000  0.5078100000000  0.5153320000000 1.0
C      1  0.5526210000000  0.4712290000000  0.4531800000000 1.0
C      1  0.4531340000000  0.5089730000000  0.4597490000000 1.0
C      1  0.4568380000000  0.5431830000000  0.5397730000000 1.0
C      1  0.4779650000000  0.4877290000000  0.4889580000000 1.0
C      1  0.4907590000000  0.5103750000000  0.5660930000000 1.0
C      1  0.5504700000000  0.4464960000000  0.4704300000000 1.0
C      1  0.5532550000000  0.4837160000000  0.5214240000000 1.0
C      1  0.4914820000000  0.5746820000000  0.5159040000000 1.0
C      1  0.5482840000000  0.4948380000000  0.4710040000000 1.0
C      1  0.5293870000000  0.5359570000000  0.4474190000000 1.0
END
