TITL C-884133-6611-260 21.2264329522679 125000 -26793.6565641371 0 0 180 (C1) n - 1
REM
REM in /home/nfs/bkarasulu/CARBON/AIRSS/Generating-Clusters/ReaxFF-fromJPCA2015/Units_Real/with-SteepDescent/Only-C1/SD-CG/Try1-3A/FIRE-CG
REM
REM
REM
REM
REM
REM ./C.cell (11c1c37f851c82e70ff6c80c92926a4b)
REM
REM compiler GCC version 9.2.1 20190827 (Red Hat 9.2.1-1)
REM options -cpp -mtune=generic -march=x86-64 -g -O0 -fpre-include=/usr/include/finclude/math-vector-fortran.h
REM seed 1351943579 1114277122 840058900 -1376641723 -379453659 1992235982 573383490 -1878598173 -2104333679 -1335637831 -1132170277 1465917353 947976416 -136183432 -1038165635 -1712775742 157127517 317404139 -862420031 397612192 -25988711 534417522 2114964075 -1263830748 1982485710 -579757991 -336274218 1161455886 -709247042 -1973575768 507988069 1183955072 1459751718
REM
CELL 1.54180   50.00000   50.00000   50.00000   90.00000   90.00000   90.00000
LATT -1
SFAC C  
C      1  0.5017500000000  0.4739420000000  0.5700190000000 1.0
C      1  0.5222620000000  0.4266860000000  0.4726040000000 1.0
C      1  0.4915390000000  0.5094430000000  0.6073640000000 1.0
C      1  0.4064630000000  0.4474010000000  0.5677960000000 1.0
C      1  0.5518810000000  0.4041790000000  0.4971280000000 1.0
C      1  0.5669360000000  0.4814420000000  0.4006130000000 1.0
C      1  0.5849000000000  0.5228060000000  0.4224180000000 1.0
C      1  0.5489230000000  0.5235330000000  0.5701860000000 1.0
C      1  0.4881650000000  0.3999240000000  0.4582590000000 1.0
C      1  0.5247580000000  0.4846010000000  0.5537360000000 1.0
C      1  0.4404100000000  0.5682280000000  0.4702620000000 1.0
C      1  0.5774600000000  0.5220060000000  0.5778900000000 1.0
C      1  0.5568800000000  0.3972070000000  0.5599360000000 1.0
C      1  0.5300180000000  0.5238780000000  0.6169440000000 1.0
C      1  0.4577330000000  0.3827250000000  0.4947780000000 1.0
C      1  0.5716060000000  0.5904970000000  0.5415730000000 1.0
C      1  0.5033510000000  0.5810790000000  0.4221250000000 1.0
C      1  0.5182680000000  0.4975690000000  0.6121580000000 1.0
C      1  0.5052970000000  0.4117320000000  0.4367040000000 1.0
C      1  0.5591160000000  0.4751090000000  0.5848800000000 1.0
C      1  0.4901830000000  0.4444430000000  0.4892190000000 1.0
C      1  0.4927900000000  0.3973290000000  0.5366500000000 1.0
C      1  0.4419820000000  0.5349550000000  0.5848290000000 1.0
C      1  0.5170390000000  0.5965240000000  0.4896780000000 1.0
C      1  0.5360720000000  0.5203710000000  0.3977050000000 1.0
C      1  0.4156610000000  0.5561840000000  0.4621470000000 1.0
C      1  0.5460100000000  0.4592810000000  0.4882110000000 1.0
C      1  0.5018450000000  0.6005270000000  0.4418130000000 1.0
C      1  0.5680070000000  0.5343180000000  0.4627070000000 1.0
C      1  0.5269280000000  0.4822240000000  0.5231010000000 1.0
C      1  0.5736810000000  0.4241760000000  0.4952460000000 1.0
C      1  0.5675830000000  0.4506650000000  0.4021140000000 1.0
C      1  0.4932330000000  0.5114500000000  0.4188500000000 1.0
C      1  0.4654300000000  0.5236930000000  0.5314510000000 1.0
C      1  0.4231050000000  0.4789350000000  0.4089670000000 1.0
C      1  0.5404690000000  0.4913130000000  0.3949000000000 1.0
C      1  0.4936390000000  0.5288110000000  0.4452740000000 1.0
C      1  0.5652610000000  0.5143770000000  0.5314170000000 1.0
C      1  0.5845740000000  0.4939510000000  0.4211790000000 1.0
C      1  0.4543880000000  0.5120120000000  0.4756170000000 1.0
C      1  0.4525410000000  0.5368310000000  0.4114040000000 1.0
C      1  0.4985020000000  0.4878770000000  0.5201360000000 1.0
C      1  0.5450320000000  0.5311390000000  0.4383710000000 1.0
C      1  0.5022770000000  0.3891370000000  0.5095570000000 1.0
C      1  0.4481790000000  0.5123870000000  0.5844230000000 1.0
C      1  0.4363060000000  0.3782550000000  0.4746180000000 1.0
C      1  0.5159430000000  0.5831000000000  0.5458330000000 1.0
C      1  0.4665710000000  0.5535270000000  0.5894700000000 1.0
C      1  0.4676690000000  0.5594910000000  0.4228860000000 1.0
C      1  0.5307750000000  0.5962830000000  0.4496520000000 1.0
C      1  0.4681890000000  0.4917590000000  0.4888290000000 1.0
C      1  0.5548950000000  0.5693780000000  0.5025600000000 1.0
C      1  0.5364260000000  0.4212090000000  0.4314470000000 1.0
C      1  0.5119490000000  0.5340940000000  0.5314980000000 1.0
C      1  0.4743250000000  0.6073140000000  0.4864130000000 1.0
C      1  0.4022320000000  0.4777280000000  0.5734210000000 1.0
C      1  0.5146380000000  0.4324020000000  0.4992910000000 1.0
C      1  0.5102410000000  0.4681920000000  0.4525270000000 1.0
C      1  0.4780590000000  0.5678410000000  0.5168600000000 1.0
C      1  0.4334220000000  0.5347160000000  0.4505400000000 1.0
C      1  0.5239870000000  0.5679030000000  0.4567720000000 1.0
C      1  0.4556740000000  0.4705850000000  0.5051470000000 1.0
C      1  0.4193330000000  0.5219250000000  0.5388550000000 1.0
C      1  0.6174270000000  0.5229410000000  0.5214640000000 1.0
C      1  0.4464270000000  0.3959120000000  0.5211190000000 1.0
C      1  0.4368970000000  0.4033030000000  0.4574800000000 1.0
C      1  0.4894840000000  0.5478680000000  0.4819800000000 1.0
C      1  0.4311160000000  0.5199170000000  0.4896310000000 1.0
C      1  0.5834830000000  0.4839520000000  0.4488620000000 1.0
C      1  0.4675440000000  0.4974460000000  0.5950200000000 1.0
C      1  0.4468660000000  0.4273920000000  0.4694670000000 1.0
C      1  0.4463300000000  0.5861800000000  0.5566280000000 1.0
C      1  0.5937330000000  0.4687660000000  0.5255760000000 1.0
C      1  0.3937690000000  0.5067990000000  0.4539870000000 1.0
C      1  0.5892320000000  0.5302450000000  0.5218840000000 1.0
C      1  0.4933630000000  0.5009490000000  0.4950520000000 1.0
C      1  0.5850480000000  0.4586510000000  0.4632770000000 1.0
C      1  0.5772930000000  0.4308750000000  0.4667740000000 1.0
C      1  0.4612770000000  0.4428450000000  0.5529960000000 1.0
C      1  0.5413360000000  0.4041310000000  0.4694270000000 1.0
C      1  0.4901830000000  0.5364210000000  0.5959020000000 1.0
C      1  0.4832750000000  0.4421520000000  0.5368640000000 1.0
C      1  0.6200200000000  0.5099380000000  0.4949300000000 1.0
C      1  0.5025240000000  0.6274890000000  0.5264820000000 1.0
C      1  0.5351560000000  0.5515390000000  0.6055270000000 1.0
C      1  0.5412050000000  0.4425700000000  0.4119580000000 1.0
C      1  0.5106620000000  0.5354690000000  0.5751940000000 1.0
C      1  0.6125500000000  0.5222940000000  0.4692170000000 1.0
C      1  0.5413650000000  0.6049480000000  0.4756480000000 1.0
C      1  0.5161270000000  0.4543400000000  0.5864030000000 1.0
C      1  0.4292540000000  0.4284730000000  0.5729020000000 1.0
C      1  0.4234400000000  0.5383740000000  0.5637730000000 1.0
C      1  0.6062410000000  0.5447910000000  0.5397820000000 1.0
C      1  0.4943820000000  0.4536830000000  0.4039710000000 1.0
C      1  0.4988410000000  0.6188350000000  0.4975680000000 1.0
C      1  0.4965290000000  0.4317510000000  0.4202650000000 1.0
C      1  0.4964860000000  0.6058140000000  0.5456830000000 1.0
C      1  0.4100750000000  0.4524260000000  0.4908090000000 1.0
C      1  0.5781310000000  0.4865480000000  0.5466590000000 1.0
C      1  0.5687170000000  0.4922670000000  0.4924560000000 1.0
C      1  0.6108260000000  0.4836710000000  0.5080610000000 1.0
C      1  0.4452040000000  0.4806300000000  0.5313990000000 1.0
C      1  0.5341020000000  0.4539490000000  0.5145760000000 1.0
C      1  0.4639320000000  0.5744910000000  0.5720720000000 1.0
C      1  0.5545260000000  0.5457060000000  0.4879600000000 1.0
C      1  0.5491270000000  0.5603830000000  0.5549130000000 1.0
C      1  0.5259850000000  0.4053120000000  0.5110790000000 1.0
C      1  0.5440660000000  0.5328890000000  0.5429410000000 1.0
C      1  0.4645410000000  0.3974470000000  0.5442550000000 1.0
C      1  0.4278900000000  0.4162760000000  0.5189850000000 1.0
C      1  0.5240780000000  0.5089210000000  0.5715930000000 1.0
C      1  0.5651250000000  0.5937710000000  0.4899730000000 1.0
C      1  0.4691600000000  0.4639510000000  0.4150090000000 1.0
C      1  0.4548690000000  0.4168760000000  0.5650420000000 1.0
C      1  0.5276540000000  0.5597030000000  0.5783670000000 1.0
C      1  0.4861490000000  0.4574220000000  0.4628780000000 1.0
C      1  0.5047340000000  0.5279160000000  0.4979470000000 1.0
C      1  0.4849500000000  0.3881890000000  0.4854440000000 1.0
C      1  0.5315700000000  0.4526150000000  0.4642420000000 1.0
C      1  0.5062070000000  0.5713710000000  0.4780360000000 1.0
C      1  0.5744500000000  0.5040960000000  0.4676190000000 1.0
C      1  0.5093080000000  0.5312910000000  0.4033590000000 1.0
C      1  0.4918320000000  0.5132090000000  0.5355030000000 1.0
C      1  0.5201970000000  0.4299310000000  0.5703290000000 1.0
C      1  0.3961010000000  0.5478120000000  0.4829440000000 1.0
C      1  0.5028850000000  0.4234460000000  0.5478170000000 1.0
C      1  0.3983360000000  0.4527190000000  0.5398740000000 1.0
C      1  0.4001920000000  0.5443600000000  0.5117760000000 1.0
C      1  0.4708130000000  0.5347220000000  0.4625140000000 1.0
C      1  0.4425250000000  0.5086070000000  0.5339990000000 1.0
C      1  0.5352670000000  0.4993750000000  0.4421120000000 1.0
C      1  0.5555800000000  0.4437090000000  0.5361800000000 1.0
C      1  0.4808990000000  0.4574050000000  0.5126660000000 1.0
C      1  0.4519260000000  0.4854800000000  0.4029040000000 1.0
C      1  0.5130400000000  0.4841770000000  0.4278850000000 1.0
C      1  0.5809500000000  0.4931780000000  0.5765040000000 1.0
C      1  0.3956890000000  0.4760030000000  0.4831340000000 1.0
C      1  0.4147170000000  0.4691100000000  0.4355440000000 1.0
C      1  0.5589760000000  0.4152330000000  0.4491220000000 1.0
C      1  0.4379950000000  0.4730330000000  0.4534130000000 1.0
C      1  0.4413920000000  0.5470060000000  0.4931850000000 1.0
C      1  0.5484310000000  0.5017700000000  0.5107700000000 1.0
C      1  0.4270600000000  0.5298020000000  0.4238140000000 1.0
C      1  0.4091270000000  0.4370470000000  0.5165340000000 1.0
C      1  0.5182670000000  0.5435580000000  0.4430760000000 1.0
C      1  0.5472900000000  0.4210140000000  0.5588850000000 1.0
C      1  0.5591800000000  0.5322680000000  0.4124560000000 1.0
C      1  0.5224740000000  0.4680360000000  0.4044610000000 1.0
C      1  0.5800570000000  0.4421870000000  0.5187840000000 1.0
C      1  0.4667830000000  0.6004380000000  0.5404830000000 1.0
C      1  0.4220000000000  0.5663430000000  0.5529160000000 1.0
C      1  0.3871700000000  0.5206950000000  0.4793260000000 1.0
C      1  0.4098380000000  0.5606400000000  0.5295950000000 1.0
C      1  0.3951360000000  0.4820320000000  0.5441550000000 1.0
C      1  0.4652640000000  0.5111100000000  0.4064750000000 1.0
C      1  0.4645570000000  0.4139140000000  0.4498370000000 1.0
C      1  0.5783120000000  0.5691230000000  0.5610180000000 1.0
C      1  0.5802220000000  0.6015740000000  0.5151930000000 1.0
C      1  0.4770360000000  0.5960970000000  0.4589230000000 1.0
C      1  0.3983200000000  0.5063440000000  0.5278460000000 1.0
C      1  0.5303070000000  0.5038120000000  0.4682200000000 1.0
C      1  0.5955460000000  0.5342470000000  0.4489160000000 1.0
C      1  0.5349170000000  0.5231840000000  0.4933280000000 1.0
C      1  0.4643090000000  0.4644150000000  0.4441530000000 1.0
C      1  0.5729660000000  0.4655530000000  0.4883150000000 1.0
C      1  0.3924730000000  0.4779090000000  0.4544160000000 1.0
C      1  0.4606040000000  0.5463860000000  0.5139330000000 1.0
C      1  0.4530670000000  0.4687460000000  0.5558660000000 1.0
C      1  0.5339050000000  0.4742390000000  0.5997070000000 1.0
C      1  0.4947460000000  0.5576020000000  0.4096740000000 1.0
C      1  0.5546700000000  0.4686490000000  0.5555970000000 1.0
C      1  0.4605090000000  0.5748250000000  0.4489830000000 1.0
C      1  0.5441380000000  0.5801870000000  0.5331900000000 1.0
C      1  0.4219940000000  0.5092720000000  0.4440660000000 1.0
C      1  0.4725820000000  0.4815240000000  0.5730920000000 1.0
C      1  0.5930620000000  0.5448630000000  0.5662050000000 1.0
C      1  0.4036550000000  0.5034330000000  0.4983040000000 1.0
C      1  0.4655550000000  0.5941340000000  0.5113650000000 1.0
C      1  0.5006930000000  0.5615880000000  0.5342760000000 1.0
C      1  0.4374580000000  0.4551590000000  0.4791200000000 1.0
END
