TITL C-883730-8503-54 -12.6574206904322 125000 -20632.8610620644 0 0 139 (C1) n - 1
REM
REM in /home/nfs/bkarasulu/CARBON/AIRSS/Generating-Clusters/ReaxFF-fromJPCA2015/Units_Real/with-SteepDescent/Only-C1/SD-CG/Try1-3A/FIRE-CG
REM
REM
REM
REM
REM
REM ./C.cell (11c1c37f851c82e70ff6c80c92926a4b)
REM
REM compiler GCC version 9.2.1 20190827 (Red Hat 9.2.1-1)
REM options -cpp -mtune=generic -march=x86-64 -g -O0 -fpre-include=/usr/include/finclude/math-vector-fortran.h
REM seed 1361740966 -986002446 -721442291 -2051183686 -1206761582 767084662 1720343129 1247811563 309896904 931261692 -1340972814 -1563962634 -1694527303 -1773492664 224951096 990887541 79173006 1813394824 683831225 -546668859 1419008398 -397176162 -187630322 -412808695 16170887 389192616 -1121600079 1194543178 -639479459 770486541 -156806457 -1354791325 -924560017
REM
CELL 1.54180   50.00000   50.00000   50.00000   90.00000   90.00000   90.00000
LATT -1
SFAC C  
C      1  0.5341370000000  0.4999800000000  0.4600720000000 1.0
C      1  0.5118550000000  0.4149650000000  0.4721250000000 1.0
C      1  0.5370010000000  0.4446170000000  0.4289390000000 1.0
C      1  0.5844210000000  0.4886690000000  0.5578130000000 1.0
C      1  0.5496240000000  0.5630890000000  0.5319410000000 1.0
C      1  0.4603050000000  0.5711650000000  0.5406250000000 1.0
C      1  0.5842570000000  0.4898990000000  0.4937400000000 1.0
C      1  0.5145190000000  0.6072580000000  0.4931150000000 1.0
C      1  0.4566670000000  0.4726500000000  0.5838550000000 1.0
C      1  0.5544470000000  0.4937620000000  0.4169480000000 1.0
C      1  0.4654670000000  0.5191390000000  0.5448430000000 1.0
C      1  0.5042660000000  0.5612260000000  0.5308580000000 1.0
C      1  0.4580610000000  0.4446220000000  0.4304060000000 1.0
C      1  0.5106820000000  0.5342580000000  0.4789920000000 1.0
C      1  0.5361810000000  0.4807870000000  0.5955130000000 1.0
C      1  0.5268680000000  0.5550370000000  0.5754620000000 1.0
C      1  0.5493630000000  0.5443500000000  0.4255030000000 1.0
C      1  0.5558570000000  0.5269350000000  0.5658910000000 1.0
C      1  0.5072620000000  0.5504420000000  0.4562800000000 1.0
C      1  0.4310790000000  0.4574440000000  0.5127810000000 1.0
C      1  0.4248130000000  0.5668230000000  0.4740750000000 1.0
C      1  0.4474370000000  0.5249480000000  0.5672080000000 1.0
C      1  0.4348980000000  0.5645060000000  0.5278010000000 1.0
C      1  0.4796210000000  0.4212040000000  0.4751190000000 1.0
C      1  0.5027350000000  0.4150660000000  0.5209410000000 1.0
C      1  0.5346860000000  0.5051180000000  0.4905020000000 1.0
C      1  0.4935710000000  0.4780700000000  0.4658560000000 1.0
C      1  0.4719630000000  0.4074540000000  0.5200640000000 1.0
C      1  0.5656600000000  0.5094970000000  0.4571130000000 1.0
C      1  0.5119930000000  0.4460320000000  0.4149730000000 1.0
C      1  0.5599420000000  0.5828970000000  0.5144530000000 1.0
C      1  0.5369120000000  0.4548360000000  0.4785070000000 1.0
C      1  0.5608470000000  0.4417470000000  0.5549820000000 1.0
C      1  0.5649150000000  0.5182590000000  0.4278920000000 1.0
C      1  0.4200520000000  0.5144250000000  0.5668180000000 1.0
C      1  0.4118290000000  0.4379010000000  0.5030980000000 1.0
C      1  0.5705390000000  0.4239800000000  0.4928920000000 1.0
C      1  0.4966640000000  0.4679200000000  0.5424640000000 1.0
C      1  0.4440520000000  0.5754710000000  0.4519510000000 1.0
C      1  0.5741520000000  0.4613600000000  0.4522110000000 1.0
C      1  0.5240680000000  0.5071130000000  0.6007700000000 1.0
C      1  0.5857250000000  0.5147280000000  0.5667560000000 1.0
C      1  0.4949680000000  0.6066620000000  0.5142290000000 1.0
C      1  0.5222120000000  0.4091640000000  0.4980670000000 1.0
C      1  0.4854120000000  0.5152020000000  0.4273390000000 1.0
C      1  0.4753840000000  0.4267660000000  0.4453350000000 1.0
C      1  0.4096170000000  0.4858480000000  0.4821230000000 1.0
C      1  0.4711330000000  0.5529780000000  0.4150420000000 1.0
C      1  0.5386400000000  0.5064470000000  0.5492030000000 1.0
C      1  0.5364140000000  0.4675380000000  0.5060430000000 1.0
C      1  0.4877050000000  0.5256440000000  0.4906760000000 1.0
C      1  0.5229870000000  0.4353350000000  0.5900090000000 1.0
C      1  0.4501440000000  0.5318050000000  0.4658860000000 1.0
C      1  0.4789230000000  0.5250750000000  0.6042840000000 1.0
C      1  0.4069180000000  0.5095650000000  0.4638490000000 1.0
C      1  0.4673510000000  0.4633040000000  0.5431610000000 1.0
C      1  0.5557550000000  0.5508170000000  0.4758710000000 1.0
C      1  0.4782630000000  0.4294610000000  0.5678810000000 1.0
C      1  0.5568270000000  0.4660620000000  0.4290450000000 1.0
C      1  0.5285870000000  0.5067720000000  0.4099980000000 1.0
C      1  0.5476460000000  0.5648600000000  0.4466540000000 1.0
C      1  0.4301780000000  0.5711520000000  0.5009860000000 1.0
C      1  0.4828670000000  0.5041410000000  0.4690100000000 1.0
C      1  0.5191060000000  0.4127400000000  0.5457980000000 1.0
C      1  0.4742600000000  0.5634630000000  0.5650510000000 1.0
C      1  0.4310490000000  0.5296000000000  0.4223780000000 1.0
C      1  0.5561240000000  0.5954230000000  0.4746980000000 1.0
C      1  0.5361890000000  0.5311260000000  0.5890570000000 1.0
C      1  0.4700180000000  0.5499050000000  0.5911030000000 1.0
C      1  0.5440450000000  0.6031440000000  0.4999820000000 1.0
C      1  0.4350670000000  0.4477280000000  0.4696830000000 1.0
C      1  0.5988270000000  0.5266800000000  0.5206990000000 1.0
C      1  0.4183540000000  0.5373580000000  0.5230010000000 1.0
C      1  0.3951880000000  0.4611030000000  0.4910310000000 1.0
C      1  0.4459070000000  0.5547590000000  0.4285570000000 1.0
C      1  0.5368100000000  0.4837420000000  0.5661450000000 1.0
C      1  0.4635550000000  0.4223500000000  0.5436150000000 1.0
C      1  0.5608110000000  0.4412750000000  0.4700810000000 1.0
C      1  0.4177510000000  0.5071860000000  0.4374400000000 1.0
C      1  0.4959820000000  0.5018540000000  0.6027490000000 1.0
C      1  0.5775290000000  0.5334970000000  0.4747290000000 1.0
C      1  0.5819500000000  0.4855210000000  0.4650080000000 1.0
C      1  0.5250800000000  0.5358630000000  0.4130940000000 1.0
C      1  0.5156790000000  0.4885070000000  0.5073860000000 1.0
C      1  0.5248830000000  0.4213140000000  0.4470280000000 1.0
C      1  0.4534320000000  0.5285080000000  0.5940770000000 1.0
C      1  0.4739160000000  0.4531490000000  0.5885890000000 1.0
C      1  0.5931300000000  0.5206620000000  0.4947370000000 1.0
C      1  0.5089720000000  0.4494910000000  0.5236990000000 1.0
C      1  0.5075650000000  0.5962920000000  0.4651550000000 1.0
C      1  0.4776560000000  0.4419240000000  0.4967060000000 1.0
C      1  0.5054410000000  0.4211130000000  0.5699540000000 1.0
C      1  0.4839650000000  0.5227930000000  0.5240170000000 1.0
C      1  0.4761750000000  0.4682830000000  0.4871920000000 1.0
C      1  0.5826310000000  0.4442810000000  0.5068550000000 1.0
C      1  0.4999560000000  0.5463300000000  0.4270700000000 1.0
C      1  0.5221970000000  0.4739930000000  0.4616430000000 1.0
C      1  0.5986780000000  0.5247270000000  0.5440150000000 1.0
C      1  0.4189830000000  0.4896920000000  0.5519050000000 1.0
C      1  0.5508860000000  0.5562880000000  0.5591700000000 1.0
C      1  0.4818710000000  0.5787230000000  0.5198320000000 1.0
C      1  0.4201450000000  0.5356830000000  0.4721870000000 1.0
C      1  0.4870850000000  0.4863790000000  0.5076800000000 1.0
C      1  0.4721790000000  0.5272650000000  0.4022540000000 1.0
C      1  0.5179870000000  0.4605180000000  0.6032110000000 1.0
C      1  0.4564830000000  0.4076620000000  0.4948310000000 1.0
C      1  0.4262520000000  0.4803430000000  0.4283120000000 1.0
C      1  0.5570580000000  0.4894740000000  0.5042320000000 1.0
C      1  0.4673620000000  0.5000350000000  0.5237540000000 1.0
C      1  0.4459000000000  0.5144310000000  0.4024890000000 1.0
C      1  0.5460110000000  0.4211690000000  0.5385710000000 1.0
C      1  0.4671770000000  0.5439380000000  0.4843240000000 1.0
C      1  0.4450220000000  0.4753990000000  0.5592560000000 1.0
C      1  0.4325280000000  0.4229570000000  0.4863930000000 1.0
C      1  0.5703070000000  0.5724490000000  0.4885410000000 1.0
C      1  0.4678610000000  0.5874660000000  0.4618050000000 1.0
C      1  0.4638810000000  0.5123140000000  0.4499010000000 1.0
C      1  0.5816120000000  0.4643750000000  0.5454880000000 1.0
C      1  0.5465620000000  0.4446990000000  0.5786940000000 1.0
C      1  0.4156920000000  0.5316720000000  0.4980540000000 1.0
C      1  0.5349520000000  0.5896600000000  0.4540440000000 1.0
C      1  0.5027950000000  0.5616830000000  0.5594620000000 1.0
C      1  0.5021430000000  0.5721190000000  0.4727410000000 1.0
C      1  0.4677830000000  0.4661530000000  0.4123630000000 1.0
C      1  0.5284950000000  0.5506580000000  0.5192770000000 1.0
C      1  0.4964640000000  0.4711770000000  0.4145990000000 1.0
C      1  0.4753120000000  0.5714280000000  0.4857650000000 1.0
C      1  0.4087560000000  0.5143510000000  0.5401410000000 1.0
C      1  0.4915520000000  0.4722490000000  0.6032390000000 1.0
C      1  0.4459260000000  0.4852120000000  0.4077750000000 1.0
C      1  0.5910700000000  0.4673910000000  0.5169750000000 1.0
C      1  0.5483650000000  0.4140540000000  0.5102480000000 1.0
C      1  0.4329050000000  0.4545610000000  0.4412830000000 1.0
C      1  0.5135040000000  0.4926940000000  0.5512350000000 1.0
C      1  0.4584700000000  0.4463150000000  0.5209700000000 1.0
C      1  0.5004880000000  0.4225380000000  0.4308460000000 1.0
C      1  0.5080190000000  0.4950450000000  0.4278360000000 1.0
C      1  0.4360980000000  0.4721010000000  0.4878210000000 1.0
C      1  0.5328590000000  0.5377490000000  0.4936380000000 1.0
END
