TITL C-884132-5695-269 15.0013942280917 125000 -22765.3571966552 0 0 151 (C1) n - 1
REM
REM in /home/nfs/bkarasulu/CARBON/AIRSS/Generating-Clusters/ReaxFF-fromJPCA2015/Units_Real/with-SteepDescent/Only-C1/SD-CG/Try1-3A/FIRE-CG
REM
REM
REM
REM
REM
REM ./C.cell (11c1c37f851c82e70ff6c80c92926a4b)
REM
REM compiler GCC version 9.2.1 20190827 (Red Hat 9.2.1-1)
REM options -cpp -mtune=generic -march=x86-64 -g -O0 -fpre-include=/usr/include/finclude/math-vector-fortran.h
REM seed -135322614 478955423 -201424434 184454151 -1108237332 853823829 -1238918992 746370103 1478305022 -1039321651 658215338 1570609614 -1390749759 -1322282493 1835920049 1831536941 -985637590 -119638268 473468385 95627307 -746280201 -2051138200 -2080705358 -1838538412 207543940 -391473180 -1309478988 1951855678 -142079437 941477582 1330842629 1274000335 1706408229
REM
CELL 1.54180   50.00000   50.00000   50.00000   90.00000   90.00000   90.00000
LATT -1
SFAC C  
C      1  0.4504570000000  0.5379320000000  0.5055970000000 1.0
C      1  0.4860940000000  0.5966370000000  0.4817730000000 1.0
C      1  0.4271810000000  0.5176140000000  0.4434090000000 1.0
C      1  0.5746680000000  0.4872230000000  0.5639250000000 1.0
C      1  0.5554000000000  0.5690280000000  0.5530240000000 1.0
C      1  0.4691190000000  0.4317930000000  0.4393620000000 1.0
C      1  0.5135440000000  0.5206310000000  0.5914300000000 1.0
C      1  0.4074250000000  0.5082500000000  0.4939350000000 1.0
C      1  0.4580040000000  0.5849130000000  0.4827320000000 1.0
C      1  0.4169780000000  0.4686390000000  0.4732510000000 1.0
C      1  0.5188990000000  0.5167040000000  0.5239580000000 1.0
C      1  0.4426360000000  0.4721010000000  0.4330690000000 1.0
C      1  0.5277070000000  0.4533990000000  0.4304340000000 1.0
C      1  0.4948710000000  0.5410700000000  0.4970140000000 1.0
C      1  0.4830780000000  0.4491760000000  0.5378080000000 1.0
C      1  0.5458360000000  0.5977810000000  0.5258790000000 1.0
C      1  0.4091540000000  0.4676920000000  0.5551880000000 1.0
C      1  0.4261600000000  0.4442530000000  0.4664720000000 1.0
C      1  0.5299950000000  0.5823910000000  0.4501050000000 1.0
C      1  0.3931430000000  0.4785350000000  0.5193620000000 1.0
C      1  0.4937610000000  0.5474900000000  0.4306310000000 1.0
C      1  0.5423040000000  0.4495150000000  0.5798610000000 1.0
C      1  0.5233520000000  0.5311080000000  0.3981060000000 1.0
C      1  0.4453510000000  0.4937210000000  0.5779280000000 1.0
C      1  0.5589940000000  0.5088410000000  0.4310200000000 1.0
C      1  0.4276590000000  0.4699400000000  0.5780910000000 1.0
C      1  0.4937230000000  0.4199800000000  0.4467890000000 1.0
C      1  0.5160140000000  0.4707500000000  0.5107080000000 1.0
C      1  0.6007860000000  0.4829360000000  0.4997460000000 1.0
C      1  0.5589190000000  0.4348490000000  0.5095800000000 1.0
C      1  0.4851610000000  0.4186030000000  0.5694450000000 1.0
C      1  0.5622000000000  0.4318580000000  0.4819220000000 1.0
C      1  0.5192800000000  0.5416140000000  0.5725800000000 1.0
C      1  0.4404470000000  0.4651390000000  0.5077490000000 1.0
C      1  0.5528700000000  0.4912620000000  0.5144570000000 1.0
C      1  0.4673250000000  0.4382830000000  0.5825820000000 1.0
C      1  0.5192030000000  0.5440330000000  0.4830720000000 1.0
C      1  0.4990630000000  0.5134660000000  0.5015310000000 1.0
C      1  0.5539970000000  0.4873810000000  0.4862970000000 1.0
C      1  0.5290850000000  0.4058320000000  0.4893390000000 1.0
C      1  0.4811730000000  0.4663940000000  0.5888280000000 1.0
C      1  0.5962310000000  0.4834690000000  0.5287620000000 1.0
C      1  0.4696550000000  0.4212460000000  0.5450510000000 1.0
C      1  0.5403070000000  0.4323040000000  0.5580630000000 1.0
C      1  0.5174240000000  0.4903880000000  0.5332150000000 1.0
C      1  0.4875890000000  0.5691540000000  0.5715720000000 1.0
C      1  0.4325460000000  0.4386090000000  0.5183880000000 1.0
C      1  0.4773130000000  0.4975180000000  0.5151830000000 1.0
C      1  0.5520550000000  0.5685140000000  0.4631980000000 1.0
C      1  0.4651190000000  0.5560270000000  0.5227440000000 1.0
C      1  0.5018460000000  0.5879070000000  0.4589690000000 1.0
C      1  0.5577960000000  0.4425970000000  0.5354520000000 1.0
C      1  0.4974850000000  0.4815670000000  0.4590740000000 1.0
C      1  0.5827230000000  0.5567290000000  0.5431150000000 1.0
C      1  0.5328920000000  0.4995110000000  0.5930610000000 1.0
C      1  0.5134370000000  0.4303600000000  0.5006670000000 1.0
C      1  0.4932340000000  0.3878220000000  0.5169570000000 1.0
C      1  0.4667860000000  0.4013220000000  0.5243130000000 1.0
C      1  0.4650410000000  0.4554380000000  0.4232860000000 1.0
C      1  0.4820710000000  0.5176540000000  0.5581930000000 1.0
C      1  0.5296520000000  0.4697490000000  0.5996270000000 1.0
C      1  0.3984760000000  0.4920580000000  0.5417930000000 1.0
C      1  0.5534380000000  0.4513470000000  0.4313360000000 1.0
C      1  0.4406400000000  0.5539330000000  0.5747510000000 1.0
C      1  0.5050330000000  0.4611740000000  0.6105770000000 1.0
C      1  0.4803370000000  0.5027530000000  0.4481730000000 1.0
C      1  0.4870180000000  0.5937640000000  0.5312390000000 1.0
C      1  0.5477360000000  0.4803580000000  0.3958870000000 1.0
C      1  0.5477750000000  0.5188770000000  0.5188830000000 1.0
C      1  0.5909790000000  0.5345850000000  0.4976840000000 1.0
C      1  0.5668260000000  0.5307920000000  0.5761730000000 1.0
C      1  0.5409640000000  0.4985440000000  0.4606900000000 1.0
C      1  0.4697270000000  0.5512920000000  0.5836390000000 1.0
C      1  0.4682940000000  0.4943830000000  0.5939430000000 1.0
C      1  0.4503330000000  0.5421970000000  0.4205910000000 1.0
C      1  0.4499500000000  0.5102680000000  0.5192960000000 1.0
C      1  0.5627020000000  0.5374240000000  0.5037890000000 1.0
C      1  0.5855540000000  0.4537400000000  0.4748530000000 1.0
C      1  0.4685050000000  0.4674690000000  0.5131810000000 1.0
C      1  0.4983590000000  0.4716120000000  0.4861280000000 1.0
C      1  0.4886710000000  0.4304110000000  0.4875860000000 1.0
C      1  0.4310730000000  0.4923720000000  0.5061910000000 1.0
C      1  0.4993450000000  0.5229530000000  0.4456980000000 1.0
C      1  0.5982720000000  0.5566480000000  0.5178330000000 1.0
C      1  0.5241350000000  0.4774760000000  0.4481310000000 1.0
C      1  0.5685710000000  0.4729380000000  0.5370090000000 1.0
C      1  0.4552070000000  0.5842010000000  0.5308760000000 1.0
C      1  0.4443690000000  0.4245590000000  0.4577610000000 1.0
C      1  0.4864220000000  0.4682970000000  0.5595680000000 1.0
C      1  0.4848300000000  0.4697240000000  0.4065240000000 1.0
C      1  0.5470010000000  0.5879950000000  0.4991590000000 1.0
C      1  0.5786790000000  0.4627420000000  0.4295360000000 1.0
C      1  0.4827960000000  0.5692190000000  0.4468920000000 1.0
C      1  0.5109450000000  0.4462450000000  0.5247230000000 1.0
C      1  0.5697560000000  0.4851030000000  0.4119010000000 1.0
C      1  0.4933360000000  0.5539440000000  0.5241700000000 1.0
C      1  0.5587800000000  0.5041760000000  0.5814810000000 1.0
C      1  0.5213770000000  0.4283540000000  0.4455500000000 1.0
C      1  0.4598000000000  0.5139050000000  0.4145940000000 1.0
C      1  0.5046200000000  0.3903560000000  0.4902250000000 1.0
C      1  0.5335430000000  0.5851230000000  0.5473830000000 1.0
C      1  0.4076400000000  0.5226490000000  0.4653850000000 1.0
C      1  0.4823150000000  0.4988470000000  0.4008290000000 1.0
C      1  0.5794500000000  0.5233060000000  0.4466570000000 1.0
C      1  0.5878300000000  0.5314990000000  0.5568260000000 1.0
C      1  0.4526710000000  0.4082570000000  0.4797010000000 1.0
C      1  0.5128710000000  0.5557070000000  0.4103820000000 1.0
C      1  0.5196510000000  0.5199690000000  0.4669310000000 1.0
C      1  0.5571830000000  0.5555260000000  0.4224760000000 1.0
C      1  0.4216150000000  0.5549110000000  0.4979360000000 1.0
C      1  0.5037240000000  0.5850400000000  0.5531270000000 1.0
C      1  0.4560140000000  0.5088850000000  0.4621340000000 1.0
C      1  0.4066730000000  0.5326810000000  0.5134090000000 1.0
C      1  0.3942550000000  0.4803200000000  0.4917910000000 1.0
C      1  0.5279600000000  0.6077280000000  0.5059990000000 1.0
C      1  0.4625340000000  0.5613200000000  0.4661390000000 1.0
C      1  0.4461470000000  0.4138000000000  0.5072090000000 1.0
C      1  0.5072840000000  0.5077520000000  0.3904980000000 1.0
C      1  0.4410760000000  0.4823410000000  0.4610510000000 1.0
C      1  0.5705780000000  0.5516240000000  0.4479990000000 1.0
C      1  0.4381580000000  0.5798570000000  0.5032200000000 1.0
C      1  0.5071440000000  0.3991460000000  0.5387070000000 1.0
C      1  0.4360140000000  0.4979110000000  0.4220960000000 1.0
C      1  0.4408190000000  0.4441040000000  0.5717280000000 1.0
C      1  0.5407750000000  0.4190710000000  0.4662610000000 1.0
C      1  0.5768760000000  0.4713020000000  0.4905470000000 1.0
C      1  0.4925150000000  0.4922110000000  0.5467910000000 1.0
C      1  0.5332880000000  0.5726730000000  0.4230120000000 1.0
C      1  0.6029800000000  0.5094110000000  0.4865440000000 1.0
C      1  0.4069060000000  0.5230250000000  0.5399790000000 1.0
C      1  0.4829360000000  0.5200150000000  0.5887830000000 1.0
C      1  0.5030010000000  0.5362900000000  0.5462890000000 1.0
C      1  0.5913960000000  0.4726370000000  0.4538990000000 1.0
C      1  0.5223180000000  0.4815290000000  0.3850260000000 1.0
C      1  0.5118950000000  0.4611330000000  0.4030810000000 1.0
C      1  0.5437190000000  0.5597220000000  0.4903400000000 1.0
C      1  0.4837040000000  0.4044770000000  0.4726670000000 1.0
C      1  0.5947670000000  0.5021880000000  0.4600820000000 1.0
C      1  0.4988120000000  0.6042780000000  0.5068630000000 1.0
C      1  0.4748450000000  0.4551940000000  0.4882310000000 1.0
C      1  0.4283610000000  0.5485360000000  0.4389010000000 1.0
C      1  0.4246210000000  0.4429750000000  0.5460060000000 1.0
C      1  0.5490680000000  0.5297480000000  0.4119350000000 1.0
C      1  0.5948340000000  0.5032310000000  0.5504740000000 1.0
C      1  0.4497830000000  0.5129470000000  0.5536580000000 1.0
C      1  0.4479820000000  0.5746390000000  0.5579950000000 1.0
C      1  0.4635140000000  0.5350020000000  0.4797200000000 1.0
C      1  0.5142940000000  0.4145360000000  0.5598610000000 1.0
C      1  0.4275080000000  0.5309630000000  0.5594790000000 1.0
C      1  0.4163380000000  0.5489010000000  0.4668440000000 1.0
C      1  0.5469640000000  0.5502300000000  0.5722250000000 1.0
END
