TITL C-883736-9678-432 -1.00255287022557 125000 -12956.2999350022 0 0 87 (C1) n - 1
REM
REM in /home/nfs/bkarasulu/CARBON/AIRSS/Generating-Clusters/ReaxFF-fromJPCA2015/Units_Real/with-SteepDescent/Only-C1/SD-CG/Try1-3A/FIRE-CG
REM
REM
REM
REM
REM
REM ./C.cell (11c1c37f851c82e70ff6c80c92926a4b)
REM
REM compiler GCC version 9.2.1 20190827 (Red Hat 9.2.1-1)
REM options -cpp -mtune=generic -march=x86-64 -g -O0 -fpre-include=/usr/include/finclude/math-vector-fortran.h
REM seed 340515652 1508506917 13985723 2062384701 -2050704996 1019358142 -627967475 100729122 -1217472829 -1254032486 361114025 1724983451 -959194772 695759981 -1682299117 -1220599295 751517797 348996970 -732484360 -1787933993 1216221265 -1097650537 219085064 203257667 445428352 -147695151 398643916 -414324421 240648019 156492329 799490314 -352358757 2041583183
REM
CELL 1.54180   50.00000   50.00000   50.00000   90.00000   90.00000   90.00000
LATT -1
SFAC C  
C      1  0.4953610000000  0.5482060000000  0.5457460000000 1.0
C      1  0.4682950000000  0.5631190000000  0.4575210000000 1.0
C      1  0.4312190000000  0.5243620000000  0.5223540000000 1.0
C      1  0.4390700000000  0.4563800000000  0.5566330000000 1.0
C      1  0.4779220000000  0.5422480000000  0.5694870000000 1.0
C      1  0.4897110000000  0.5759460000000  0.4721990000000 1.0
C      1  0.5045890000000  0.4310960000000  0.4575460000000 1.0
C      1  0.5700450000000  0.4883940000000  0.5381060000000 1.0
C      1  0.5401120000000  0.4652860000000  0.4801690000000 1.0
C      1  0.4556470000000  0.5491180000000  0.5537660000000 1.0
C      1  0.5659160000000  0.5399900000000  0.4784870000000 1.0
C      1  0.5125890000000  0.4746130000000  0.4827900000000 1.0
C      1  0.4829300000000  0.5086140000000  0.4768570000000 1.0
C      1  0.4935410000000  0.4739850000000  0.5075690000000 1.0
C      1  0.5530260000000  0.5563410000000  0.4921420000000 1.0
C      1  0.4296410000000  0.4993660000000  0.4580060000000 1.0
C      1  0.5169860000000  0.5153210000000  0.5863490000000 1.0
C      1  0.5047440000000  0.5491310000000  0.4254290000000 1.0
C      1  0.5110600000000  0.5786410000000  0.5126450000000 1.0
C      1  0.5099160000000  0.5316560000000  0.5064080000000 1.0
C      1  0.4878480000000  0.4432870000000  0.5138580000000 1.0
C      1  0.5542360000000  0.4838820000000  0.5622620000000 1.0
C      1  0.4356720000000  0.5426160000000  0.4716090000000 1.0
C      1  0.5611690000000  0.4377340000000  0.5230700000000 1.0
C      1  0.4196670000000  0.5012160000000  0.5387060000000 1.0
C      1  0.4515470000000  0.4892560000000  0.4432490000000 1.0
C      1  0.5634610000000  0.4744860000000  0.4937520000000 1.0
C      1  0.4630670000000  0.5122590000000  0.5212960000000 1.0
C      1  0.4840610000000  0.5774130000000  0.5009880000000 1.0
C      1  0.5732600000000  0.5161250000000  0.5273010000000 1.0
C      1  0.5603060000000  0.4839140000000  0.4332260000000 1.0
C      1  0.4621650000000  0.4956880000000  0.5458120000000 1.0
C      1  0.5768870000000  0.5221640000000  0.4986390000000 1.0
C      1  0.5531110000000  0.5125230000000  0.4285080000000 1.0
C      1  0.4900920000000  0.5158320000000  0.5775620000000 1.0
C      1  0.5201270000000  0.4243610000000  0.4805750000000 1.0
C      1  0.4577230000000  0.5666670000000  0.5067530000000 1.0
C      1  0.4374350000000  0.4860710000000  0.5560740000000 1.0
C      1  0.4659240000000  0.4443840000000  0.5604150000000 1.0
C      1  0.5330840000000  0.4304300000000  0.5305760000000 1.0
C      1  0.5267180000000  0.5574950000000  0.4432150000000 1.0
C      1  0.5482340000000  0.5349680000000  0.4498470000000 1.0
C      1  0.5737490000000  0.4899140000000  0.4573580000000 1.0
C      1  0.5448730000000  0.5628520000000  0.5455310000000 1.0
C      1  0.5263130000000  0.5181390000000  0.4601080000000 1.0
C      1  0.4132730000000  0.4881930000000  0.5133110000000 1.0
C      1  0.5331340000000  0.5217300000000  0.5194710000000 1.0
C      1  0.4864490000000  0.4884070000000  0.5585920000000 1.0
C      1  0.4972150000000  0.4881410000000  0.4629350000000 1.0
C      1  0.4875720000000  0.4601900000000  0.5708570000000 1.0
C      1  0.5016840000000  0.4863500000000  0.5335570000000 1.0
C      1  0.5241120000000  0.5041630000000  0.4301710000000 1.0
C      1  0.5312550000000  0.4368240000000  0.5585620000000 1.0
C      1  0.5689380000000  0.4662720000000  0.5197620000000 1.0
C      1  0.4339300000000  0.4555930000000  0.4807490000000 1.0
C      1  0.5572970000000  0.4262010000000  0.4978700000000 1.0
C      1  0.5237440000000  0.5021970000000  0.5371710000000 1.0
C      1  0.5805530000000  0.4957710000000  0.4836870000000 1.0
C      1  0.4244410000000  0.4612900000000  0.5077450000000 1.0
C      1  0.5447440000000  0.4372140000000  0.4755590000000 1.0
C      1  0.4923450000000  0.4629870000000  0.4195160000000 1.0
C      1  0.5032560000000  0.5217130000000  0.4145050000000 1.0
C      1  0.5174320000000  0.5699640000000  0.5399800000000 1.0
C      1  0.5139650000000  0.4503010000000  0.5757800000000 1.0
C      1  0.5060840000000  0.5252940000000  0.4790410000000 1.0
C      1  0.4801850000000  0.4879070000000  0.4380370000000 1.0
C      1  0.4521920000000  0.4374020000000  0.4719700000000 1.0
C      1  0.4768050000000  0.5451670000000  0.4358110000000 1.0
C      1  0.5179530000000  0.5737350000000  0.4653590000000 1.0
C      1  0.5319620000000  0.4741430000000  0.4293020000000 1.0
C      1  0.4687330000000  0.4936940000000  0.4972280000000 1.0
C      1  0.4438260000000  0.5532700000000  0.5284950000000 1.0
C      1  0.4374030000000  0.4461150000000  0.5291280000000 1.0
C      1  0.5323470000000  0.5749040000000  0.4921220000000 1.0
C      1  0.5122330000000  0.4284710000000  0.5097000000000 1.0
C      1  0.4756390000000  0.4242290000000  0.4605800000000 1.0
C      1  0.5137140000000  0.4508480000000  0.4340140000000 1.0
C      1  0.5411330000000  0.4595680000000  0.5713460000000 1.0
C      1  0.5382060000000  0.5086880000000  0.5635830000000 1.0
C      1  0.4869080000000  0.5326740000000  0.5235150000000 1.0
C      1  0.5515780000000  0.5327230000000  0.5405020000000 1.0
C      1  0.4769790000000  0.5171090000000  0.4256610000000 1.0
C      1  0.4161440000000  0.5139080000000  0.4996270000000 1.0
C      1  0.4469300000000  0.4824610000000  0.4722060000000 1.0
C      1  0.4209500000000  0.5213800000000  0.4727650000000 1.0
C      1  0.4657550000000  0.4360180000000  0.5314200000000 1.0
C      1  0.4479540000000  0.5613010000000  0.4783090000000 1.0
END
