TITL C-884142-5251-323 0.907919555903509 125000 -14690.7196881022 0 0 99 (C1) n - 1
REM
REM in /home/nfs/bkarasulu/CARBON/AIRSS/Generating-Clusters/ReaxFF-fromJPCA2015/Units_Real/with-SteepDescent/Only-C1/SD-CG/Try1-3A/FIRE-CG
REM
REM
REM
REM
REM
REM ./C.cell (11c1c37f851c82e70ff6c80c92926a4b)
REM
REM compiler GCC version 9.2.1 20190827 (Red Hat 9.2.1-1)
REM options -cpp -mtune=generic -march=x86-64 -g -O0 -fpre-include=/usr/include/finclude/math-vector-fortran.h
REM seed 1102030486 -206151392 1495862762 1487459608 1500127041 -1572159916 194115306 418348224 286346710 -1520117598 380882525 -412512157 603588633 132969925 -678596977 -579954327 509218060 -1105929459 -1080527935 341903451 1688575538 1555751209 1318602696 403715333 509559906 -1366112856 -1978890117 -292310888 279934649 -354422662 591648391 -1649440630 1753395415
REM
CELL 1.54180   50.00000   50.00000   50.00000   90.00000   90.00000   90.00000
LATT -1
SFAC C  
C      1  0.5683170000000  0.4654840000000  0.4686280000000 1.0
C      1  0.4586810000000  0.4309550000000  0.4836350000000 1.0
C      1  0.4518550000000  0.4718560000000  0.5419170000000 1.0
C      1  0.5315710000000  0.4688130000000  0.5747830000000 1.0
C      1  0.4730910000000  0.5151110000000  0.5312950000000 1.0
C      1  0.4919610000000  0.5697940000000  0.4623680000000 1.0
C      1  0.4804430000000  0.4381550000000  0.5539960000000 1.0
C      1  0.5840450000000  0.5019150000000  0.5058520000000 1.0
C      1  0.4346530000000  0.5366220000000  0.5468430000000 1.0
C      1  0.5699550000000  0.4569070000000  0.5170150000000 1.0
C      1  0.5180910000000  0.5133150000000  0.5282620000000 1.0
C      1  0.4886210000000  0.5789920000000  0.5385290000000 1.0
C      1  0.4850520000000  0.5293100000000  0.5690790000000 1.0
C      1  0.4543820000000  0.4473650000000  0.4585820000000 1.0
C      1  0.4589570000000  0.4978360000000  0.4956940000000 1.0
C      1  0.5520440000000  0.5294090000000  0.4256670000000 1.0
C      1  0.4188330000000  0.4433810000000  0.5097150000000 1.0
C      1  0.5527420000000  0.4417900000000  0.4675770000000 1.0
C      1  0.5450060000000  0.5165490000000  0.5187760000000 1.0
C      1  0.5721080000000  0.4867320000000  0.5552100000000 1.0
C      1  0.4769090000000  0.4905380000000  0.5392650000000 1.0
C      1  0.4569600000000  0.5365650000000  0.4548140000000 1.0
C      1  0.4333590000000  0.5180130000000  0.4535790000000 1.0
C      1  0.4167470000000  0.5292540000000  0.5010450000000 1.0
C      1  0.4642000000000  0.5384130000000  0.4266800000000 1.0
C      1  0.4967290000000  0.5064290000000  0.4653600000000 1.0
C      1  0.5495320000000  0.4916900000000  0.5737170000000 1.0
C      1  0.4732040000000  0.4801980000000  0.4852170000000 1.0
C      1  0.4829150000000  0.4240890000000  0.4924870000000 1.0
C      1  0.5443070000000  0.5052040000000  0.4137160000000 1.0
C      1  0.5464100000000  0.5096720000000  0.4916080000000 1.0
C      1  0.4554210000000  0.5021730000000  0.5762310000000 1.0
C      1  0.5427570000000  0.5749370000000  0.5191110000000 1.0
C      1  0.5224870000000  0.4396720000000  0.4276710000000 1.0
C      1  0.5681970000000  0.4595900000000  0.5462030000000 1.0
C      1  0.5711630000000  0.5253690000000  0.4883020000000 1.0
C      1  0.4790050000000  0.4681810000000  0.4193830000000 1.0
C      1  0.5838580000000  0.5050230000000  0.5350430000000 1.0
C      1  0.5084190000000  0.4191380000000  0.4963230000000 1.0
C      1  0.5316560000000  0.5459070000000  0.4407120000000 1.0
C      1  0.4887450000000  0.5857300000000  0.5096770000000 1.0
C      1  0.5167080000000  0.4609030000000  0.4709660000000 1.0
C      1  0.4815080000000  0.4604590000000  0.5737980000000 1.0
C      1  0.4462350000000  0.4312790000000  0.5115410000000 1.0
C      1  0.4175540000000  0.5119770000000  0.4767960000000 1.0
C      1  0.4641050000000  0.4936610000000  0.4214220000000 1.0
C      1  0.5260400000000  0.5063710000000  0.4726310000000 1.0
C      1  0.4766040000000  0.4465020000000  0.4406490000000 1.0
C      1  0.4594870000000  0.4438130000000  0.5353340000000 1.0
C      1  0.5022960000000  0.4324180000000  0.4441270000000 1.0
C      1  0.4367570000000  0.4911470000000  0.5189060000000 1.0
C      1  0.4638360000000  0.5813360000000  0.5259020000000 1.0
C      1  0.5021030000000  0.4185960000000  0.5483500000000 1.0
C      1  0.5225520000000  0.4315030000000  0.4683380000000 1.0
C      1  0.5051350000000  0.5583320000000  0.4385600000000 1.0
C      1  0.4890110000000  0.5445150000000  0.4186190000000 1.0
C      1  0.4171150000000  0.4726480000000  0.5046110000000 1.0
C      1  0.5791950000000  0.4750060000000  0.4959770000000 1.0
C      1  0.5427910000000  0.5419510000000  0.5751380000000 1.0
C      1  0.5162720000000  0.4652220000000  0.5221310000000 1.0
C      1  0.4552900000000  0.5287710000000  0.5685640000000 1.0
C      1  0.5361050000000  0.5717270000000  0.4927180000000 1.0
C      1  0.5637140000000  0.5487110000000  0.5552600000000 1.0
C      1  0.4556400000000  0.4748250000000  0.5726980000000 1.0
C      1  0.4613840000000  0.5661130000000  0.4626530000000 1.0
C      1  0.5441900000000  0.4476900000000  0.5586290000000 1.0
C      1  0.5041520000000  0.4888580000000  0.5307960000000 1.0
C      1  0.4938150000000  0.4773850000000  0.4671290000000 1.0
C      1  0.4759890000000  0.5183120000000  0.4123830000000 1.0
C      1  0.5266140000000  0.4587840000000  0.4112050000000 1.0
C      1  0.5733220000000  0.5125810000000  0.4418530000000 1.0
C      1  0.5005320000000  0.5525190000000  0.5499980000000 1.0
C      1  0.5307370000000  0.4237590000000  0.5483980000000 1.0
C      1  0.5048570000000  0.5755640000000  0.4870620000000 1.0
C      1  0.4418040000000  0.5594070000000  0.5282870000000 1.0
C      1  0.5211950000000  0.5224600000000  0.4525660000000 1.0
C      1  0.5063880000000  0.5384410000000  0.5233190000000 1.0
C      1  0.5478420000000  0.5731610000000  0.5468520000000 1.0
C      1  0.5656470000000  0.4838780000000  0.4427630000000 1.0
C      1  0.4180620000000  0.4823860000000  0.4769590000000 1.0
C      1  0.5475290000000  0.4786530000000  0.4182950000000 1.0
C      1  0.5039410000000  0.4781700000000  0.5781100000000 1.0
C      1  0.5323230000000  0.5146540000000  0.5790150000000 1.0
C      1  0.5566420000000  0.5504210000000  0.4890870000000 1.0
C      1  0.4873100000000  0.5403520000000  0.5020530000000 1.0
C      1  0.5035230000000  0.4685870000000  0.4093310000000 1.0
C      1  0.4247090000000  0.5179920000000  0.5268010000000 1.0
C      1  0.5171090000000  0.4131210000000  0.5237520000000 1.0
C      1  0.4419290000000  0.4934830000000  0.4401080000000 1.0
C      1  0.5256840000000  0.5625970000000  0.5639480000000 1.0
C      1  0.5679830000000  0.5294710000000  0.5336230000000 1.0
C      1  0.4253820000000  0.5574360000000  0.5014610000000 1.0
C      1  0.5266320000000  0.4691280000000  0.4960930000000 1.0
C      1  0.5412010000000  0.4532840000000  0.5146560000000 1.0
C      1  0.4654830000000  0.5381990000000  0.5203330000000 1.0
C      1  0.4359220000000  0.4702020000000  0.4569350000000 1.0
C      1  0.5033460000000  0.5086220000000  0.5784900000000 1.0
C      1  0.4430060000000  0.5649400000000  0.4821410000000 1.0
C      1  0.4743740000000  0.5216400000000  0.4823140000000 1.0
END
