TITL C-884135-4325-351 -3.27715201052063 125000 -18213.6209358067 0 0 122 (C1) n - 1
REM
REM in /home/nfs/bkarasulu/CARBON/AIRSS/Generating-Clusters/ReaxFF-fromJPCA2015/Units_Real/with-SteepDescent/Only-C1/SD-CG/Try1-3A/FIRE-CG
REM
REM
REM
REM
REM
REM ./C.cell (11c1c37f851c82e70ff6c80c92926a4b)
REM
REM compiler GCC version 9.2.1 20190827 (Red Hat 9.2.1-1)
REM options -cpp -mtune=generic -march=x86-64 -g -O0 -fpre-include=/usr/include/finclude/math-vector-fortran.h
REM seed 571544739 1813241062 -1795302349 -36878698 -1635244991 -1142499874 -1735808177 1285763023 -397169582 1786802940 -839170979 -1996565926 1780996477 763958362 -1021196810 -1380826847 -2126528782 -1810208843 1452676718 400469560 1936038451 -1503083713 1076559618 -463583044 -1180792866 502208044 1282999181 -40793013 1910768716 174436919 1180596577 -810107801 -1243545334
REM
CELL 1.54180   50.00000   50.00000   50.00000   90.00000   90.00000   90.00000
LATT -1
SFAC C  
C      1  0.4887720000000  0.4419570000000  0.5233600000000 1.0
C      1  0.4645220000000  0.5117640000000  0.5359770000000 1.0
C      1  0.5905400000000  0.4768230000000  0.5380970000000 1.0
C      1  0.5134920000000  0.5710460000000  0.4836200000000 1.0
C      1  0.4257000000000  0.5537120000000  0.4709390000000 1.0
C      1  0.4154120000000  0.4995870000000  0.5153180000000 1.0
C      1  0.5066670000000  0.6083520000000  0.5006280000000 1.0
C      1  0.4109890000000  0.5002490000000  0.4681420000000 1.0
C      1  0.4309480000000  0.5680790000000  0.5319440000000 1.0
C      1  0.4258120000000  0.4411050000000  0.5219420000000 1.0
C      1  0.5574210000000  0.5672740000000  0.5046720000000 1.0
C      1  0.4158820000000  0.5260870000000  0.5065340000000 1.0
C      1  0.4126650000000  0.4819370000000  0.4926880000000 1.0
C      1  0.4654050000000  0.5381810000000  0.5294440000000 1.0
C      1  0.5883440000000  0.4541300000000  0.4962820000000 1.0
C      1  0.5231710000000  0.5981670000000  0.4807030000000 1.0
C      1  0.4824620000000  0.4398180000000  0.4399600000000 1.0
C      1  0.5644650000000  0.5115940000000  0.4240140000000 1.0
C      1  0.5323730000000  0.4719420000000  0.5260100000000 1.0
C      1  0.4699400000000  0.5404120000000  0.4845260000000 1.0
C      1  0.4873880000000  0.5618080000000  0.5343130000000 1.0
C      1  0.5064000000000  0.5572830000000  0.5578100000000 1.0
C      1  0.4686010000000  0.5417940000000  0.5885770000000 1.0
C      1  0.5506040000000  0.4407570000000  0.5601110000000 1.0
C      1  0.5823740000000  0.5193870000000  0.5141640000000 1.0
C      1  0.5586730000000  0.4226930000000  0.4810930000000 1.0
C      1  0.5765070000000  0.4433920000000  0.4724050000000 1.0
C      1  0.5515550000000  0.5382140000000  0.5691570000000 1.0
C      1  0.4984370000000  0.4905020000000  0.5124450000000 1.0
C      1  0.5066750000000  0.5636110000000  0.4285240000000 1.0
C      1  0.4929940000000  0.4932240000000  0.4070000000000 1.0
C      1  0.4528040000000  0.4165750000000  0.4961830000000 1.0
C      1  0.4799570000000  0.4802120000000  0.4917950000000 1.0
C      1  0.5111860000000  0.5147420000000  0.5805570000000 1.0
C      1  0.5249020000000  0.4070320000000  0.5107700000000 1.0
C      1  0.4327270000000  0.5252450000000  0.5638610000000 1.0
C      1  0.5344050000000  0.4256470000000  0.4643640000000 1.0
C      1  0.5129850000000  0.5136330000000  0.5048840000000 1.0
C      1  0.4662420000000  0.4970850000000  0.4096310000000 1.0
C      1  0.4484790000000  0.4218030000000  0.5246690000000 1.0
C      1  0.4674710000000  0.5265900000000  0.4184750000000 1.0
C      1  0.4512550000000  0.5649830000000  0.5809010000000 1.0
C      1  0.5390340000000  0.4570290000000  0.4058610000000 1.0
C      1  0.5684080000000  0.5182020000000  0.5602750000000 1.0
C      1  0.4327790000000  0.5541900000000  0.5596200000000 1.0
C      1  0.4601330000000  0.5193560000000  0.4674940000000 1.0
C      1  0.5812800000000  0.4810570000000  0.4938340000000 1.0
C      1  0.4263930000000  0.4889570000000  0.4445450000000 1.0
C      1  0.5357810000000  0.5574740000000  0.5547880000000 1.0
C      1  0.4871680000000  0.4935850000000  0.5397550000000 1.0
C      1  0.4518650000000  0.5654520000000  0.4835110000000 1.0
C      1  0.4894260000000  0.6058630000000  0.5160760000000 1.0
C      1  0.4123400000000  0.5283680000000  0.4776620000000 1.0
C      1  0.4566030000000  0.4518650000000  0.4339600000000 1.0
C      1  0.4378090000000  0.5562370000000  0.4448210000000 1.0
C      1  0.4476740000000  0.5820360000000  0.5128680000000 1.0
C      1  0.5624520000000  0.4652970000000  0.5658980000000 1.0
C      1  0.5520350000000  0.4176490000000  0.5103520000000 1.0
C      1  0.5313970000000  0.5489350000000  0.4670640000000 1.0
C      1  0.5544320000000  0.5804780000000  0.4533270000000 1.0
C      1  0.5054190000000  0.5610410000000  0.5088440000000 1.0
C      1  0.5206790000000  0.4404050000000  0.5619890000000 1.0
C      1  0.4454270000000  0.4632030000000  0.5241650000000 1.0
C      1  0.4421150000000  0.4771380000000  0.5483690000000 1.0
C      1  0.5596980000000  0.5236110000000  0.5314360000000 1.0
C      1  0.4619080000000  0.4907270000000  0.5882280000000 1.0
C      1  0.5914280000000  0.4939720000000  0.5156160000000 1.0
C      1  0.4394420000000  0.4465820000000  0.4571390000000 1.0
C      1  0.4823880000000  0.4847410000000  0.6065650000000 1.0
C      1  0.4582130000000  0.5750370000000  0.4544990000000 1.0
C      1  0.5031470000000  0.4585300000000  0.4522530000000 1.0
C      1  0.5512020000000  0.5537470000000  0.5291630000000 1.0
C      1  0.5772660000000  0.4879920000000  0.5622840000000 1.0
C      1  0.5373670000000  0.5101350000000  0.4895350000000 1.0
C      1  0.5023030000000  0.4657290000000  0.5997520000000 1.0
C      1  0.5078070000000  0.4946000000000  0.6012090000000 1.0
C      1  0.4849420000000  0.5501910000000  0.4160630000000 1.0
C      1  0.4973370000000  0.5407570000000  0.5796990000000 1.0
C      1  0.5520200000000  0.4852720000000  0.4880060000000 1.0
C      1  0.4382810000000  0.5427540000000  0.5191460000000 1.0
C      1  0.4740710000000  0.4458800000000  0.5657980000000 1.0
C      1  0.4474440000000  0.4789470000000  0.4260200000000 1.0
C      1  0.5217350000000  0.4782610000000  0.4371490000000 1.0
C      1  0.5812420000000  0.5283250000000  0.4862790000000 1.0
C      1  0.4990290000000  0.4464700000000  0.5792030000000 1.0
C      1  0.5764990000000  0.4925140000000  0.4446160000000 1.0
C      1  0.5109800000000  0.4127040000000  0.4552040000000 1.0
C      1  0.4316660000000  0.4322110000000  0.4810900000000 1.0
C      1  0.4698710000000  0.4594870000000  0.5096300000000 1.0
C      1  0.5254190000000  0.5205520000000  0.4659330000000 1.0
C      1  0.4632210000000  0.4731380000000  0.5653350000000 1.0
C      1  0.5729390000000  0.4616790000000  0.4485510000000 1.0
C      1  0.5367610000000  0.5572260000000  0.4391720000000 1.0
C      1  0.5526380000000  0.5900520000000  0.4799730000000 1.0
C      1  0.5563300000000  0.4568220000000  0.4269180000000 1.0
C      1  0.5178080000000  0.4463030000000  0.4797220000000 1.0
C      1  0.4827000000000  0.4136030000000  0.4534900000000 1.0
C      1  0.5832190000000  0.5092040000000  0.4653730000000 1.0
C      1  0.5020530000000  0.4234720000000  0.4983970000000 1.0
C      1  0.5609880000000  0.5500150000000  0.4821880000000 1.0
C      1  0.5100340000000  0.4998950000000  0.4530290000000 1.0
C      1  0.5138170000000  0.4526680000000  0.5373460000000 1.0
C      1  0.4513560000000  0.5178590000000  0.5844990000000 1.0
C      1  0.4161660000000  0.4520800000000  0.4964770000000 1.0
C      1  0.4783550000000  0.4119030000000  0.4833190000000 1.0
C      1  0.5420060000000  0.5123150000000  0.4088970000000 1.0
C      1  0.4926950000000  0.4808360000000  0.4650810000000 1.0
C      1  0.4809190000000  0.5739010000000  0.4361610000000 1.0
C      1  0.4338300000000  0.5030060000000  0.5419400000000 1.0
C      1  0.5355280000000  0.4996390000000  0.5359950000000 1.0
C      1  0.4703010000000  0.4290550000000  0.5424630000000 1.0
C      1  0.5635470000000  0.4334810000000  0.5337410000000 1.0
C      1  0.5290740000000  0.4694610000000  0.4966200000000 1.0
C      1  0.5494220000000  0.5351730000000  0.4228610000000 1.0
C      1  0.5844600000000  0.4506250000000  0.5250710000000 1.0
C      1  0.4945500000000  0.5360960000000  0.4985890000000 1.0
C      1  0.5219350000000  0.4883410000000  0.4076130000000 1.0
C      1  0.4416220000000  0.4748070000000  0.4655610000000 1.0
C      1  0.4498030000000  0.5293990000000  0.4412270000000 1.0
C      1  0.5126110000000  0.5038590000000  0.5529870000000 1.0
C      1  0.4711010000000  0.5888280000000  0.5283680000000 1.0
C      1  0.4572540000000  0.4932880000000  0.4799530000000 1.0
END
