TITL C-884136-4169-251 9.05522043051247 125000 -23695.4931679788 0 0 158 (C1) n - 1
REM
REM in /home/nfs/bkarasulu/CARBON/AIRSS/Generating-Clusters/ReaxFF-fromJPCA2015/Units_Real/with-SteepDescent/Only-C1/SD-CG/Try1-3A/FIRE-CG
REM
REM
REM
REM
REM
REM ./C.cell (11c1c37f851c82e70ff6c80c92926a4b)
REM
REM compiler GCC version 9.2.1 20190827 (Red Hat 9.2.1-1)
REM options -cpp -mtune=generic -march=x86-64 -g -O0 -fpre-include=/usr/include/finclude/math-vector-fortran.h
REM seed -1431714332 -1114141911 -843611636 997106682 1645504521 635635949 -1300769243 13792195 764825172 -2032153310 -852710146 -863020863 1345857743 -426772292 2060627589 40241460 1367330905 522613626 12289824 36905951 1234197158 -21805495 229390825 -21897338 2098456873 -1328390193 -620431330 -1481800539 821116171 -2096758696 777494566 -1698177347 757604040
REM
CELL 1.54180   50.00000   50.00000   50.00000   90.00000   90.00000   90.00000
LATT -1
SFAC C  
C      1  0.4930450000000  0.5165450000000  0.5191190000000 1.0
C      1  0.5466090000000  0.3967140000000  0.4977290000000 1.0
C      1  0.5223790000000  0.5775530000000  0.4335210000000 1.0
C      1  0.4241220000000  0.4581360000000  0.4571640000000 1.0
C      1  0.5281370000000  0.4729520000000  0.4019850000000 1.0
C      1  0.5891360000000  0.5432120000000  0.5138550000000 1.0
C      1  0.5941920000000  0.4913460000000  0.5069490000000 1.0
C      1  0.5147980000000  0.5908510000000  0.4728550000000 1.0
C      1  0.5492180000000  0.6003370000000  0.4930260000000 1.0
C      1  0.5250230000000  0.4707270000000  0.5980750000000 1.0
C      1  0.5858920000000  0.4767900000000  0.5534310000000 1.0
C      1  0.4006710000000  0.4928980000000  0.5563100000000 1.0
C      1  0.4190130000000  0.5655690000000  0.4358820000000 1.0
C      1  0.5950130000000  0.4908120000000  0.4551420000000 1.0
C      1  0.5841880000000  0.4263080000000  0.5087880000000 1.0
C      1  0.4570030000000  0.5159720000000  0.3934470000000 1.0
C      1  0.5882820000000  0.5171820000000  0.4448080000000 1.0
C      1  0.4956200000000  0.4970270000000  0.4706720000000 1.0
C      1  0.5033450000000  0.4459820000000  0.5412110000000 1.0
C      1  0.4846990000000  0.5096400000000  0.3875660000000 1.0
C      1  0.5403200000000  0.4537680000000  0.4714670000000 1.0
C      1  0.4769850000000  0.5167450000000  0.4802320000000 1.0
C      1  0.5649150000000  0.5663420000000  0.4639840000000 1.0
C      1  0.5472490000000  0.4190340000000  0.5450890000000 1.0
C      1  0.4635970000000  0.5768820000000  0.5544220000000 1.0
C      1  0.4673790000000  0.4353880000000  0.5068170000000 1.0
C      1  0.4589760000000  0.4219030000000  0.5371900000000 1.0
C      1  0.5658650000000  0.4626530000000  0.5374660000000 1.0
C      1  0.4541760000000  0.5087060000000  0.4959010000000 1.0
C      1  0.4680920000000  0.4164650000000  0.4842830000000 1.0
C      1  0.5943130000000  0.5311670000000  0.4878370000000 1.0
C      1  0.4532040000000  0.5370110000000  0.5894360000000 1.0
C      1  0.5067800000000  0.4325910000000  0.5671390000000 1.0
C      1  0.4505630000000  0.4615270000000  0.4692280000000 1.0
C      1  0.5155260000000  0.5373800000000  0.4536800000000 1.0
C      1  0.5034290000000  0.4851120000000  0.3948580000000 1.0
C      1  0.5409000000000  0.5879850000000  0.5544590000000 1.0
C      1  0.4049360000000  0.4397310000000  0.5012570000000 1.0
C      1  0.4986290000000  0.5158650000000  0.6092480000000 1.0
C      1  0.4244680000000  0.4162380000000  0.4967590000000 1.0
C      1  0.5195340000000  0.4567630000000  0.4909200000000 1.0
C      1  0.5648740000000  0.5470850000000  0.5828760000000 1.0
C      1  0.4416310000000  0.4159960000000  0.4713480000000 1.0
C      1  0.5119560000000  0.5954560000000  0.5503630000000 1.0
C      1  0.4773560000000  0.5375170000000  0.3918640000000 1.0
C      1  0.4137610000000  0.4879960000000  0.4532220000000 1.0
C      1  0.5346100000000  0.5277680000000  0.4909590000000 1.0
C      1  0.5850010000000  0.4371400000000  0.4588290000000 1.0
C      1  0.4249830000000  0.4898740000000  0.5749030000000 1.0
C      1  0.5550810000000  0.4968740000000  0.4253470000000 1.0
C      1  0.5525110000000  0.5351970000000  0.4108800000000 1.0
C      1  0.4720680000000  0.5103990000000  0.5610950000000 1.0
C      1  0.4490870000000  0.5891230000000  0.4982760000000 1.0
C      1  0.5408980000000  0.4016270000000  0.4691570000000 1.0
C      1  0.5379750000000  0.5043280000000  0.5594820000000 1.0
C      1  0.4274410000000  0.5997170000000  0.4900970000000 1.0
C      1  0.6030930000000  0.5031070000000  0.4821520000000 1.0
C      1  0.5962870000000  0.4976830000000  0.5350020000000 1.0
C      1  0.4396460000000  0.4087760000000  0.5198320000000 1.0
C      1  0.5068550000000  0.5975540000000  0.5220110000000 1.0
C      1  0.4340970000000  0.5187060000000  0.4126480000000 1.0
C      1  0.4105950000000  0.5484700000000  0.4613630000000 1.0
C      1  0.5211540000000  0.5476360000000  0.4767500000000 1.0
C      1  0.4658600000000  0.5676920000000  0.4327890000000 1.0
C      1  0.3977650000000  0.5004290000000  0.5049980000000 1.0
C      1  0.5482490000000  0.5704100000000  0.5318910000000 1.0
C      1  0.5416850000000  0.5048450000000  0.5309550000000 1.0
C      1  0.4984810000000  0.4453420000000  0.4565580000000 1.0
C      1  0.3951000000000  0.4836530000000  0.5295720000000 1.0
C      1  0.4458070000000  0.4989580000000  0.5543370000000 1.0
C      1  0.5024010000000  0.4849020000000  0.6088420000000 1.0
C      1  0.5388410000000  0.4549970000000  0.4208010000000 1.0
C      1  0.4899150000000  0.5818670000000  0.5655450000000 1.0
C      1  0.5686870000000  0.4121730000000  0.4650740000000 1.0
C      1  0.4578370000000  0.4347870000000  0.4258590000000 1.0
C      1  0.5203760000000  0.4417790000000  0.5162370000000 1.0
C      1  0.5796310000000  0.5375780000000  0.5613130000000 1.0
C      1  0.4944840000000  0.4197600000000  0.4703350000000 1.0
C      1  0.4984820000000  0.5662270000000  0.4854330000000 1.0
C      1  0.4819940000000  0.5612250000000  0.4090490000000 1.0
C      1  0.4453060000000  0.5952420000000  0.4689990000000 1.0
C      1  0.4580050000000  0.4402040000000  0.5673200000000 1.0
C      1  0.5213320000000  0.5520840000000  0.5638180000000 1.0
C      1  0.5357450000000  0.4326590000000  0.5684640000000 1.0
C      1  0.4788230000000  0.4021240000000  0.5289800000000 1.0
C      1  0.5509060000000  0.5109480000000  0.4741780000000 1.0
C      1  0.5871190000000  0.4454550000000  0.4867800000000 1.0
C      1  0.4518330000000  0.4829300000000  0.5084230000000 1.0
C      1  0.5708050000000  0.5827240000000  0.4898320000000 1.0
C      1  0.4099200000000  0.5431070000000  0.5352190000000 1.0
C      1  0.5020540000000  0.4788550000000  0.4905090000000 1.0
C      1  0.5694970000000  0.4753030000000  0.5778010000000 1.0
C      1  0.4274590000000  0.4531060000000  0.5417760000000 1.0
C      1  0.5233230000000  0.5531540000000  0.5321470000000 1.0
C      1  0.5384060000000  0.4996890000000  0.4495590000000 1.0
C      1  0.4830120000000  0.4428970000000  0.5822180000000 1.0
C      1  0.3998700000000  0.4865000000000  0.4795180000000 1.0
C      1  0.4928610000000  0.4783410000000  0.4211580000000 1.0
C      1  0.5454780000000  0.4572670000000  0.5837290000000 1.0
C      1  0.5089650000000  0.4969380000000  0.4443140000000 1.0
C      1  0.5750560000000  0.4032190000000  0.4928920000000 1.0
C      1  0.5331060000000  0.4014450000000  0.5245480000000 1.0
C      1  0.4769750000000  0.5299510000000  0.5397930000000 1.0
C      1  0.4973660000000  0.5705940000000  0.5162090000000 1.0
C      1  0.5260330000000  0.4506150000000  0.4478570000000 1.0
C      1  0.5694490000000  0.4332220000000  0.5330650000000 1.0
C      1  0.5649270000000  0.4687460000000  0.4232230000000 1.0
C      1  0.4558640000000  0.5451840000000  0.5246040000000 1.0
C      1  0.5522210000000  0.4818590000000  0.5198160000000 1.0
C      1  0.5725910000000  0.5672650000000  0.5152990000000 1.0
C      1  0.4616270000000  0.5465190000000  0.4534310000000 1.0
C      1  0.4738760000000  0.4615170000000  0.4534580000000 1.0
C      1  0.5228700000000  0.5209990000000  0.5944170000000 1.0
C      1  0.4954360000000  0.4866470000000  0.5167640000000 1.0
C      1  0.4220950000000  0.5457840000000  0.4140110000000 1.0
C      1  0.4364720000000  0.5141030000000  0.5921310000000 1.0
C      1  0.4385210000000  0.5302040000000  0.5069810000000 1.0
C      1  0.5219760000000  0.6063070000000  0.4968450000000 1.0
C      1  0.5602050000000  0.5030430000000  0.5787270000000 1.0
C      1  0.4359450000000  0.5318800000000  0.4569940000000 1.0
C      1  0.4684760000000  0.4633050000000  0.4248930000000 1.0
C      1  0.4796620000000  0.5449740000000  0.4745590000000 1.0
C      1  0.5260140000000  0.5416750000000  0.4085960000000 1.0
C      1  0.5743980000000  0.5344230000000  0.4658530000000 1.0
C      1  0.5644210000000  0.4874830000000  0.4949510000000 1.0
C      1  0.5432950000000  0.5672210000000  0.5754210000000 1.0
C      1  0.4229320000000  0.5526580000000  0.5544170000000 1.0
C      1  0.4793710000000  0.4163930000000  0.4257250000000 1.0
C      1  0.4657710000000  0.5730310000000  0.5240830000000 1.0
C      1  0.4843240000000  0.4702750000000  0.5918640000000 1.0
C      1  0.5123260000000  0.5098910000000  0.5696060000000 1.0
C      1  0.5649080000000  0.4637450000000  0.4811600000000 1.0
C      1  0.4994430000000  0.4030600000000  0.4335270000000 1.0
C      1  0.4436290000000  0.4780010000000  0.5345730000000 1.0
C      1  0.5740230000000  0.5191890000000  0.4184900000000 1.0
C      1  0.4973270000000  0.5570050000000  0.5799140000000 1.0
C      1  0.4945700000000  0.4727910000000  0.5405490000000 1.0
C      1  0.5130960000000  0.3999620000000  0.4574010000000 1.0
C      1  0.4016910000000  0.4570890000000  0.4785670000000 1.0
C      1  0.5048500000000  0.3996680000000  0.5266300000000 1.0
C      1  0.4422000000000  0.5823560000000  0.4419240000000 1.0
C      1  0.4905630000000  0.4884000000000  0.5655810000000 1.0
C      1  0.4827040000000  0.5364630000000  0.5959990000000 1.0
C      1  0.5933830000000  0.5277720000000  0.5394150000000 1.0
C      1  0.4027690000000  0.4541130000000  0.5260800000000 1.0
C      1  0.4307130000000  0.5079310000000  0.4410150000000 1.0
C      1  0.3958720000000  0.5504570000000  0.4844470000000 1.0
C      1  0.5521650000000  0.5238560000000  0.5970070000000 1.0
C      1  0.5332510000000  0.5282950000000  0.5180180000000 1.0
C      1  0.5102470000000  0.5271020000000  0.4319180000000 1.0
C      1  0.5108700000000  0.5679480000000  0.4100450000000 1.0
C      1  0.5372640000000  0.5826980000000  0.4553620000000 1.0
C      1  0.4557720000000  0.4593300000000  0.4957920000000 1.0
C      1  0.4371700000000  0.4308240000000  0.4466050000000 1.0
C      1  0.4063670000000  0.5297740000000  0.5083860000000 1.0
C      1  0.4448490000000  0.5602690000000  0.5696950000000 1.0
C      1  0.5840260000000  0.4644960000000  0.4453620000000 1.0
C      1  0.4351850000000  0.4569910000000  0.5695140000000 1.0
END
