TITL C-883731-9874-398 63.3625355964663 125000 -21464.2775730175 0 0 145 (C1) n - 1
REM
REM in /home/nfs/bkarasulu/CARBON/AIRSS/Generating-Clusters/ReaxFF-fromJPCA2015/Units_Real/with-SteepDescent/Only-C1/SD-CG/Try1-3A/FIRE-CG
REM
REM
REM
REM
REM
REM ./C.cell (11c1c37f851c82e70ff6c80c92926a4b)
REM
REM compiler GCC version 9.2.1 20190827 (Red Hat 9.2.1-1)
REM options -cpp -mtune=generic -march=x86-64 -g -O0 -fpre-include=/usr/include/finclude/math-vector-fortran.h
REM seed 1190257147 1115283593 737068491 -184746293 -2143696285 -1895722105 2012735960 1709354130 -511505547 -914389880 -794066960 -1232431077 -1983171617 -715266333 50791080 -1251823215 -1962279601 1759578460 -1053345578 1484861021 -266187799 -1403014213 -888607606 1640232128 421882090 -297621792 926831389 1958904814 -1512063932 -1065638017 1935209860 -878522048 -2024118487
REM
CELL 1.54180   50.00000   50.00000   50.00000   90.00000   90.00000   90.00000
LATT -1
SFAC C  
C      1  0.5811250000000  0.5336850000000  0.4425390000000 1.0
C      1  0.5108620000000  0.5228140000000  0.4842480000000 1.0
C      1  0.4494860000000  0.5974710000000  0.4817860000000 1.0
C      1  0.4870540000000  0.5033360000000  0.5288590000000 1.0
C      1  0.4092570000000  0.4901210000000  0.5270310000000 1.0
C      1  0.5324710000000  0.5038890000000  0.5277960000000 1.0
C      1  0.4994120000000  0.5028800000000  0.3994350000000 1.0
C      1  0.4844700000000  0.4994670000000  0.6006210000000 1.0
C      1  0.4509020000000  0.4721080000000  0.4118720000000 1.0
C      1  0.4782580000000  0.4322940000000  0.5777250000000 1.0
C      1  0.4389200000000  0.5730590000000  0.5275840000000 1.0
C      1  0.5809600000000  0.5565430000000  0.5135250000000 1.0
C      1  0.4780200000000  0.5552650000000  0.4468090000000 1.0
C      1  0.4619050000000  0.4272920000000  0.5546880000000 1.0
C      1  0.4322990000000  0.4201200000000  0.5043820000000 1.0
C      1  0.4878860000000  0.5427790000000  0.4782760000000 1.0
C      1  0.5393230000000  0.4846300000000  0.4740670000000 1.0
C      1  0.5729490000000  0.4490670000000  0.4695990000000 1.0
C      1  0.4745990000000  0.4041350000000  0.4912510000000 1.0
C      1  0.5712710000000  0.4849680000000  0.4298700000000 1.0
C      1  0.5239580000000  0.4218860000000  0.5549090000000 1.0
C      1  0.5271290000000  0.5762260000000  0.5673680000000 1.0
C      1  0.5082870000000  0.5149090000000  0.5661650000000 1.0
C      1  0.4354770000000  0.5956450000000  0.5075080000000 1.0
C      1  0.4770140000000  0.4815290000000  0.3976660000000 1.0
C      1  0.4870800000000  0.5874490000000  0.5344920000000 1.0
C      1  0.4439440000000  0.5240920000000  0.5137820000000 1.0
C      1  0.5486770000000  0.4933260000000  0.4476580000000 1.0
C      1  0.4009380000000  0.5141510000000  0.4601230000000 1.0
C      1  0.5694550000000  0.4862510000000  0.5761970000000 1.0
C      1  0.4740530000000  0.4688180000000  0.4858320000000 1.0
C      1  0.5193400000000  0.4091500000000  0.4701230000000 1.0
C      1  0.5130680000000  0.4957020000000  0.4757340000000 1.0
C      1  0.5792670000000  0.5054190000000  0.4723480000000 1.0
C      1  0.4863240000000  0.4438850000000  0.4917300000000 1.0
C      1  0.5986540000000  0.4894420000000  0.4873580000000 1.0
C      1  0.4935350000000  0.5325040000000  0.4050660000000 1.0
C      1  0.4370510000000  0.5719580000000  0.4707620000000 1.0
C      1  0.5493850000000  0.5752370000000  0.4530590000000 1.0
C      1  0.5112810000000  0.4266710000000  0.4262760000000 1.0
C      1  0.4548350000000  0.4858890000000  0.4987340000000 1.0
C      1  0.4560320000000  0.4741500000000  0.5793560000000 1.0
C      1  0.4658330000000  0.4565530000000  0.4456980000000 1.0
C      1  0.4040650000000  0.5138320000000  0.5116350000000 1.0
C      1  0.5588610000000  0.5485940000000  0.5322480000000 1.0
C      1  0.4873390000000  0.4422220000000  0.5196550000000 1.0
C      1  0.5805310000000  0.5005790000000  0.5273490000000 1.0
C      1  0.4903030000000  0.5937860000000  0.4563500000000 1.0
C      1  0.5289230000000  0.3985540000000  0.4972300000000 1.0
C      1  0.5890830000000  0.5478310000000  0.4673300000000 1.0
C      1  0.4954670000000  0.4761400000000  0.4711500000000 1.0
C      1  0.4694140000000  0.4542380000000  0.5955260000000 1.0
C      1  0.5307510000000  0.4709130000000  0.5227760000000 1.0
C      1  0.5540930000000  0.4554090000000  0.5357250000000 1.0
C      1  0.5606120000000  0.4582180000000  0.4254150000000 1.0
C      1  0.5916210000000  0.4209720000000  0.5417020000000 1.0
C      1  0.4322540000000  0.4656920000000  0.5651160000000 1.0
C      1  0.4782780000000  0.5079090000000  0.4470690000000 1.0
C      1  0.5401690000000  0.5616420000000  0.4279590000000 1.0
C      1  0.4931870000000  0.4834540000000  0.5480090000000 1.0
C      1  0.4633600000000  0.5266170000000  0.4013420000000 1.0
C      1  0.5378260000000  0.4675390000000  0.4095180000000 1.0
C      1  0.4374010000000  0.5080280000000  0.4905240000000 1.0
C      1  0.4206320000000  0.5538810000000  0.4867010000000 1.0
C      1  0.4873880000000  0.5578140000000  0.5044050000000 1.0
C      1  0.5390500000000  0.4786150000000  0.5751230000000 1.0
C      1  0.5376550000000  0.5132770000000  0.4290110000000 1.0
C      1  0.5755540000000  0.5737930000000  0.4669280000000 1.0
C      1  0.4138370000000  0.4713720000000  0.4765810000000 1.0
C      1  0.5545800000000  0.4061840000000  0.5079300000000 1.0
C      1  0.4888350000000  0.5862630000000  0.5053750000000 1.0
C      1  0.5685500000000  0.4088500000000  0.5344470000000 1.0
C      1  0.5564880000000  0.5283290000000  0.5605590000000 1.0
C      1  0.5367170000000  0.5367930000000  0.4778450000000 1.0
C      1  0.5234340000000  0.5581420000000  0.5884290000000 1.0
C      1  0.5439250000000  0.5810660000000  0.5009090000000 1.0
C      1  0.4531210000000  0.5564830000000  0.5659800000000 1.0
C      1  0.4949310000000  0.5786950000000  0.4331090000000 1.0
C      1  0.4568460000000  0.4434220000000  0.4229890000000 1.0
C      1  0.4367880000000  0.5120040000000  0.5680450000000 1.0
C      1  0.5175290000000  0.4465940000000  0.4042260000000 1.0
C      1  0.4972530000000  0.5390560000000  0.5548320000000 1.0
C      1  0.5310650000000  0.4233220000000  0.4485170000000 1.0
C      1  0.4151400000000  0.4889530000000  0.4522110000000 1.0
C      1  0.4986040000000  0.5417930000000  0.5265660000000 1.0
C      1  0.5162080000000  0.4606430000000  0.5873050000000 1.0
C      1  0.4486570000000  0.5602390000000  0.4466700000000 1.0
C      1  0.4423630000000  0.5250010000000  0.4680440000000 1.0
C      1  0.5389260000000  0.5707540000000  0.5278220000000 1.0
C      1  0.5373120000000  0.5150760000000  0.6050070000000 1.0
C      1  0.4381990000000  0.4427580000000  0.5481810000000 1.0
C      1  0.5300410000000  0.4184750000000  0.5136970000000 1.0
C      1  0.5259170000000  0.4953600000000  0.4086080000000 1.0
C      1  0.4618150000000  0.5759800000000  0.5454120000000 1.0
C      1  0.4340270000000  0.4902120000000  0.4272180000000 1.0
C      1  0.4325780000000  0.5383060000000  0.5561340000000 1.0
C      1  0.4917130000000  0.4178880000000  0.4747570000000 1.0
C      1  0.4750200000000  0.4743350000000  0.5601210000000 1.0
C      1  0.4785010000000  0.4157530000000  0.5308810000000 1.0
C      1  0.4411220000000  0.5170620000000  0.4168770000000 1.0
C      1  0.5567590000000  0.5183020000000  0.5166860000000 1.0
C      1  0.5877410000000  0.4615960000000  0.4896540000000 1.0
C      1  0.4816850000000  0.4254090000000  0.4251910000000 1.0
C      1  0.4698130000000  0.5207120000000  0.4710770000000 1.0
C      1  0.5125580000000  0.5602800000000  0.4193180000000 1.0
C      1  0.5879850000000  0.5053350000000  0.4437770000000 1.0
C      1  0.5573140000000  0.4392570000000  0.4483250000000 1.0
C      1  0.4205490000000  0.4504270000000  0.4642060000000 1.0
C      1  0.4930730000000  0.4710600000000  0.6013680000000 1.0
C      1  0.5525120000000  0.4906650000000  0.5991810000000 1.0
C      1  0.5115280000000  0.4101170000000  0.5322980000000 1.0
C      1  0.4893100000000  0.5306200000000  0.4348680000000 1.0
C      1  0.5162750000000  0.5841470000000  0.5430200000000 1.0
C      1  0.5031660000000  0.4622890000000  0.5327120000000 1.0
C      1  0.4276890000000  0.5447290000000  0.5273540000000 1.0
C      1  0.5083260000000  0.5170400000000  0.5163840000000 1.0
C      1  0.5952710000000  0.5384890000000  0.4954270000000 1.0
C      1  0.4947300000000  0.4614130000000  0.3989370000000 1.0
C      1  0.4829580000000  0.4791810000000  0.4475250000000 1.0
C      1  0.4223700000000  0.4905590000000  0.5551890000000 1.0
C      1  0.4144790000000  0.4682240000000  0.5090420000000 1.0
C      1  0.5764700000000  0.5066070000000  0.5570480000000 1.0
C      1  0.4684850000000  0.5419260000000  0.5860810000000 1.0
C      1  0.4595400000000  0.5015370000000  0.5226160000000 1.0
C      1  0.5723840000000  0.5785620000000  0.4960770000000 1.0
C      1  0.5466950000000  0.4704740000000  0.4976290000000 1.0
C      1  0.5556230000000  0.5365690000000  0.4277790000000 1.0
C      1  0.4564830000000  0.4036980000000  0.5110540000000 1.0
C      1  0.5329750000000  0.5060500000000  0.5559300000000 1.0
C      1  0.5088760000000  0.5147960000000  0.5961580000000 1.0
C      1  0.4941450000000  0.5547170000000  0.5795190000000 1.0
C      1  0.5520870000000  0.4306850000000  0.5500390000000 1.0
C      1  0.4793640000000  0.6014640000000  0.4808500000000 1.0
C      1  0.5580660000000  0.5198700000000  0.4869950000000 1.0
C      1  0.5444550000000  0.5370830000000  0.5874770000000 1.0
C      1  0.4610570000000  0.5130760000000  0.5872980000000 1.0
C      1  0.5079190000000  0.4356900000000  0.5756110000000 1.0
C      1  0.4317570000000  0.5369020000000  0.4403630000000 1.0
C      1  0.6001260000000  0.5113010000000  0.5066780000000 1.0
C      1  0.4044060000000  0.5303450000000  0.4885650000000 1.0
C      1  0.3989150000000  0.5357830000000  0.4417250000000 1.0
C      1  0.4264830000000  0.4315460000000  0.4797720000000 1.0
C      1  0.5713140000000  0.4692380000000  0.5149190000000 1.0
C      1  0.5346300000000  0.5663470000000  0.4765230000000 1.0
C      1  0.4257490000000  0.4444050000000  0.5207670000000 1.0
END
