TITL C-884142-5251-101 80.7563601825108 125000 -23465.6094761829 0 0 156 (C1) n - 1
REM
REM in /home/nfs/bkarasulu/CARBON/AIRSS/Generating-Clusters/ReaxFF-fromJPCA2015/Units_Real/with-SteepDescent/Only-C1/SD-CG/Try1-3A/FIRE-CG
REM
REM
REM
REM
REM
REM ./C.cell (11c1c37f851c82e70ff6c80c92926a4b)
REM
REM compiler GCC version 9.2.1 20190827 (Red Hat 9.2.1-1)
REM options -cpp -mtune=generic -march=x86-64 -g -O0 -fpre-include=/usr/include/finclude/math-vector-fortran.h
REM seed -1312010703 -682723446 1663901264 -332814411 -910695035 -1042647392 -251238492 -1869878150 1998314155 -369219319 -2116171567 323336999 1129523575 -1660017543 -2075814565 1451584507 791862760 990437287 -943607367 1353093069 317489755 127241898 -1369890840 681269236 100932016 -1375554158 1922893631 -1009359777 1249406932 6496703 -454833254 264942161 832490707
REM
CELL 1.54180   50.00000   50.00000   50.00000   90.00000   90.00000   90.00000
LATT -1
SFAC C  
C      1  0.5162460000000  0.5503150000000  0.4130110000000 1.0
C      1  0.4336660000000  0.4777060000000  0.6003660000000 1.0
C      1  0.5405340000000  0.5914030000000  0.4912880000000 1.0
C      1  0.5601050000000  0.5230380000000  0.4181520000000 1.0
C      1  0.5635570000000  0.5518310000000  0.5627090000000 1.0
C      1  0.5191500000000  0.4978260000000  0.5977290000000 1.0
C      1  0.5359820000000  0.4288440000000  0.5476850000000 1.0
C      1  0.4072450000000  0.4729230000000  0.4507790000000 1.0
C      1  0.5075870000000  0.5493700000000  0.6003520000000 1.0
C      1  0.5789700000000  0.5653970000000  0.4919900000000 1.0
C      1  0.5263690000000  0.4980750000000  0.5432720000000 1.0
C      1  0.5244320000000  0.4188560000000  0.4541180000000 1.0
C      1  0.5633830000000  0.4240240000000  0.5298140000000 1.0
C      1  0.5975380000000  0.4910360000000  0.4954420000000 1.0
C      1  0.4877210000000  0.4209090000000  0.5669920000000 1.0
C      1  0.5985360000000  0.5116050000000  0.5586400000000 1.0
C      1  0.5690680000000  0.4526720000000  0.4457590000000 1.0
C      1  0.4015260000000  0.4738130000000  0.5682650000000 1.0
C      1  0.5938030000000  0.4855360000000  0.4475920000000 1.0
C      1  0.4088180000000  0.5019970000000  0.5671450000000 1.0
C      1  0.4244810000000  0.5730390000000  0.5164540000000 1.0
C      1  0.4114800000000  0.5212060000000  0.5175650000000 1.0
C      1  0.5282500000000  0.5275820000000  0.5901320000000 1.0
C      1  0.5904480000000  0.5394600000000  0.4885470000000 1.0
C      1  0.4690980000000  0.5542980000000  0.4639990000000 1.0
C      1  0.5125540000000  0.4124260000000  0.5548420000000 1.0
C      1  0.5200690000000  0.5052240000000  0.3960960000000 1.0
C      1  0.4796070000000  0.4162390000000  0.4396090000000 1.0
C      1  0.5980670000000  0.5293010000000  0.5357190000000 1.0
C      1  0.4127490000000  0.5079790000000  0.4886960000000 1.0
C      1  0.5005060000000  0.4942350000000  0.5291950000000 1.0
C      1  0.4311800000000  0.4101910000000  0.5216530000000 1.0
C      1  0.4734410000000  0.5103210000000  0.6065950000000 1.0
C      1  0.4941300000000  0.5792270000000  0.5632290000000 1.0
C      1  0.5780380000000  0.5120070000000  0.5808530000000 1.0
C      1  0.4786280000000  0.4192790000000  0.5164560000000 1.0
C      1  0.4943590000000  0.4199110000000  0.4150770000000 1.0
C      1  0.5489740000000  0.5226430000000  0.4774440000000 1.0
C      1  0.4867160000000  0.5646530000000  0.5846780000000 1.0
C      1  0.5322430000000  0.5134120000000  0.4563190000000 1.0
C      1  0.5390720000000  0.4497790000000  0.4953230000000 1.0
C      1  0.4279360000000  0.5798400000000  0.4876720000000 1.0
C      1  0.4900960000000  0.5095590000000  0.4038170000000 1.0
C      1  0.5797610000000  0.4736940000000  0.4272120000000 1.0
C      1  0.5279920000000  0.3975190000000  0.4980670000000 1.0
C      1  0.5094700000000  0.5271290000000  0.4450800000000 1.0
C      1  0.4983500000000  0.4485990000000  0.4094380000000 1.0
C      1  0.5241080000000  0.4588540000000  0.4182870000000 1.0
C      1  0.4027170000000  0.5034400000000  0.5380870000000 1.0
C      1  0.4684280000000  0.4657130000000  0.4583040000000 1.0
C      1  0.4376850000000  0.4347260000000  0.4443190000000 1.0
C      1  0.5777440000000  0.5273290000000  0.4658900000000 1.0
C      1  0.5633760000000  0.4721430000000  0.5558880000000 1.0
C      1  0.4779400000000  0.4714860000000  0.5755150000000 1.0
C      1  0.4696260000000  0.4435410000000  0.5730240000000 1.0
C      1  0.3961340000000  0.4967510000000  0.4657550000000 1.0
C      1  0.5071040000000  0.5171160000000  0.5082540000000 1.0
C      1  0.4636370000000  0.5506000000000  0.4123950000000 1.0
C      1  0.4613230000000  0.4903200000000  0.5582070000000 1.0
C      1  0.4245420000000  0.5454770000000  0.5284350000000 1.0
C      1  0.4873720000000  0.5987570000000  0.4256470000000 1.0
C      1  0.5430500000000  0.4068220000000  0.4749230000000 1.0
C      1  0.4628010000000  0.5175810000000  0.5130380000000 1.0
C      1  0.5348780000000  0.5285870000000  0.4032530000000 1.0
C      1  0.5023740000000  0.4126220000000  0.4964120000000 1.0
C      1  0.4923130000000  0.5161960000000  0.4820180000000 1.0
C      1  0.5588930000000  0.5336130000000  0.5840490000000 1.0
C      1  0.4708340000000  0.6028100000000  0.4632160000000 1.0
C      1  0.5581630000000  0.5759470000000  0.4740350000000 1.0
C      1  0.4757480000000  0.4363850000000  0.4609190000000 1.0
C      1  0.4252010000000  0.5171020000000  0.4010780000000 1.0
C      1  0.5266520000000  0.4889740000000  0.4708050000000 1.0
C      1  0.4188510000000  0.5317280000000  0.4668580000000 1.0
C      1  0.5972280000000  0.5186700000000  0.5073570000000 1.0
C      1  0.4002930000000  0.4727630000000  0.5388810000000 1.0
C      1  0.5283910000000  0.5707220000000  0.4315830000000 1.0
C      1  0.5700250000000  0.4932640000000  0.5352480000000 1.0
C      1  0.4440650000000  0.4496550000000  0.4216130000000 1.0
C      1  0.4541450000000  0.4051920000000  0.5082580000000 1.0
C      1  0.5390640000000  0.4478700000000  0.4426710000000 1.0
C      1  0.5832720000000  0.4457470000000  0.5216020000000 1.0
C      1  0.4483900000000  0.5803340000000  0.5322390000000 1.0
C      1  0.5033730000000  0.5622550000000  0.5203840000000 1.0
C      1  0.4598540000000  0.5110320000000  0.4834230000000 1.0
C      1  0.4480230000000  0.5328290000000  0.4651240000000 1.0
C      1  0.5001650000000  0.6039900000000  0.4645580000000 1.0
C      1  0.5019900000000  0.5869630000000  0.5381840000000 1.0
C      1  0.4218720000000  0.4557950000000  0.5290830000000 1.0
C      1  0.4640690000000  0.5447740000000  0.5700240000000 1.0
C      1  0.4173120000000  0.5583160000000  0.4738630000000 1.0
C      1  0.5498930000000  0.4038490000000  0.5156490000000 1.0
C      1  0.4406530000000  0.5334350000000  0.4050770000000 1.0
C      1  0.5995400000000  0.5019320000000  0.4684800000000 1.0
C      1  0.4938730000000  0.6022310000000  0.5136870000000 1.0
C      1  0.4888610000000  0.4089550000000  0.5420130000000 1.0
C      1  0.5194020000000  0.5271960000000  0.5607310000000 1.0
C      1  0.5873980000000  0.4628720000000  0.4970330000000 1.0
C      1  0.4898180000000  0.4828470000000  0.4478230000000 1.0
C      1  0.5370420000000  0.5187710000000  0.5023520000000 1.0
C      1  0.5525030000000  0.5642550000000  0.4470660000000 1.0
C      1  0.4888700000000  0.5300860000000  0.5527490000000 1.0
C      1  0.4282790000000  0.4309660000000  0.5427070000000 1.0
C      1  0.5676460000000  0.5404800000000  0.4401830000000 1.0
C      1  0.4914820000000  0.4882770000000  0.5957710000000 1.0
C      1  0.4995360000000  0.4902400000000  0.4738430000000 1.0
C      1  0.5979760000000  0.4884370000000  0.5407270000000 1.0
C      1  0.5400890000000  0.5429570000000  0.5459140000000 1.0
C      1  0.5361510000000  0.4715250000000  0.5440620000000 1.0
C      1  0.4584960000000  0.5845700000000  0.4838150000000 1.0
C      1  0.4733910000000  0.4514260000000  0.5163260000000 1.0
C      1  0.5126740000000  0.5949730000000  0.4371300000000 1.0
C      1  0.5256300000000  0.4529990000000  0.5240080000000 1.0
C      1  0.5388150000000  0.4488490000000  0.6005210000000 1.0
C      1  0.5356370000000  0.4826050000000  0.4054690000000 1.0
C      1  0.4246180000000  0.4704740000000  0.4257530000000 1.0
C      1  0.5768670000000  0.5725510000000  0.5202020000000 1.0
C      1  0.4879140000000  0.5364260000000  0.5229760000000 1.0
C      1  0.5054930000000  0.4066230000000  0.4367680000000 1.0
C      1  0.5612620000000  0.4938740000000  0.4146870000000 1.0
C      1  0.5911830000000  0.4600060000000  0.5451720000000 1.0
C      1  0.5649630000000  0.4865110000000  0.5841000000000 1.0
C      1  0.5587550000000  0.4298800000000  0.4853590000000 1.0
C      1  0.4375450000000  0.4917400000000  0.4087020000000 1.0
C      1  0.4326280000000  0.4116000000000  0.4928880000000 1.0
C      1  0.4266400000000  0.4308470000000  0.4704030000000 1.0
C      1  0.4537470000000  0.5247430000000  0.5899420000000 1.0
C      1  0.4659640000000  0.4871850000000  0.4022000000000 1.0
C      1  0.5503110000000  0.5137120000000  0.5284550000000 1.0
C      1  0.4895260000000  0.5406950000000  0.4052580000000 1.0
C      1  0.4671450000000  0.5908600000000  0.5112830000000 1.0
C      1  0.4154800000000  0.4577100000000  0.4740760000000 1.0
C      1  0.5125740000000  0.6008780000000  0.4901010000000 1.0
C      1  0.5492670000000  0.5815160000000  0.5174890000000 1.0
C      1  0.4530600000000  0.4834540000000  0.4738840000000 1.0
C      1  0.4713240000000  0.4610180000000  0.4083400000000 1.0
C      1  0.5843260000000  0.5547490000000  0.5422110000000 1.0
C      1  0.4408430000000  0.4383270000000  0.5683840000000 1.0
C      1  0.4227130000000  0.4572080000000  0.5834370000000 1.0
C      1  0.5380440000000  0.4372110000000  0.5748700000000 1.0
C      1  0.4964770000000  0.4637540000000  0.5214240000000 1.0
C      1  0.4534570000000  0.4956150000000  0.5271080000000 1.0
C      1  0.4614670000000  0.5942500000000  0.4362680000000 1.0
C      1  0.5787990000000  0.4480930000000  0.4730380000000 1.0
C      1  0.4951120000000  0.5396340000000  0.4652080000000 1.0
C      1  0.4877310000000  0.5338930000000  0.6118580000000 1.0
C      1  0.4457550000000  0.5551960000000  0.5478550000000 1.0
C      1  0.4304380000000  0.4777080000000  0.4878050000000 1.0
C      1  0.5316330000000  0.5607370000000  0.5254800000000 1.0
C      1  0.4589510000000  0.5648330000000  0.4379130000000 1.0
C      1  0.5360710000000  0.4620590000000  0.4705330000000 1.0
C      1  0.5008670000000  0.4280340000000  0.4739140000000 1.0
C      1  0.5416560000000  0.4806510000000  0.5996470000000 1.0
C      1  0.4933030000000  0.5070300000000  0.4332630000000 1.0
C      1  0.4370640000000  0.5020800000000  0.5796220000000 1.0
C      1  0.4462530000000  0.4675780000000  0.5150530000000 1.0
C      1  0.4841560000000  0.5036050000000  0.5503660000000 1.0
END
