TITL C-884132-5695-378 37.3085721753884 125000 -22181.7816854524 0 0 151 (C1) n - 1
REM
REM in /home/nfs/bkarasulu/CARBON/AIRSS/Generating-Clusters/ReaxFF-fromJPCA2015/Units_Real/with-SteepDescent/Only-C1/SD-CG/Try1-3A/FIRE-CG
REM
REM
REM
REM
REM
REM ./C.cell (11c1c37f851c82e70ff6c80c92926a4b)
REM
REM compiler GCC version 9.2.1 20190827 (Red Hat 9.2.1-1)
REM options -cpp -mtune=generic -march=x86-64 -g -O0 -fpre-include=/usr/include/finclude/math-vector-fortran.h
REM seed 742943872 1913797431 198212663 -1105507228 1862665737 -2008916522 -593384293 1335277016 -1304135327 1271102365 790314237 -1916818922 196791387 -1656122052 -2041621849 -871612415 -1884760852 -1372475850 -932679020 1735952042 -1015822692 -994419151 739089424 265386797 722759318 -551643965 658324665 -1211294071 1517061837 1507263905 220355824 605190111 -1812741302
REM
CELL 1.54180   50.00000   50.00000   50.00000   90.00000   90.00000   90.00000
LATT -1
SFAC C  
C      1  0.4925090000000  0.5156260000000  0.5725520000000 1.0
C      1  0.4180180000000  0.5313820000000  0.5290910000000 1.0
C      1  0.4658830000000  0.5969230000000  0.4735210000000 1.0
C      1  0.5169600000000  0.4947110000000  0.6058850000000 1.0
C      1  0.4788710000000  0.5492250000000  0.5062970000000 1.0
C      1  0.5517730000000  0.5054220000000  0.5735670000000 1.0
C      1  0.5831070000000  0.4651970000000  0.4759920000000 1.0
C      1  0.5099950000000  0.5379150000000  0.5809920000000 1.0
C      1  0.5852180000000  0.4867780000000  0.4958820000000 1.0
C      1  0.5757900000000  0.5609010000000  0.4749680000000 1.0
C      1  0.5582170000000  0.5736620000000  0.4487570000000 1.0
C      1  0.4596130000000  0.4126520000000  0.4541370000000 1.0
C      1  0.4078300000000  0.4806310000000  0.4386370000000 1.0
C      1  0.5865870000000  0.5310770000000  0.5429750000000 1.0
C      1  0.5406480000000  0.4039350000000  0.5167700000000 1.0
C      1  0.5515400000000  0.5531120000000  0.5583480000000 1.0
C      1  0.5295130000000  0.5753730000000  0.4469360000000 1.0
C      1  0.4525120000000  0.5011970000000  0.5485420000000 1.0
C      1  0.4899350000000  0.5377150000000  0.4682490000000 1.0
C      1  0.5320950000000  0.4405420000000  0.4258190000000 1.0
C      1  0.4745930000000  0.5472960000000  0.4129500000000 1.0
C      1  0.5149800000000  0.5345800000000  0.5360210000000 1.0
C      1  0.5170970000000  0.5868030000000  0.5534940000000 1.0
C      1  0.5350850000000  0.5346300000000  0.4941110000000 1.0
C      1  0.4571720000000  0.4546830000000  0.5200060000000 1.0
C      1  0.4743760000000  0.4033520000000  0.5378300000000 1.0
C      1  0.4902820000000  0.6016250000000  0.5125840000000 1.0
C      1  0.5674620000000  0.5240640000000  0.4578980000000 1.0
C      1  0.4778980000000  0.4659560000000  0.4167700000000 1.0
C      1  0.4277980000000  0.4637600000000  0.5730000000000 1.0
C      1  0.5548740000000  0.5052820000000  0.4178210000000 1.0
C      1  0.5509670000000  0.4286730000000  0.5334480000000 1.0
C      1  0.4136770000000  0.4685660000000  0.5001020000000 1.0
C      1  0.5735020000000  0.4832320000000  0.4253930000000 1.0
C      1  0.6121740000000  0.5115910000000  0.5185140000000 1.0
C      1  0.5262380000000  0.4460210000000  0.4977870000000 1.0
C      1  0.4284720000000  0.5202020000000  0.4362780000000 1.0
C      1  0.5075090000000  0.4614010000000  0.4811230000000 1.0
C      1  0.4770090000000  0.4931180000000  0.4543530000000 1.0
C      1  0.4725460000000  0.3989010000000  0.4956690000000 1.0
C      1  0.4634360000000  0.5922820000000  0.5201390000000 1.0
C      1  0.5667210000000  0.4752920000000  0.4531320000000 1.0
C      1  0.5089030000000  0.4309970000000  0.5188140000000 1.0
C      1  0.3824360000000  0.5242940000000  0.4952900000000 1.0
C      1  0.4296140000000  0.5586520000000  0.5256170000000 1.0
C      1  0.4492410000000  0.4990240000000  0.5798260000000 1.0
C      1  0.5848930000000  0.4728760000000  0.5466590000000 1.0
C      1  0.5025300000000  0.5383350000000  0.4089300000000 1.0
C      1  0.6091460000000  0.5241190000000  0.4821150000000 1.0
C      1  0.5141200000000  0.4089670000000  0.4672470000000 1.0
C      1  0.4895370000000  0.5031450000000  0.6008150000000 1.0
C      1  0.5428930000000  0.4537040000000  0.5204260000000 1.0
C      1  0.5828680000000  0.5538850000000  0.5256030000000 1.0
C      1  0.5653760000000  0.5904330000000  0.5175590000000 1.0
C      1  0.4261740000000  0.4770680000000  0.4162980000000 1.0
C      1  0.5696360000000  0.4568140000000  0.4157590000000 1.0
C      1  0.5546500000000  0.4985060000000  0.4655830000000 1.0
C      1  0.4660100000000  0.5208340000000  0.4019680000000 1.0
C      1  0.5239630000000  0.5536950000000  0.5586120000000 1.0
C      1  0.5821860000000  0.5719550000000  0.5029320000000 1.0
C      1  0.5289430000000  0.5162740000000  0.5927960000000 1.0
C      1  0.5376990000000  0.4051810000000  0.4878900000000 1.0
C      1  0.4980630000000  0.5818490000000  0.5725070000000 1.0
C      1  0.4644510000000  0.4884850000000  0.4293440000000 1.0
C      1  0.5688610000000  0.5602690000000  0.4248230000000 1.0
C      1  0.4953700000000  0.4781490000000  0.5325150000000 1.0
C      1  0.5390430000000  0.6012130000000  0.5112990000000 1.0
C      1  0.4335150000000  0.5195360000000  0.5029920000000 1.0
C      1  0.4092960000000  0.5239840000000  0.4777500000000 1.0
C      1  0.5356860000000  0.5598800000000  0.5080280000000 1.0
C      1  0.4126080000000  0.4535200000000  0.5232190000000 1.0
C      1  0.4221650000000  0.5015820000000  0.5437700000000 1.0
C      1  0.5572890000000  0.5393130000000  0.4779320000000 1.0
C      1  0.5473310000000  0.4801330000000  0.5306950000000 1.0
C      1  0.3902560000000  0.5284410000000  0.5156580000000 1.0
C      1  0.4925910000000  0.6036570000000  0.4829880000000 1.0
C      1  0.4620390000000  0.5326250000000  0.4682010000000 1.0
C      1  0.5519420000000  0.4383080000000  0.5604400000000 1.0
C      1  0.4322650000000  0.4497600000000  0.4253720000000 1.0
C      1  0.4928480000000  0.5112320000000  0.4000240000000 1.0
C      1  0.5109590000000  0.4943230000000  0.5134940000000 1.0
C      1  0.4563500000000  0.4332920000000  0.4331420000000 1.0
C      1  0.4615440000000  0.4380330000000  0.5737880000000 1.0
C      1  0.4479210000000  0.5902150000000  0.4962830000000 1.0
C      1  0.5662230000000  0.5299090000000  0.5627310000000 1.0
C      1  0.4764420000000  0.5746220000000  0.4579580000000 1.0
C      1  0.4805080000000  0.4474570000000  0.4411270000000 1.0
C      1  0.5030810000000  0.4445940000000  0.6114070000000 1.0
C      1  0.4863480000000  0.5363170000000  0.5317290000000 1.0
C      1  0.4577780000000  0.4888050000000  0.4751530000000 1.0
C      1  0.4846840000000  0.4043330000000  0.4692270000000 1.0
C      1  0.4786970000000  0.4272150000000  0.5523330000000 1.0
C      1  0.4784620000000  0.4571550000000  0.5909900000000 1.0
C      1  0.4673820000000  0.4850300000000  0.5976230000000 1.0
C      1  0.5065630000000  0.4876460000000  0.5589250000000 1.0
C      1  0.5948390000000  0.5384910000000  0.4647120000000 1.0
C      1  0.5113350000000  0.4871510000000  0.4878300000000 1.0
C      1  0.5137310000000  0.4021280000000  0.5262030000000 1.0
C      1  0.5034210000000  0.4653090000000  0.5762750000000 1.0
C      1  0.5915940000000  0.5040860000000  0.5348690000000 1.0
C      1  0.5232160000000  0.4633230000000  0.5985430000000 1.0
C      1  0.4834630000000  0.4510170000000  0.4700270000000 1.0
C      1  0.4987800000000  0.4795430000000  0.4018420000000 1.0
C      1  0.5751930000000  0.4469990000000  0.4962170000000 1.0
C      1  0.5090790000000  0.5019070000000  0.4483730000000 1.0
C      1  0.4844820000000  0.5601900000000  0.5827110000000 1.0
C      1  0.4121700000000  0.4524390000000  0.4455060000000 1.0
C      1  0.4632280000000  0.5651820000000  0.5648800000000 1.0
C      1  0.4508260000000  0.5729300000000  0.5405010000000 1.0
C      1  0.4715570000000  0.5223930000000  0.5531130000000 1.0
C      1  0.4399760000000  0.5440930000000  0.4504930000000 1.0
C      1  0.5267810000000  0.5818410000000  0.4932190000000 1.0
C      1  0.5267580000000  0.5025530000000  0.4717780000000 1.0
C      1  0.5575450000000  0.4308710000000  0.4103250000000 1.0
C      1  0.4208350000000  0.5507130000000  0.4750040000000 1.0
C      1  0.4281710000000  0.5676120000000  0.4974880000000 1.0
C      1  0.4933230000000  0.5615480000000  0.4840000000000 1.0
C      1  0.4628520000000  0.5610360000000  0.4366810000000 1.0
C      1  0.5150790000000  0.6015700000000  0.5287440000000 1.0
C      1  0.5687710000000  0.4744200000000  0.5707140000000 1.0
C      1  0.5309200000000  0.4288280000000  0.4533870000000 1.0
C      1  0.4600890000000  0.4465350000000  0.4923870000000 1.0
C      1  0.5346260000000  0.4920810000000  0.5537450000000 1.0
C      1  0.4640830000000  0.4825430000000  0.5257400000000 1.0
C      1  0.4362330000000  0.4637450000000  0.4824890000000 1.0
C      1  0.4103890000000  0.4809690000000  0.5261210000000 1.0
C      1  0.5225190000000  0.4670620000000  0.4137740000000 1.0
C      1  0.5665160000000  0.4969980000000  0.5163440000000 1.0
C      1  0.5490410000000  0.4304380000000  0.4786320000000 1.0
C      1  0.4554130000000  0.5379050000000  0.4945070000000 1.0
C      1  0.5232960000000  0.5476900000000  0.4306820000000 1.0
C      1  0.5538280000000  0.5332740000000  0.4277040000000 1.0
C      1  0.4876690000000  0.3879300000000  0.5190210000000 1.0
C      1  0.5515190000000  0.4548180000000  0.5819990000000 1.0
C      1  0.4354190000000  0.4394560000000  0.5614620000000 1.0
C      1  0.5081980000000  0.5302630000000  0.4487010000000 1.0
C      1  0.4495990000000  0.4175520000000  0.4983040000000 1.0
C      1  0.4416780000000  0.5035540000000  0.4162740000000 1.0
C      1  0.6099900000000  0.5028180000000  0.4956110000000 1.0
C      1  0.4537650000000  0.4982360000000  0.5018550000000 1.0
C      1  0.5296080000000  0.4930150000000  0.4249630000000 1.0
C      1  0.5572180000000  0.5649860000000  0.5333860000000 1.0
C      1  0.5298710000000  0.5165660000000  0.5182780000000 1.0
C      1  0.4215050000000  0.4431960000000  0.4693560000000 1.0
C      1  0.5836450000000  0.4538390000000  0.5239670000000 1.0
C      1  0.4217620000000  0.4909250000000  0.5731290000000 1.0
C      1  0.4357410000000  0.4387320000000  0.5304130000000 1.0
C      1  0.4109560000000  0.5069930000000  0.4514320000000 1.0
C      1  0.5156290000000  0.5901550000000  0.4680280000000 1.0
C      1  0.4953320000000  0.4466310000000  0.5353930000000 1.0
C      1  0.4370810000000  0.4180000000000  0.4723220000000 1.0
END
