TITL C-883740-3686-277 3.12612089131638 125000 -3826.36924657624 0 0 27 (C1) n - 1
REM
REM in /home/nfs/bkarasulu/CARBON/AIRSS/Generating-Clusters/ReaxFF-fromJPCA2015/Units_Real/with-SteepDescent/Only-C1/SD-CG/Try1-3A/FIRE-CG
REM
REM
REM
REM
REM
REM ./C.cell (11c1c37f851c82e70ff6c80c92926a4b)
REM
REM compiler GCC version 9.2.1 20190827 (Red Hat 9.2.1-1)
REM options -cpp -mtune=generic -march=x86-64 -g -O0 -fpre-include=/usr/include/finclude/math-vector-fortran.h
REM seed 492140269 470091582 -277410285 1243114267 1823090169 -1379286121 -1679072763 -523197319 817949104 1875261393 2036756180 -1605702460 1571236731 -1443871667 1101759132 -549561392 1890021720 -1608921595 1807016981 -482951808 991226499 203257850 1071197356 1313711722 -746852565 -641800629 -1588043998 -132806452 -1147417666 -841121496 -588703727 1063898818 1707775429
REM
CELL 1.54180   50.00000   50.00000   50.00000   90.00000   90.00000   90.00000
LATT -1
SFAC C  
C      1  0.4525600000000  0.4626380000000  0.4786580000000 1.0
C      1  0.5429030000000  0.5185570000000  0.5597330000000 1.0
C      1  0.5414640000000  0.4867820000000  0.5197610000000 1.0
C      1  0.5394270000000  0.4907520000000  0.4949490000000 1.0
C      1  0.5076350000000  0.5514280000000  0.4815250000000 1.0
C      1  0.5111100000000  0.5393070000000  0.4536070000000 1.0
C      1  0.4588540000000  0.4627940000000  0.5075460000000 1.0
C      1  0.5356870000000  0.5428160000000  0.4891470000000 1.0
C      1  0.5372700000000  0.4949540000000  0.4687000000000 1.0
C      1  0.4605780000000  0.5112810000000  0.5235810000000 1.0
C      1  0.5049040000000  0.4455770000000  0.4949550000000 1.0
C      1  0.5144220000000  0.4525950000000  0.4720750000000 1.0
C      1  0.4870850000000  0.4513460000000  0.5159350000000 1.0
C      1  0.4967680000000  0.5225600000000  0.5421440000000 1.0
C      1  0.4587510000000  0.4891100000000  0.5167870000000 1.0
C      1  0.4635130000000  0.5289030000000  0.4855800000000 1.0
C      1  0.4637370000000  0.4833810000000  0.4597870000000 1.0
C      1  0.5062680000000  0.4929680000000  0.5436770000000 1.0
C      1  0.5357560000000  0.4916830000000  0.5471250000000 1.0
C      1  0.4820480000000  0.5451920000000  0.4972760000000 1.0
C      1  0.5049250000000  0.4695390000000  0.5279360000000 1.0
C      1  0.5184780000000  0.4748600000000  0.4550660000000 1.0
C      1  0.4909490000000  0.4809530000000  0.4551140000000 1.0
C      1  0.5357730000000  0.5248920000000  0.4641380000000 1.0
C      1  0.5196920000000  0.5368430000000  0.5552420000000 1.0
C      1  0.4766140000000  0.5352750000000  0.5247350000000 1.0
C      1  0.4528270000000  0.5130130000000  0.4652220000000 1.0
END
