TITL C-883726-8501-469 16.1332458075444 125000 -18983.5949805648 0 0 128 (C1) n - 1
REM
REM in /home/nfs/bkarasulu/CARBON/AIRSS/Generating-Clusters/ReaxFF-fromJPCA2015/Units_Real/with-SteepDescent/Only-C1/SD-CG/Try1-3A/FIRE-CG
REM
REM
REM
REM
REM
REM ./C.cell (11c1c37f851c82e70ff6c80c92926a4b)
REM
REM compiler GCC version 9.2.1 20190827 (Red Hat 9.2.1-1)
REM options -cpp -mtune=generic -march=x86-64 -g -O0 -fpre-include=/usr/include/finclude/math-vector-fortran.h
REM seed 1802099974 -1510178493 2046935384 189950542 1821905517 43865092 -1186221446 578865956 -1609154175 1460747936 1647875369 -1622030702 -1104892843 -604389496 281740896 -458349382 -755964533 -1531288003 1616225195 3797293 2078400063 1280174653 609557194 174810827 -2124771930 867118145 1083605704 -551774301 313376557 -1719377914 -529891870 809149332 1983055637
REM
CELL 1.54180   50.00000   50.00000   50.00000   90.00000   90.00000   90.00000
LATT -1
SFAC C  
C      1  0.4583730000000  0.4480800000000  0.5057540000000 1.0
C      1  0.4391910000000  0.4894820000000  0.6023710000000 1.0
C      1  0.4996570000000  0.4951450000000  0.4482090000000 1.0
C      1  0.5305020000000  0.5844450000000  0.4613330000000 1.0
C      1  0.5295330000000  0.4731150000000  0.5861110000000 1.0
C      1  0.5212790000000  0.5252700000000  0.5211370000000 1.0
C      1  0.5700380000000  0.5039290000000  0.4185190000000 1.0
C      1  0.5458490000000  0.4111820000000  0.4468980000000 1.0
C      1  0.5623300000000  0.5419560000000  0.5478390000000 1.0
C      1  0.5539850000000  0.5703240000000  0.5520860000000 1.0
C      1  0.4393340000000  0.4982240000000  0.5722520000000 1.0
C      1  0.5538600000000  0.4581860000000  0.5195550000000 1.0
C      1  0.4999080000000  0.5156240000000  0.5674970000000 1.0
C      1  0.5683680000000  0.4663300000000  0.5639410000000 1.0
C      1  0.5033300000000  0.4401610000000  0.5151290000000 1.0
C      1  0.4554820000000  0.4706800000000  0.4138730000000 1.0
C      1  0.4796500000000  0.4562530000000  0.5243910000000 1.0
C      1  0.4928760000000  0.4858690000000  0.5272520000000 1.0
C      1  0.4323030000000  0.4894180000000  0.5199210000000 1.0
C      1  0.5683530000000  0.4757730000000  0.4212190000000 1.0
C      1  0.4327360000000  0.5637240000000  0.5526820000000 1.0
C      1  0.4935260000000  0.5407510000000  0.4155980000000 1.0
C      1  0.4108930000000  0.5115380000000  0.4829020000000 1.0
C      1  0.5176530000000  0.4795250000000  0.5411210000000 1.0
C      1  0.5497250000000  0.5021870000000  0.4553570000000 1.0
C      1  0.4180410000000  0.5134050000000  0.5104220000000 1.0
C      1  0.5404690000000  0.4779190000000  0.5022270000000 1.0
C      1  0.5037630000000  0.5884750000000  0.4719070000000 1.0
C      1  0.4323240000000  0.5418360000000  0.5042080000000 1.0
C      1  0.5871200000000  0.5347460000000  0.5377990000000 1.0
C      1  0.4705960000000  0.5991490000000  0.5096040000000 1.0
C      1  0.4548650000000  0.5761660000000  0.4634770000000 1.0
C      1  0.5095590000000  0.4395110000000  0.4854080000000 1.0
C      1  0.4082700000000  0.4439350000000  0.5075710000000 1.0
C      1  0.5235820000000  0.4521300000000  0.4265560000000 1.0
C      1  0.4311880000000  0.4705370000000  0.4322910000000 1.0
C      1  0.4289380000000  0.4506740000000  0.4530280000000 1.0
C      1  0.5459470000000  0.5485470000000  0.4283970000000 1.0
C      1  0.4925960000000  0.4149500000000  0.5308100000000 1.0
C      1  0.5766180000000  0.4632730000000  0.5366870000000 1.0
C      1  0.5075790000000  0.5227440000000  0.5938850000000 1.0
C      1  0.5728800000000  0.4325780000000  0.5088400000000 1.0
C      1  0.4591270000000  0.5479100000000  0.5621460000000 1.0
C      1  0.4390340000000  0.5924280000000  0.5509210000000 1.0
C      1  0.5578040000000  0.4251600000000  0.4706410000000 1.0
C      1  0.5761990000000  0.5200190000000  0.5592340000000 1.0
C      1  0.4632900000000  0.5970770000000  0.5628060000000 1.0
C      1  0.4465770000000  0.4282650000000  0.4541160000000 1.0
C      1  0.4601130000000  0.5362000000000  0.5139490000000 1.0
C      1  0.5073750000000  0.3950670000000  0.5163320000000 1.0
C      1  0.5248650000000  0.4827420000000  0.3973090000000 1.0
C      1  0.4249570000000  0.5488610000000  0.5306640000000 1.0
C      1  0.5301040000000  0.5383810000000  0.5904350000000 1.0
C      1  0.4398200000000  0.4692280000000  0.4995030000000 1.0
C      1  0.4728750000000  0.4440090000000  0.5526110000000 1.0
C      1  0.4508880000000  0.5935960000000  0.4877230000000 1.0
C      1  0.4731440000000  0.5112200000000  0.4444310000000 1.0
C      1  0.4742740000000  0.5247410000000  0.4914500000000 1.0
C      1  0.5226270000000  0.4337940000000  0.5681790000000 1.0
C      1  0.4238600000000  0.4440110000000  0.5312570000000 1.0
C      1  0.5328460000000  0.4916690000000  0.5631550000000 1.0
C      1  0.5939270000000  0.5252340000000  0.5106920000000 1.0
C      1  0.4145210000000  0.4927860000000  0.4402070000000 1.0
C      1  0.4934210000000  0.4975120000000  0.5871810000000 1.0
C      1  0.5607670000000  0.5285310000000  0.4212910000000 1.0
C      1  0.4434310000000  0.3809020000000  0.4716750000000 1.0
C      1  0.5008800000000  0.4692070000000  0.4317810000000 1.0
C      1  0.5664110000000  0.4764260000000  0.4503090000000 1.0
C      1  0.5716280000000  0.4530720000000  0.4680450000000 1.0
C      1  0.4987400000000  0.5638250000000  0.4325510000000 1.0
C      1  0.5456210000000  0.4508010000000  0.5764910000000 1.0
C      1  0.4993380000000  0.4267490000000  0.4613820000000 1.0
C      1  0.5178480000000  0.5486820000000  0.5049510000000 1.0
C      1  0.4743320000000  0.4881770000000  0.4018090000000 1.0
C      1  0.5435910000000  0.4646240000000  0.4078740000000 1.0
C      1  0.4761550000000  0.5724800000000  0.5719440000000 1.0
C      1  0.5872690000000  0.4516230000000  0.4921370000000 1.0
C      1  0.4842570000000  0.5762060000000  0.4541390000000 1.0
C      1  0.5038620000000  0.5744170000000  0.5641310000000 1.0
C      1  0.4174870000000  0.4617210000000  0.4799860000000 1.0
C      1  0.5224930000000  0.4657370000000  0.4834660000000 1.0
C      1  0.4384370000000  0.5312440000000  0.4130460000000 1.0
C      1  0.4990480000000  0.5235850000000  0.5404290000000 1.0
C      1  0.5336230000000  0.4071700000000  0.5198870000000 1.0
C      1  0.5953290000000  0.4715460000000  0.5147750000000 1.0
C      1  0.5564930000000  0.5841320000000  0.4764990000000 1.0
C      1  0.5355430000000  0.4246660000000  0.5441310000000 1.0
C      1  0.5385570000000  0.5067180000000  0.5056080000000 1.0
C      1  0.4428720000000  0.4067920000000  0.4767730000000 1.0
C      1  0.5256020000000  0.5781650000000  0.5442620000000 1.0
C      1  0.5532660000000  0.5155650000000  0.4818390000000 1.0
C      1  0.5645570000000  0.5965650000000  0.5033990000000 1.0
C      1  0.5278780000000  0.5689410000000  0.4369800000000 1.0
C      1  0.4065200000000  0.4878190000000  0.4682270000000 1.0
C      1  0.5017540000000  0.4859740000000  0.4778760000000 1.0
C      1  0.5955230000000  0.4982710000000  0.5114720000000 1.0
C      1  0.5509840000000  0.5530980000000  0.5852890000000 1.0
C      1  0.5675020000000  0.5601600000000  0.4825340000000 1.0
C      1  0.5758010000000  0.5346850000000  0.4868080000000 1.0
C      1  0.4593340000000  0.5215660000000  0.4661020000000 1.0
C      1  0.4984170000000  0.5927530000000  0.5009150000000 1.0
C      1  0.4489410000000  0.5171020000000  0.6095580000000 1.0
C      1  0.4594420000000  0.6054970000000  0.5362000000000 1.0
C      1  0.5262020000000  0.5119580000000  0.4395400000000 1.0
C      1  0.5205040000000  0.4259600000000  0.4404970000000 1.0
C      1  0.5007460000000  0.4694940000000  0.5886510000000 1.0
C      1  0.4586730000000  0.4200140000000  0.5003730000000 1.0
C      1  0.4446710000000  0.4527170000000  0.5516920000000 1.0
C      1  0.5162280000000  0.5758740000000  0.5161610000000 1.0
C      1  0.4768160000000  0.4540120000000  0.4265480000000 1.0
C      1  0.5011480000000  0.4983210000000  0.3957530000000 1.0
C      1  0.4951440000000  0.4461140000000  0.5715460000000 1.0
C      1  0.5660160000000  0.5887590000000  0.5315450000000 1.0
C      1  0.4204520000000  0.5209510000000  0.4331540000000 1.0
C      1  0.4493720000000  0.5234920000000  0.5794000000000 1.0
C      1  0.4969600000000  0.5381540000000  0.4910570000000 1.0
C      1  0.4900600000000  0.4975230000000  0.5002760000000 1.0
C      1  0.4739220000000  0.4328990000000  0.4469730000000 1.0
C      1  0.5621120000000  0.4948560000000  0.5638400000000 1.0
C      1  0.4768860000000  0.4008160000000  0.5114410000000 1.0
C      1  0.4354520000000  0.5571260000000  0.4727080000000 1.0
C      1  0.4732050000000  0.5364560000000  0.5378580000000 1.0
C      1  0.4289160000000  0.5301980000000  0.4628710000000 1.0
C      1  0.5542110000000  0.4134960000000  0.4987190000000 1.0
C      1  0.4683520000000  0.5249850000000  0.4188880000000 1.0
C      1  0.5274340000000  0.4514940000000  0.5316100000000 1.0
C      1  0.4375470000000  0.4811310000000  0.5478550000000 1.0
C      1  0.5147240000000  0.5203510000000  0.4134690000000 1.0
END
