TITL C-883737-113-459 8.04663082687967 125000 -2829.71983479519 0 0 21 (C1) n - 1
REM
REM in /home/nfs/bkarasulu/CARBON/AIRSS/Generating-Clusters/ReaxFF-fromJPCA2015/Units_Real/with-SteepDescent/Only-C1/SD-CG/Try1-3A/FIRE-CG
REM
REM
REM
REM
REM
REM ./C.cell (11c1c37f851c82e70ff6c80c92926a4b)
REM
REM compiler GCC version 9.2.1 20190827 (Red Hat 9.2.1-1)
REM options -cpp -mtune=generic -march=x86-64 -g -O0 -fpre-include=/usr/include/finclude/math-vector-fortran.h
REM seed -1578831689 752280436 -77518897 -993226935 533627987 -1392905307 -2021195928 1812622230 1194837078 -1669167262 764423472 -98125329 -264128087 56016755 1874049369 -2079476797 -88726730 1651188276 -1601720562 -1479312196 1594255250 -2005001873 -377434503 1507365921 1120616163 -899067066 -1429067736 334785701 -416629982 1108799527 1074404482 1472052816 -1472578779
REM
CELL 1.54180   50.00000   50.00000   50.00000   90.00000   90.00000   90.00000
LATT -1
SFAC C  
C      1  0.5507200000000  0.5242030000000  0.5171820000000 1.0
C      1  0.5516700000000  0.5010910000000  0.5366140000000 1.0
C      1  0.4970180000000  0.5227420000000  0.5265030000000 1.0
C      1  0.4593010000000  0.5425450000000  0.4583020000000 1.0
C      1  0.4915730000000  0.4922130000000  0.5173710000000 1.0
C      1  0.5040500000000  0.5137970000000  0.5534680000000 1.0
C      1  0.5068800000000  0.4710420000000  0.5276350000000 1.0
C      1  0.4805140000000  0.4658240000000  0.4624980000000 1.0
C      1  0.4616490000000  0.5228940000000  0.4315830000000 1.0
C      1  0.4673660000000  0.4872910000000  0.4717810000000 1.0
C      1  0.5215370000000  0.5578480000000  0.4960900000000 1.0
C      1  0.5108940000000  0.4294110000000  0.4890750000000 1.0
C      1  0.4663910000000  0.5008760000000  0.4477770000000 1.0
C      1  0.5751530000000  0.4930600000000  0.5312240000000 1.0
C      1  0.4955360000000  0.4423150000000  0.4650310000000 1.0
C      1  0.5236700000000  0.5369880000000  0.5114620000000 1.0
C      1  0.4634250000000  0.5364240000000  0.4843370000000 1.0
C      1  0.4687720000000  0.4983000000000  0.5009170000000 1.0
C      1  0.5128180000000  0.4462280000000  0.5126850000000 1.0
C      1  0.5226960000000  0.4889350000000  0.5495260000000 1.0
C      1  0.4683660000000  0.5259740000000  0.5089390000000 1.0
END
