TITL C-883727-9645-299 10.060543620745 125000 -24035.9687992365 0 0 163 (C1) n - 1
REM
REM in /home/nfs/bkarasulu/CARBON/AIRSS/Generating-Clusters/ReaxFF-fromJPCA2015/Units_Real/with-SteepDescent/Only-C1/SD-CG/Try1-3A/FIRE-CG
REM
REM
REM
REM
REM
REM ./C.cell (11c1c37f851c82e70ff6c80c92926a4b)
REM
REM compiler GCC version 9.2.1 20190827 (Red Hat 9.2.1-1)
REM options -cpp -mtune=generic -march=x86-64 -g -O0 -fpre-include=/usr/include/finclude/math-vector-fortran.h
REM seed -572709354 1305686756 335634706 -1223063158 -1816738102 -1090876295 -346679628 2077123324 -740032711 907648169 -1678404194 278340525 -796214547 -356634671 -388499199 -464221522 650584278 -1872385590 -553697796 -874895151 -1760861504 -619618356 -1786240253 -1166477349 -129594070 -715460854 2025348748 -710681259 -1245575517 372999400 1356047297 1737578505 2098286195
REM
CELL 1.54180   50.00000   50.00000   50.00000   90.00000   90.00000   90.00000
LATT -1
SFAC C  
C      1  0.5085070000000  0.6047490000000  0.5185880000000 1.0
C      1  0.4793830000000  0.5000860000000  0.3928260000000 1.0
C      1  0.6015150000000  0.5342050000000  0.4659400000000 1.0
C      1  0.6019700000000  0.4459930000000  0.4933390000000 1.0
C      1  0.4175580000000  0.5313060000000  0.5561300000000 1.0
C      1  0.5213590000000  0.5256530000000  0.4675740000000 1.0
C      1  0.5300920000000  0.5039890000000  0.5830700000000 1.0
C      1  0.5531560000000  0.5303940000000  0.5402140000000 1.0
C      1  0.5657250000000  0.4940920000000  0.4971830000000 1.0
C      1  0.5649770000000  0.5284270000000  0.4369850000000 1.0
C      1  0.5195350000000  0.4061440000000  0.5337990000000 1.0
C      1  0.4430640000000  0.5245210000000  0.4132130000000 1.0
C      1  0.5639690000000  0.4875680000000  0.4111260000000 1.0
C      1  0.4195900000000  0.5257020000000  0.5257060000000 1.0
C      1  0.5782190000000  0.5465230000000  0.4571050000000 1.0
C      1  0.4372440000000  0.5482570000000  0.5644510000000 1.0
C      1  0.5502240000000  0.4164420000000  0.4417900000000 1.0
C      1  0.5479340000000  0.5139970000000  0.6051750000000 1.0
C      1  0.4403300000000  0.4470090000000  0.4587910000000 1.0
C      1  0.4448240000000  0.4687690000000  0.4922150000000 1.0
C      1  0.4929890000000  0.5620500000000  0.4405260000000 1.0
C      1  0.4533180000000  0.5148290000000  0.4989730000000 1.0
C      1  0.4286140000000  0.4627490000000  0.4358540000000 1.0
C      1  0.6041260000000  0.5066580000000  0.4697920000000 1.0
C      1  0.5702500000000  0.5144940000000  0.5890480000000 1.0
C      1  0.5030660000000  0.5235520000000  0.5743070000000 1.0
C      1  0.4625390000000  0.4639380000000  0.5868840000000 1.0
C      1  0.4905150000000  0.4243580000000  0.5719890000000 1.0
C      1  0.5627920000000  0.4358800000000  0.5559380000000 1.0
C      1  0.4187480000000  0.4588520000000  0.5663600000000 1.0
C      1  0.5555810000000  0.4873130000000  0.4716440000000 1.0
C      1  0.5882990000000  0.5133880000000  0.5703260000000 1.0
C      1  0.5222850000000  0.4573760000000  0.4777740000000 1.0
C      1  0.4065690000000  0.5457390000000  0.5090630000000 1.0
C      1  0.4064930000000  0.4809850000000  0.4442140000000 1.0
C      1  0.4700480000000  0.4425920000000  0.4577890000000 1.0
C      1  0.5208960000000  0.4867820000000  0.3899300000000 1.0
C      1  0.5444150000000  0.4227070000000  0.5374130000000 1.0
C      1  0.4772580000000  0.4139970000000  0.4566970000000 1.0
C      1  0.4519810000000  0.4984060000000  0.4031580000000 1.0
C      1  0.5807430000000  0.4844930000000  0.5427980000000 1.0
C      1  0.4640650000000  0.4372640000000  0.5783740000000 1.0
C      1  0.4935060000000  0.4093970000000  0.5471260000000 1.0
C      1  0.5064070000000  0.4725060000000  0.4971940000000 1.0
C      1  0.4683500000000  0.4555500000000  0.4087600000000 1.0
C      1  0.4548180000000  0.5752100000000  0.4462190000000 1.0
C      1  0.5594680000000  0.5938230000000  0.4937170000000 1.0
C      1  0.5259420000000  0.5393870000000  0.5304220000000 1.0
C      1  0.4435530000000  0.4066560000000  0.5215260000000 1.0
C      1  0.5458790000000  0.4385990000000  0.4207750000000 1.0
C      1  0.5403920000000  0.4729180000000  0.5365330000000 1.0
C      1  0.5566140000000  0.4949440000000  0.5268330000000 1.0
C      1  0.5255210000000  0.4606380000000  0.4483320000000 1.0
C      1  0.5863900000000  0.5465910000000  0.4860020000000 1.0
C      1  0.4645540000000  0.4028950000000  0.4807780000000 1.0
C      1  0.4395640000000  0.4131580000000  0.4921910000000 1.0
C      1  0.5960640000000  0.4988360000000  0.4981370000000 1.0
C      1  0.5430070000000  0.4456820000000  0.5750530000000 1.0
C      1  0.4926060000000  0.5248560000000  0.3999860000000 1.0
C      1  0.5460000000000  0.5424150000000  0.4159340000000 1.0
C      1  0.4347720000000  0.4196850000000  0.5439340000000 1.0
C      1  0.5381060000000  0.5664990000000  0.4313130000000 1.0
C      1  0.4923090000000  0.3919840000000  0.4888310000000 1.0
C      1  0.4952980000000  0.4502780000000  0.4046460000000 1.0
C      1  0.5034370000000  0.5363860000000  0.5470160000000 1.0
C      1  0.5675140000000  0.4228980000000  0.4624590000000 1.0
C      1  0.5373790000000  0.4101170000000  0.4883780000000 1.0
C      1  0.5424050000000  0.4474290000000  0.5214330000000 1.0
C      1  0.4976370000000  0.5546720000000  0.4894740000000 1.0
C      1  0.4601430000000  0.4640580000000  0.5147040000000 1.0
C      1  0.4847140000000  0.4665500000000  0.4503220000000 1.0
C      1  0.5990480000000  0.5078130000000  0.5440680000000 1.0
C      1  0.4238900000000  0.5313570000000  0.4374220000000 1.0
C      1  0.4235670000000  0.4343000000000  0.4795690000000 1.0
C      1  0.4966480000000  0.4746220000000  0.3860210000000 1.0
C      1  0.5406300000000  0.5028030000000  0.3961040000000 1.0
C      1  0.5243640000000  0.5273110000000  0.4033160000000 1.0
C      1  0.5433210000000  0.5688450000000  0.4619680000000 1.0
C      1  0.5024480000000  0.5468590000000  0.5958260000000 1.0
C      1  0.6053430000000  0.4689610000000  0.5093240000000 1.0
C      1  0.5751800000000  0.4689610000000  0.4530590000000 1.0
C      1  0.5175890000000  0.4448540000000  0.4245290000000 1.0
C      1  0.5207030000000  0.5017580000000  0.6108410000000 1.0
C      1  0.4762480000000  0.4415810000000  0.5158320000000 1.0
C      1  0.4230170000000  0.5454670000000  0.4672780000000 1.0
C      1  0.4721950000000  0.4152670000000  0.5273430000000 1.0
C      1  0.4823900000000  0.5976900000000  0.4774480000000 1.0
C      1  0.5021400000000  0.3977920000000  0.4619770000000 1.0
C      1  0.3825700000000  0.4990250000000  0.5133170000000 1.0
C      1  0.3897400000000  0.5045930000000  0.4851520000000 1.0
C      1  0.4094810000000  0.4966460000000  0.5278620000000 1.0
C      1  0.4466260000000  0.5414800000000  0.5000670000000 1.0
C      1  0.4485910000000  0.5148600000000  0.4708200000000 1.0
C      1  0.5832900000000  0.4551090000000  0.5423760000000 1.0
C      1  0.5848970000000  0.4435070000000  0.4694180000000 1.0
C      1  0.4648290000000  0.5288720000000  0.4519300000000 1.0
C      1  0.4202280000000  0.5726470000000  0.5060530000000 1.0
C      1  0.4524760000000  0.4815670000000  0.5354190000000 1.0
C      1  0.5065400000000  0.4650010000000  0.5731530000000 1.0
C      1  0.5993560000000  0.4457770000000  0.5222110000000 1.0
C      1  0.4474760000000  0.4872480000000  0.4700670000000 1.0
C      1  0.5826460000000  0.5744670000000  0.4957690000000 1.0
C      1  0.5372520000000  0.5462420000000  0.4810040000000 1.0
C      1  0.4701620000000  0.5701040000000  0.5748980000000 1.0
C      1  0.4351950000000  0.4344410000000  0.5671860000000 1.0
C      1  0.5629500000000  0.4624530000000  0.4248110000000 1.0
C      1  0.5152640000000  0.4374100000000  0.5807450000000 1.0
C      1  0.4424510000000  0.4739700000000  0.5620570000000 1.0
C      1  0.5082190000000  0.6004510000000  0.4890540000000 1.0
C      1  0.4594680000000  0.5865980000000  0.5087410000000 1.0
C      1  0.5012730000000  0.4999280000000  0.5067230000000 1.0
C      1  0.4061130000000  0.4569690000000  0.4893080000000 1.0
C      1  0.5783730000000  0.5423530000000  0.5284230000000 1.0
C      1  0.4660470000000  0.5536000000000  0.4359710000000 1.0
C      1  0.4696400000000  0.5241370000000  0.6081740000000 1.0
C      1  0.5007210000000  0.4925900000000  0.4556410000000 1.0
C      1  0.5554740000000  0.5915740000000  0.5225670000000 1.0
C      1  0.5504870000000  0.5492680000000  0.5628950000000 1.0
C      1  0.4793790000000  0.5201550000000  0.5087480000000 1.0
C      1  0.4446260000000  0.4695820000000  0.4113920000000 1.0
C      1  0.4549940000000  0.5915340000000  0.4687890000000 1.0
C      1  0.5387700000000  0.4395380000000  0.4935750000000 1.0
C      1  0.4251620000000  0.5111090000000  0.5764550000000 1.0
C      1  0.4296470000000  0.5719260000000  0.4779250000000 1.0
C      1  0.5811690000000  0.5051110000000  0.4262700000000 1.0
C      1  0.4683910000000  0.5607920000000  0.4987140000000 1.0
C      1  0.5158230000000  0.3993350000000  0.5057430000000 1.0
C      1  0.5977700000000  0.5233430000000  0.5183040000000 1.0
C      1  0.4858490000000  0.4775790000000  0.5963090000000 1.0
C      1  0.4531110000000  0.5112840000000  0.5874730000000 1.0
C      1  0.5055350000000  0.5879440000000  0.5415280000000 1.0
C      1  0.4997900000000  0.4687770000000  0.5442550000000 1.0
C      1  0.4149280000000  0.5071350000000  0.4388450000000 1.0
C      1  0.4679330000000  0.5385120000000  0.4072060000000 1.0
C      1  0.4716900000000  0.5033600000000  0.5441640000000 1.0
C      1  0.3965300000000  0.4788170000000  0.4718530000000 1.0
C      1  0.4744530000000  0.5521050000000  0.5987680000000 1.0
C      1  0.4396660000000  0.5800820000000  0.5269950000000 1.0
C      1  0.5950220000000  0.4914140000000  0.4476560000000 1.0
C      1  0.5008160000000  0.5450520000000  0.4630000000000 1.0
C      1  0.4768410000000  0.5079700000000  0.5712230000000 1.0
C      1  0.4913020000000  0.5025850000000  0.6109310000000 1.0
C      1  0.4771240000000  0.5355910000000  0.5339940000000 1.0
C      1  0.5423630000000  0.5094110000000  0.4549820000000 1.0
C      1  0.5016600000000  0.4544940000000  0.5199110000000 1.0
C      1  0.4795040000000  0.5068090000000  0.4412730000000 1.0
C      1  0.4952690000000  0.5830550000000  0.5685860000000 1.0
C      1  0.4023350000000  0.5327060000000  0.4835330000000 1.0
C      1  0.5408890000000  0.5631690000000  0.5783270000000 1.0
C      1  0.4211490000000  0.4717330000000  0.5095870000000 1.0
C      1  0.4614260000000  0.4832090000000  0.4454530000000 1.0
C      1  0.5780790000000  0.5721630000000  0.5242830000000 1.0
C      1  0.5210720000000  0.5508510000000  0.5046990000000 1.0
C      1  0.5304650000000  0.5991140000000  0.5346420000000 1.0
C      1  0.5371250000000  0.4739100000000  0.5661410000000 1.0
C      1  0.5151330000000  0.5719830000000  0.5877320000000 1.0
C      1  0.5357800000000  0.5926880000000  0.4767300000000 1.0
C      1  0.4565150000000  0.5613470000000  0.5480750000000 1.0
C      1  0.4967570000000  0.4944100000000  0.5343300000000 1.0
C      1  0.5262310000000  0.4890550000000  0.4433710000000 1.0
C      1  0.5314980000000  0.4028490000000  0.4604150000000 1.0
C      1  0.4139440000000  0.4875690000000  0.5614470000000 1.0
C      1  0.5128100000000  0.5628690000000  0.4205360000000 1.0
END
