TITL C-884138-6203-444 28.861865041831 125000 -14612.4827015205 0 0 100 (C1) n - 1
REM
REM in /home/nfs/bkarasulu/CARBON/AIRSS/Generating-Clusters/ReaxFF-fromJPCA2015/Units_Real/with-SteepDescent/Only-C1/SD-CG/Try1-3A/FIRE-CG
REM
REM
REM
REM
REM
REM ./C.cell (11c1c37f851c82e70ff6c80c92926a4b)
REM
REM compiler GCC version 9.2.1 20190827 (Red Hat 9.2.1-1)
REM options -cpp -mtune=generic -march=x86-64 -g -O0 -fpre-include=/usr/include/finclude/math-vector-fortran.h
REM seed 303408858 -1038512100 -533255049 193467286 1738764674 -898240729 -2116672432 -388550501 -115929987 -2085484043 1077558335 2118546430 1539235084 967847533 -1924408093 -1138812557 -1560075822 -220594480 -2076049770 -1138316562 -1112751746 1537095716 -953396227 1844399018 -30345755 -1850187635 50444799 -1844720545 -1045305128 -1478090499 -1194929315 -1383339559 1463962468
REM
CELL 1.54180   50.00000   50.00000   50.00000   90.00000   90.00000   90.00000
LATT -1
SFAC C  
C      1  0.5443940000000  0.5219560000000  0.5795750000000 1.0
C      1  0.5253920000000  0.4395760000000  0.5119920000000 1.0
C      1  0.5226410000000  0.4072510000000  0.4728830000000 1.0
C      1  0.5048480000000  0.4821330000000  0.5791140000000 1.0
C      1  0.5326970000000  0.5679890000000  0.4680560000000 1.0
C      1  0.4788440000000  0.4189770000000  0.5435200000000 1.0
C      1  0.5373320000000  0.5352760000000  0.4285940000000 1.0
C      1  0.5412990000000  0.5453390000000  0.5185750000000 1.0
C      1  0.4606890000000  0.5147230000000  0.5168120000000 1.0
C      1  0.5816510000000  0.4835050000000  0.4691710000000 1.0
C      1  0.5829060000000  0.5257910000000  0.4998200000000 1.0
C      1  0.5238370000000  0.5156680000000  0.4112080000000 1.0
C      1  0.5729390000000  0.4541550000000  0.5079480000000 1.0
C      1  0.4970590000000  0.4363150000000  0.5559820000000 1.0
C      1  0.5057490000000  0.4919280000000  0.4101630000000 1.0
C      1  0.5507270000000  0.4430570000000  0.5255460000000 1.0
C      1  0.4606790000000  0.4592650000000  0.4818790000000 1.0
C      1  0.5233100000000  0.5025710000000  0.4892840000000 1.0
C      1  0.4579050000000  0.4694780000000  0.4383950000000 1.0
C      1  0.5096790000000  0.4649810000000  0.4252730000000 1.0
C      1  0.5157690000000  0.5293640000000  0.5054440000000 1.0
C      1  0.4313010000000  0.5195190000000  0.5510970000000 1.0
C      1  0.5080110000000  0.4562220000000  0.4737520000000 1.0
C      1  0.4627470000000  0.5264020000000  0.4305410000000 1.0
C      1  0.4813570000000  0.5680990000000  0.5534640000000 1.0
C      1  0.5099720000000  0.5845980000000  0.5152800000000 1.0
C      1  0.4394650000000  0.5072730000000  0.4986260000000 1.0
C      1  0.4846970000000  0.5833830000000  0.5278730000000 1.0
C      1  0.5042290000000  0.5146530000000  0.5281920000000 1.0
C      1  0.5634090000000  0.5266470000000  0.4411890000000 1.0
C      1  0.4616370000000  0.4588090000000  0.5559810000000 1.0
C      1  0.4404390000000  0.4389370000000  0.5194540000000 1.0
C      1  0.5219440000000  0.5576640000000  0.4450490000000 1.0
C      1  0.4758390000000  0.4281820000000  0.4516930000000 1.0
C      1  0.5731650000000  0.4571910000000  0.4773840000000 1.0
C      1  0.4543560000000  0.4816010000000  0.5722060000000 1.0
C      1  0.5267620000000  0.4998600000000  0.5733020000000 1.0
C      1  0.4547560000000  0.4235490000000  0.4990970000000 1.0
C      1  0.4872480000000  0.4613690000000  0.4930290000000 1.0
C      1  0.4532810000000  0.5615510000000  0.5550050000000 1.0
C      1  0.4823590000000  0.4972520000000  0.5213090000000 1.0
C      1  0.4118660000000  0.5266690000000  0.5024620000000 1.0
C      1  0.4246590000000  0.5338150000000  0.4640540000000 1.0
C      1  0.5424820000000  0.4841760000000  0.5018820000000 1.0
C      1  0.4791570000000  0.4961890000000  0.5787720000000 1.0
C      1  0.5142750000000  0.4570340000000  0.5648200000000 1.0
C      1  0.5687160000000  0.5498190000000  0.5035940000000 1.0
C      1  0.4969690000000  0.4422450000000  0.5152660000000 1.0
C      1  0.4501490000000  0.5347140000000  0.5672210000000 1.0
C      1  0.4955120000000  0.5748600000000  0.4863910000000 1.0
C      1  0.4550620000000  0.4763940000000  0.5329850000000 1.0
C      1  0.5402410000000  0.4597530000000  0.4346810000000 1.0
C      1  0.4716060000000  0.5320000000000  0.4732460000000 1.0
C      1  0.5050540000000  0.4753040000000  0.4532050000000 1.0
C      1  0.5719150000000  0.4975740000000  0.4456710000000 1.0
C      1  0.4769080000000  0.5255670000000  0.5754300000000 1.0
C      1  0.4825110000000  0.5044350000000  0.4698480000000 1.0
C      1  0.5318730000000  0.4534680000000  0.4890590000000 1.0
C      1  0.4900320000000  0.5462680000000  0.4970780000000 1.0
C      1  0.4389670000000  0.4774850000000  0.4868480000000 1.0
C      1  0.4821200000000  0.4168840000000  0.5105180000000 1.0
C      1  0.5593970000000  0.5662210000000  0.4782640000000 1.0
C      1  0.4208450000000  0.5367670000000  0.5281900000000 1.0
C      1  0.5749090000000  0.4955850000000  0.4964550000000 1.0
C      1  0.5222410000000  0.5005070000000  0.4566030000000 1.0
C      1  0.4949790000000  0.5654880000000  0.4531110000000 1.0
C      1  0.4988610000000  0.4019270000000  0.4888280000000 1.0
C      1  0.4361830000000  0.4906340000000  0.5497560000000 1.0
C      1  0.4727420000000  0.5488420000000  0.4468490000000 1.0
C      1  0.5229940000000  0.5127450000000  0.5476190000000 1.0
C      1  0.5701160000000  0.4906550000000  0.5437890000000 1.0
C      1  0.4530600000000  0.4334260000000  0.5452490000000 1.0
C      1  0.5253940000000  0.5459520000000  0.5747030000000 1.0
C      1  0.5460770000000  0.4873200000000  0.4385990000000 1.0
C      1  0.4441200000000  0.5803700000000  0.4864150000000 1.0
C      1  0.5555250000000  0.4450180000000  0.4551780000000 1.0
C      1  0.5440060000000  0.4828450000000  0.5316250000000 1.0
C      1  0.5314970000000  0.5722880000000  0.5298890000000 1.0
C      1  0.4564310000000  0.4343890000000  0.4725810000000 1.0
C      1  0.5647380000000  0.5158380000000  0.5584860000000 1.0
C      1  0.5431710000000  0.4280010000000  0.4747130000000 1.0
C      1  0.5832210000000  0.4782820000000  0.5202880000000 1.0
C      1  0.4389820000000  0.5147370000000  0.4448090000000 1.0
C      1  0.4971180000000  0.5145050000000  0.4474580000000 1.0
C      1  0.5339180000000  0.5701500000000  0.5597390000000 1.0
C      1  0.4711680000000  0.5853460000000  0.5001490000000 1.0
C      1  0.5389050000000  0.4587000000000  0.5474240000000 1.0
C      1  0.4960580000000  0.5468850000000  0.5687870000000 1.0
C      1  0.4448980000000  0.5272180000000  0.4811320000000 1.0
C      1  0.4297820000000  0.5612890000000  0.4712410000000 1.0
C      1  0.4948140000000  0.4073800000000  0.4609750000000 1.0
C      1  0.4410620000000  0.4874580000000  0.4534200000000 1.0
C      1  0.4931150000000  0.4915250000000  0.4941140000000 1.0
C      1  0.4348070000000  0.4671920000000  0.5156580000000 1.0
C      1  0.4836270000000  0.5066140000000  0.4223530000000 1.0
C      1  0.5671200000000  0.5448830000000  0.4620710000000 1.0
C      1  0.4437350000000  0.5567110000000  0.5277810000000 1.0
C      1  0.5456500000000  0.5264020000000  0.5395400000000 1.0
C      1  0.4671740000000  0.5426300000000  0.5170580000000 1.0
C      1  0.4801690000000  0.4505650000000  0.4333140000000 1.0
END
