TITL C-883728-9229-216 -3.16736342812588 125000 -27330.201376842 0 0 180 (C1) n - 1
REM
REM in /home/nfs/bkarasulu/CARBON/AIRSS/Generating-Clusters/ReaxFF-fromJPCA2015/Units_Real/with-SteepDescent/Only-C1/SD-CG/Try1-3A/FIRE-CG
REM
REM
REM
REM
REM
REM ./C.cell (11c1c37f851c82e70ff6c80c92926a4b)
REM
REM compiler GCC version 9.2.1 20190827 (Red Hat 9.2.1-1)
REM options -cpp -mtune=generic -march=x86-64 -g -O0 -fpre-include=/usr/include/finclude/math-vector-fortran.h
REM seed 1618361104 -565320938 -1614328752 690049215 1246949188 1259434390 2070192965 -463805076 -943631567 -1042316237 -574128988 100608316 479811723 1679510308 -1331916419 734477849 1834123672 828023898 1055116217 -2052607781 1176698888 1088147665 -922863479 1771927753 1714181376 -1137866383 950049954 -1979679067 1296145945 -1399252665 -163182829 2037241424 -1992440921
REM
CELL 1.54180   50.00000   50.00000   50.00000   90.00000   90.00000   90.00000
LATT -1
SFAC C  
C      1  0.5288630000000  0.5736610000000  0.5755670000000 1.0
C      1  0.4613480000000  0.4567700000000  0.3973050000000 1.0
C      1  0.4737860000000  0.4413590000000  0.5209070000000 1.0
C      1  0.5505720000000  0.4467170000000  0.5883190000000 1.0
C      1  0.4496170000000  0.5285830000000  0.4014390000000 1.0
C      1  0.5641760000000  0.5241030000000  0.4345730000000 1.0
C      1  0.5215630000000  0.5070600000000  0.3891620000000 1.0
C      1  0.5090360000000  0.5036190000000  0.4902560000000 1.0
C      1  0.4823110000000  0.5974450000000  0.4608700000000 1.0
C      1  0.4459910000000  0.4149740000000  0.5464020000000 1.0
C      1  0.4477750000000  0.5752530000000  0.5422030000000 1.0
C      1  0.4496310000000  0.5656300000000  0.5701080000000 1.0
C      1  0.4204620000000  0.5217160000000  0.5707530000000 1.0
C      1  0.5267400000000  0.4086850000000  0.4249690000000 1.0
C      1  0.4823670000000  0.5852670000000  0.4344920000000 1.0
C      1  0.5021980000000  0.4813650000000  0.5033290000000 1.0
C      1  0.5117480000000  0.4499730000000  0.4007580000000 1.0
C      1  0.5611490000000  0.4318510000000  0.4495930000000 1.0
C      1  0.4842640000000  0.4416030000000  0.4066780000000 1.0
C      1  0.4483110000000  0.5583060000000  0.4786630000000 1.0
C      1  0.5721890000000  0.5685100000000  0.4707750000000 1.0
C      1  0.3986900000000  0.4839030000000  0.5323180000000 1.0
C      1  0.5140460000000  0.4523030000000  0.4509430000000 1.0
C      1  0.4870630000000  0.4973540000000  0.4084020000000 1.0
C      1  0.4674360000000  0.6057260000000  0.5041640000000 1.0
C      1  0.5742440000000  0.4516340000000  0.4664510000000 1.0
C      1  0.5693380000000  0.5048480000000  0.4944600000000 1.0
C      1  0.4409230000000  0.4572570000000  0.4555080000000 1.0
C      1  0.5512420000000  0.5844190000000  0.4554640000000 1.0
C      1  0.4709140000000  0.5266270000000  0.5610920000000 1.0
C      1  0.5161010000000  0.5116420000000  0.5491900000000 1.0
C      1  0.5328700000000  0.4960020000000  0.4728160000000 1.0
C      1  0.5000760000000  0.3933000000000  0.4639820000000 1.0
C      1  0.4834180000000  0.5481970000000  0.5203450000000 1.0
C      1  0.5937210000000  0.4513790000000  0.5432290000000 1.0
C      1  0.5354500000000  0.5188900000000  0.5300970000000 1.0
C      1  0.4916080000000  0.4215800000000  0.5648300000000 1.0
C      1  0.5200830000000  0.5278500000000  0.4348250000000 1.0
C      1  0.5311190000000  0.4287430000000  0.4064050000000 1.0
C      1  0.4565460000000  0.4635410000000  0.5180430000000 1.0
C      1  0.4749890000000  0.5088420000000  0.6011520000000 1.0
C      1  0.5460370000000  0.5517990000000  0.5835090000000 1.0
C      1  0.4097010000000  0.5466290000000  0.5052910000000 1.0
C      1  0.4715070000000  0.4204830000000  0.4272410000000 1.0
C      1  0.5059060000000  0.5909100000000  0.4797300000000 1.0
C      1  0.5726280000000  0.4842860000000  0.4301760000000 1.0
C      1  0.5005680000000  0.4292160000000  0.4907040000000 1.0
C      1  0.4865920000000  0.6010030000000  0.5495840000000 1.0
C      1  0.5001630000000  0.4513030000000  0.5133970000000 1.0
C      1  0.3740010000000  0.5078880000000  0.5652320000000 1.0
C      1  0.5086740000000  0.3970760000000  0.4955990000000 1.0
C      1  0.4882430000000  0.4567710000000  0.6110140000000 1.0
C      1  0.5544960000000  0.4403220000000  0.4228700000000 1.0
C      1  0.3935590000000  0.5328990000000  0.5246550000000 1.0
C      1  0.4526330000000  0.4913310000000  0.5996230000000 1.0
C      1  0.5450180000000  0.5622920000000  0.5150600000000 1.0
C      1  0.5549430000000  0.4688590000000  0.4156080000000 1.0
C      1  0.5027770000000  0.4481290000000  0.5637510000000 1.0
C      1  0.4493960000000  0.4425870000000  0.5842180000000 1.0
C      1  0.4876170000000  0.4613430000000  0.4515140000000 1.0
C      1  0.4974340000000  0.5765950000000  0.5683390000000 1.0
C      1  0.4260400000000  0.4319440000000  0.4941970000000 1.0
C      1  0.4697270000000  0.5473180000000  0.4620590000000 1.0
C      1  0.5891390000000  0.5152640000000  0.4752490000000 1.0
C      1  0.3955950000000  0.5253700000000  0.5543200000000 1.0
C      1  0.4112410000000  0.4383520000000  0.5182130000000 1.0
C      1  0.4441250000000  0.4270090000000  0.4281620000000 1.0
C      1  0.5430180000000  0.4125540000000  0.4658890000000 1.0
C      1  0.4196210000000  0.5672160000000  0.4515200000000 1.0
C      1  0.4571760000000  0.5037230000000  0.4891620000000 1.0
C      1  0.4550160000000  0.5543510000000  0.5223770000000 1.0
C      1  0.5558530000000  0.4751500000000  0.5805050000000 1.0
C      1  0.4969320000000  0.5600830000000  0.5419630000000 1.0
C      1  0.5501930000000  0.4636230000000  0.5066370000000 1.0
C      1  0.5761900000000  0.4317520000000  0.5482700000000 1.0
C      1  0.6101320000000  0.4733800000000  0.5375920000000 1.0
C      1  0.6005090000000  0.4973760000000  0.5523060000000 1.0
C      1  0.4431630000000  0.5377220000000  0.5615970000000 1.0
C      1  0.4873810000000  0.5094380000000  0.5445870000000 1.0
C      1  0.4458040000000  0.4789130000000  0.4378440000000 1.0
C      1  0.5283730000000  0.5391350000000  0.5105390000000 1.0
C      1  0.5545500000000  0.4779860000000  0.5514160000000 1.0
C      1  0.3931830000000  0.5238830000000  0.4964400000000 1.0
C      1  0.5521450000000  0.4145690000000  0.5171510000000 1.0
C      1  0.5548350000000  0.4263910000000  0.5658550000000 1.0
C      1  0.4649450000000  0.5115020000000  0.4176300000000 1.0
C      1  0.5697200000000  0.5799410000000  0.5546390000000 1.0
C      1  0.4826100000000  0.5540580000000  0.4027430000000 1.0
C      1  0.5282740000000  0.5327050000000  0.4046980000000 1.0
C      1  0.5727170000000  0.5678060000000  0.5261770000000 1.0
C      1  0.4646150000000  0.4124140000000  0.5209690000000 1.0
C      1  0.4067060000000  0.4906110000000  0.4324490000000 1.0
C      1  0.5197950000000  0.4480350000000  0.5389530000000 1.0
C      1  0.4664850000000  0.5603120000000  0.4305900000000 1.0
C      1  0.5381230000000  0.4674400000000  0.5320570000000 1.0
C      1  0.4797380000000  0.5348150000000  0.5882950000000 1.0
C      1  0.5319600000000  0.5723030000000  0.4366530000000 1.0
C      1  0.4938350000000  0.5103140000000  0.3828970000000 1.0
C      1  0.5639770000000  0.5149470000000  0.5228520000000 1.0
C      1  0.4724440000000  0.4264540000000  0.4781540000000 1.0
C      1  0.4002280000000  0.5034270000000  0.4762410000000 1.0
C      1  0.5387290000000  0.4029620000000  0.4949850000000 1.0
C      1  0.3882330000000  0.4813570000000  0.5598690000000 1.0
C      1  0.5595940000000  0.5366900000000  0.4087530000000 1.0
C      1  0.4474650000000  0.4757190000000  0.5430840000000 1.0
C      1  0.3971480000000  0.4638490000000  0.5115590000000 1.0
C      1  0.6134930000000  0.4827280000000  0.5089760000000 1.0
C      1  0.5869290000000  0.5388950000000  0.5327580000000 1.0
C      1  0.4670560000000  0.4561770000000  0.4703440000000 1.0
C      1  0.5447430000000  0.5928490000000  0.5614800000000 1.0
C      1  0.5066240000000  0.4802670000000  0.4482390000000 1.0
C      1  0.5267140000000  0.4773610000000  0.4033340000000 1.0
C      1  0.5833200000000  0.5796130000000  0.4961750000000 1.0
C      1  0.5736590000000  0.4956550000000  0.5406660000000 1.0
C      1  0.4735640000000  0.5328100000000  0.3849910000000 1.0
C      1  0.4619370000000  0.4752610000000  0.4934490000000 1.0
C      1  0.5280240000000  0.4527100000000  0.6034000000000 1.0
C      1  0.4181240000000  0.4392490000000  0.4248420000000 1.0
C      1  0.4231830000000  0.4316690000000  0.5440350000000 1.0
C      1  0.5434790000000  0.5223810000000  0.5883420000000 1.0
C      1  0.4513540000000  0.4178430000000  0.4955950000000 1.0
C      1  0.5988180000000  0.4688810000000  0.4604360000000 1.0
C      1  0.4895450000000  0.4723790000000  0.5726470000000 1.0
C      1  0.6090610000000  0.4629940000000  0.4880170000000 1.0
C      1  0.4570740000000  0.5039920000000  0.4425370000000 1.0
C      1  0.5675780000000  0.4396280000000  0.5102870000000 1.0
C      1  0.4633800000000  0.5190740000000  0.4646210000000 1.0
C      1  0.5237280000000  0.3934760000000  0.4474200000000 1.0
C      1  0.4109240000000  0.4682110000000  0.4164520000000 1.0
C      1  0.5063260000000  0.6115290000000  0.5312800000000 1.0
C      1  0.4612360000000  0.4616710000000  0.6028690000000 1.0
C      1  0.5552120000000  0.4819900000000  0.4858630000000 1.0
C      1  0.4379640000000  0.5490300000000  0.5018230000000 1.0
C      1  0.5899960000000  0.5109240000000  0.5763250000000 1.0
C      1  0.4025700000000  0.4747830000000  0.4849200000000 1.0
C      1  0.5090350000000  0.5824960000000  0.4208330000000 1.0
C      1  0.5346820000000  0.6130940000000  0.5405930000000 1.0
C      1  0.4267710000000  0.4974310000000  0.5863920000000 1.0
C      1  0.5372560000000  0.5077400000000  0.4458950000000 1.0
C      1  0.4392540000000  0.4736270000000  0.4092590000000 1.0
C      1  0.5223140000000  0.4350360000000  0.4718030000000 1.0
C      1  0.5906080000000  0.4945180000000  0.4492440000000 1.0
C      1  0.4395360000000  0.5483750000000  0.4207570000000 1.0
C      1  0.4053890000000  0.5130000000000  0.4487500000000 1.0
C      1  0.5901520000000  0.5369980000000  0.5630830000000 1.0
C      1  0.5005430000000  0.4932940000000  0.5920810000000 1.0
C      1  0.5891180000000  0.4411940000000  0.4902360000000 1.0
C      1  0.5468160000000  0.6094270000000  0.5166840000000 1.0
C      1  0.5580180000000  0.6031520000000  0.4931450000000 1.0
C      1  0.4342170000000  0.5830360000000  0.4704230000000 1.0
C      1  0.4111580000000  0.4749650000000  0.5767140000000 1.0
C      1  0.5112880000000  0.4721310000000  0.6144400000000 1.0
C      1  0.4745680000000  0.5633890000000  0.5844470000000 1.0
C      1  0.5065950000000  0.4054220000000  0.5452680000000 1.0
C      1  0.4620330000000  0.4207320000000  0.5698080000000 1.0
C      1  0.5364510000000  0.4177650000000  0.5436490000000 1.0
C      1  0.4935050000000  0.3982400000000  0.5215760000000 1.0
C      1  0.5203480000000  0.5097390000000  0.5764570000000 1.0
C      1  0.4580550000000  0.6004010000000  0.4767120000000 1.0
C      1  0.4739570000000  0.4851580000000  0.5522550000000 1.0
C      1  0.4264700000000  0.4958760000000  0.5318060000000 1.0
C      1  0.5357210000000  0.5987650000000  0.4749410000000 1.0
C      1  0.4790690000000  0.4087950000000  0.4531410000000 1.0
C      1  0.4299170000000  0.4544040000000  0.5645310000000 1.0
C      1  0.5105750000000  0.4899220000000  0.4233160000000 1.0
C      1  0.5648470000000  0.5021920000000  0.5890840000000 1.0
C      1  0.4174300000000  0.5417510000000  0.4388570000000 1.0
C      1  0.5733400000000  0.5585880000000  0.5736480000000 1.0
C      1  0.4394060000000  0.5052810000000  0.5094370000000 1.0
C      1  0.4960360000000  0.6065080000000  0.5033400000000 1.0
C      1  0.5912530000000  0.5465680000000  0.4709390000000 1.0
C      1  0.4626000000000  0.5991880000000  0.5335730000000 1.0
C      1  0.5013700000000  0.5357430000000  0.4961840000000 1.0
C      1  0.4987180000000  0.5558460000000  0.4738190000000 1.0
C      1  0.5184020000000  0.5507240000000  0.4522420000000 1.0
C      1  0.6051780000000  0.5578820000000  0.4936820000000 1.0
C      1  0.6089580000000  0.5355390000000  0.5129150000000 1.0
C      1  0.5104150000000  0.5602550000000  0.4022470000000 1.0
C      1  0.4195290000000  0.4533650000000  0.4749300000000 1.0
C      1  0.6103390000000  0.5100520000000  0.4986940000000 1.0
END
