TITL C-883735-9890-304 4.3543940798483 125000 -8978.18585526941 0 0 62 (C1) n - 1
REM
REM in /home/nfs/bkarasulu/CARBON/AIRSS/Generating-Clusters/ReaxFF-fromJPCA2015/Units_Real/with-SteepDescent/Only-C1/SD-CG/Try1-3A/FIRE-CG
REM
REM
REM
REM
REM
REM ./C.cell (11c1c37f851c82e70ff6c80c92926a4b)
REM
REM compiler GCC version 9.2.1 20190827 (Red Hat 9.2.1-1)
REM options -cpp -mtune=generic -march=x86-64 -g -O0 -fpre-include=/usr/include/finclude/math-vector-fortran.h
REM seed -779008732 219193823 488847506 1818192255 -1213431471 -1736423398 -2030800536 363529897 331072544 -1896801429 99263496 1232572208 -142032379 -1009541822 -2061342772 -1901804186 266172667 -1777690803 -1401725337 960814293 1908458679 355664939 2044035739 894792622 1769961580 -30168106 1040612024 -852993367 -301399323 -1400742488 -1886104162 -391715101 24674976
REM
CELL 1.54180   50.00000   50.00000   50.00000   90.00000   90.00000   90.00000
LATT -1
SFAC C  
C      1  0.4791950000000  0.4383530000000  0.5222850000000 1.0
C      1  0.4859680000000  0.5683310000000  0.5004090000000 1.0
C      1  0.4464460000000  0.5505080000000  0.5157980000000 1.0
C      1  0.4834690000000  0.4314310000000  0.4689930000000 1.0
C      1  0.5220280000000  0.4607980000000  0.4539410000000 1.0
C      1  0.4951680000000  0.5601230000000  0.4759520000000 1.0
C      1  0.4497660000000  0.4995320000000  0.4984830000000 1.0
C      1  0.5219400000000  0.4797960000000  0.5037500000000 1.0
C      1  0.5579320000000  0.4990600000000  0.4541670000000 1.0
C      1  0.4995250000000  0.5394390000000  0.5767250000000 1.0
C      1  0.5139150000000  0.5069420000000  0.5447660000000 1.0
C      1  0.5238550000000  0.5547850000000  0.4722130000000 1.0
C      1  0.5219970000000  0.4335200000000  0.4969230000000 1.0
C      1  0.5281000000000  0.5033240000000  0.5190170000000 1.0
C      1  0.5482140000000  0.4723610000000  0.4615780000000 1.0
C      1  0.5118830000000  0.4373110000000  0.4696240000000 1.0
C      1  0.4729370000000  0.5141760000000  0.4884100000000 1.0
C      1  0.4556950000000  0.4599580000000  0.4380210000000 1.0
C      1  0.5480370000000  0.5552190000000  0.4917400000000 1.0
C      1  0.5719120000000  0.5112100000000  0.4778490000000 1.0
C      1  0.4407730000000  0.5082010000000  0.4578510000000 1.0
C      1  0.5721820000000  0.4913040000000  0.4998250000000 1.0
C      1  0.4648040000000  0.4807490000000  0.5442440000000 1.0
C      1  0.5189530000000  0.5553310000000  0.5274130000000 1.0
C      1  0.4690000000000  0.4445540000000  0.4940160000000 1.0
C      1  0.4345580000000  0.4755450000000  0.4898450000000 1.0
C      1  0.4259130000000  0.5149110000000  0.5066470000000 1.0
C      1  0.5530060000000  0.4832230000000  0.5472070000000 1.0
C      1  0.5399180000000  0.5475060000000  0.5450680000000 1.0
C      1  0.4643870000000  0.5192210000000  0.4462530000000 1.0
C      1  0.4433810000000  0.5474980000000  0.4862040000000 1.0
C      1  0.5384410000000  0.5164290000000  0.4401590000000 1.0
C      1  0.4867690000000  0.5019230000000  0.4423410000000 1.0
C      1  0.5474650000000  0.5616860000000  0.5206040000000 1.0
C      1  0.5033450000000  0.4762070000000  0.4352940000000 1.0
C      1  0.4846500000000  0.4601120000000  0.5412940000000 1.0
C      1  0.4689050000000  0.5387850000000  0.4716390000000 1.0
C      1  0.4427270000000  0.5248580000000  0.5290570000000 1.0
C      1  0.5394130000000  0.4596120000000  0.5380550000000 1.0
C      1  0.4783600000000  0.4456210000000  0.4456960000000 1.0
C      1  0.4976090000000  0.5093820000000  0.4702490000000 1.0
C      1  0.5247690000000  0.4939290000000  0.4286140000000 1.0
C      1  0.4893940000000  0.5241590000000  0.5496820000000 1.0
C      1  0.4497190000000  0.4793820000000  0.4642340000000 1.0
C      1  0.5284090000000  0.5429650000000  0.5734910000000 1.0
C      1  0.4627090000000  0.5083190000000  0.5431100000000 1.0
C      1  0.5575700000000  0.5009540000000  0.5237210000000 1.0
C      1  0.5596100000000  0.4680210000000  0.4876260000000 1.0
C      1  0.4469470000000  0.4726830000000  0.5288360000000 1.0
C      1  0.5199680000000  0.5305060000000  0.4585310000000 1.0
C      1  0.5416760000000  0.5183380000000  0.5858760000000 1.0
C      1  0.4759760000000  0.4726600000000  0.4826690000000 1.0
C      1  0.5621210000000  0.5314250000000  0.4949720000000 1.0
C      1  0.5021620000000  0.4828230000000  0.4839380000000 1.0
C      1  0.5400500000000  0.4552370000000  0.5061630000000 1.0
C      1  0.4425790000000  0.4545730000000  0.5083760000000 1.0
C      1  0.5073030000000  0.4305330000000  0.5217420000000 1.0
C      1  0.5133840000000  0.4495910000000  0.5440890000000 1.0
C      1  0.5333670000000  0.4986860000000  0.5648690000000 1.0
C      1  0.4704080000000  0.5673060000000  0.5233230000000 1.0
C      1  0.4920020000000  0.5539520000000  0.5384230000000 1.0
C      1  0.4273350000000  0.5251230000000  0.4781120000000 1.0
END
