TITL C-883736-9678-292 -10.0402218565448 125000 -23423.9236883376 0 0 156 (C1) n - 1
REM
REM in /home/nfs/bkarasulu/CARBON/AIRSS/Generating-Clusters/ReaxFF-fromJPCA2015/Units_Real/with-SteepDescent/Only-C1/SD-CG/Try1-3A/FIRE-CG
REM
REM
REM
REM
REM
REM ./C.cell (11c1c37f851c82e70ff6c80c92926a4b)
REM
REM compiler GCC version 9.2.1 20190827 (Red Hat 9.2.1-1)
REM options -cpp -mtune=generic -march=x86-64 -g -O0 -fpre-include=/usr/include/finclude/math-vector-fortran.h
REM seed 655008942 1693860423 411724201 -1139462912 -1749081050 991345425 -687420552 352184166 -919120987 1933237949 2121701386 1197296238 -1535745372 1764855954 1256616298 -694427816 1981546445 -1740817637 -1320046148 82425537 -1609208566 873685549 1218240570 2124693274 1276052385 -1689849186 1383218237 416107352 -1393351832 -1179384913 1742134261 905763397 1565645470
REM
CELL 1.54180   50.00000   50.00000   50.00000   90.00000   90.00000   90.00000
LATT -1
SFAC C  
C      1  0.4539980000000  0.5553440000000  0.4988850000000 1.0
C      1  0.3990770000000  0.5428510000000  0.4862400000000 1.0
C      1  0.4525720000000  0.4684610000000  0.5400680000000 1.0
C      1  0.6005390000000  0.4782190000000  0.4916720000000 1.0
C      1  0.4732400000000  0.4205260000000  0.5481350000000 1.0
C      1  0.3975100000000  0.5135090000000  0.5236750000000 1.0
C      1  0.4583880000000  0.4684270000000  0.4921870000000 1.0
C      1  0.5083460000000  0.4431310000000  0.4135930000000 1.0
C      1  0.5518110000000  0.4046430000000  0.5231050000000 1.0
C      1  0.4461650000000  0.5167880000000  0.4110150000000 1.0
C      1  0.4535560000000  0.4995420000000  0.4609240000000 1.0
C      1  0.5038140000000  0.5890140000000  0.5338520000000 1.0
C      1  0.4148240000000  0.4456330000000  0.5182840000000 1.0
C      1  0.4982300000000  0.5204480000000  0.3903410000000 1.0
C      1  0.5164870000000  0.5492550000000  0.4728940000000 1.0
C      1  0.5022010000000  0.4924560000000  0.6112800000000 1.0
C      1  0.5901600000000  0.5310340000000  0.5577770000000 1.0
C      1  0.4653780000000  0.5368400000000  0.4791130000000 1.0
C      1  0.4770820000000  0.5083960000000  0.6103630000000 1.0
C      1  0.4844920000000  0.4524050000000  0.5850490000000 1.0
C      1  0.5080230000000  0.4775210000000  0.4527300000000 1.0
C      1  0.4640860000000  0.5144810000000  0.4346950000000 1.0
C      1  0.5337110000000  0.4796650000000  0.5291940000000 1.0
C      1  0.4877660000000  0.4129590000000  0.4576420000000 1.0
C      1  0.5684090000000  0.5717030000000  0.5215540000000 1.0
C      1  0.5200670000000  0.4206330000000  0.5618320000000 1.0
C      1  0.5182090000000  0.5170850000000  0.6106160000000 1.0
C      1  0.5333170000000  0.4592130000000  0.5887560000000 1.0
C      1  0.4852590000000  0.5151710000000  0.5194730000000 1.0
C      1  0.4254970000000  0.4651760000000  0.4503760000000 1.0
C      1  0.5882720000000  0.5108210000000  0.4371660000000 1.0
C      1  0.4765440000000  0.5440850000000  0.5697060000000 1.0
C      1  0.5555540000000  0.5049450000000  0.5665650000000 1.0
C      1  0.4318450000000  0.4859920000000  0.4145840000000 1.0
C      1  0.5093930000000  0.4177820000000  0.4946040000000 1.0
C      1  0.3904760000000  0.5003310000000  0.4987620000000 1.0
C      1  0.4604980000000  0.4412180000000  0.5298220000000 1.0
C      1  0.5699110000000  0.4478980000000  0.5161650000000 1.0
C      1  0.4434130000000  0.4268670000000  0.4547630000000 1.0
C      1  0.4933890000000  0.4964040000000  0.4925270000000 1.0
C      1  0.5982590000000  0.5058690000000  0.4965460000000 1.0
C      1  0.5215820000000  0.5631230000000  0.4186170000000 1.0
C      1  0.4421830000000  0.5238440000000  0.5428650000000 1.0
C      1  0.4560110000000  0.5114810000000  0.5210890000000 1.0
C      1  0.5831420000000  0.5266460000000  0.5290870000000 1.0
C      1  0.5547320000000  0.4628910000000  0.5372890000000 1.0
C      1  0.5209720000000  0.5394150000000  0.4028860000000 1.0
C      1  0.5280240000000  0.5202080000000  0.4575550000000 1.0
C      1  0.4708140000000  0.4829150000000  0.5551760000000 1.0
C      1  0.5297780000000  0.5081620000000  0.4293000000000 1.0
C      1  0.4554160000000  0.4382200000000  0.4296110000000 1.0
C      1  0.5129730000000  0.5994120000000  0.4476210000000 1.0
C      1  0.5614930000000  0.5493790000000  0.5933950000000 1.0
C      1  0.4711540000000  0.5883360000000  0.5340710000000 1.0
C      1  0.5690170000000  0.5573410000000  0.4434520000000 1.0
C      1  0.5938290000000  0.5325570000000  0.4892800000000 1.0
C      1  0.4034160000000  0.5080500000000  0.4521410000000 1.0
C      1  0.4542180000000  0.4994780000000  0.5948690000000 1.0
C      1  0.4963600000000  0.5432800000000  0.5151350000000 1.0
C      1  0.4884810000000  0.5462400000000  0.4631850000000 1.0
C      1  0.5109280000000  0.4995950000000  0.4690960000000 1.0
C      1  0.5548390000000  0.4737530000000  0.4782510000000 1.0
C      1  0.5245150000000  0.5785750000000  0.5514310000000 1.0
C      1  0.5481580000000  0.4510490000000  0.4945000000000 1.0
C      1  0.4975150000000  0.4644980000000  0.5001720000000 1.0
C      1  0.4046900000000  0.4927460000000  0.5442830000000 1.0
C      1  0.5446460000000  0.5700010000000  0.4376650000000 1.0
C      1  0.5296480000000  0.5792090000000  0.4645660000000 1.0
C      1  0.4696090000000  0.5092110000000  0.4810500000000 1.0
C      1  0.4945720000000  0.5338060000000  0.6097200000000 1.0
C      1  0.4758390000000  0.4046050000000  0.5243500000000 1.0
C      1  0.4737390000000  0.4489560000000  0.5033820000000 1.0
C      1  0.4495340000000  0.5402030000000  0.5647910000000 1.0
C      1  0.4162120000000  0.4850000000000  0.4928720000000 1.0
C      1  0.5751770000000  0.4389290000000  0.4584410000000 1.0
C      1  0.5700270000000  0.4230850000000  0.5350630000000 1.0
C      1  0.5859400000000  0.5027260000000  0.5640750000000 1.0
C      1  0.4349980000000  0.4615860000000  0.5611940000000 1.0
C      1  0.5258910000000  0.4051180000000  0.5375850000000 1.0
C      1  0.5005150000000  0.5846230000000  0.4256730000000 1.0
C      1  0.5413700000000  0.4340870000000  0.5754880000000 1.0
C      1  0.5114020000000  0.5976210000000  0.5075310000000 1.0
C      1  0.4805180000000  0.5381320000000  0.4361400000000 1.0
C      1  0.4251270000000  0.5023760000000  0.4698790000000 1.0
C      1  0.4930680000000  0.5003960000000  0.5489360000000 1.0
C      1  0.5127450000000  0.4036890000000  0.4691980000000 1.0
C      1  0.4505640000000  0.5683130000000  0.5383190000000 1.0
C      1  0.5937090000000  0.4707730000000  0.5186410000000 1.0
C      1  0.3870040000000  0.5167580000000  0.4751130000000 1.0
C      1  0.4576450000000  0.5961310000000  0.5100090000000 1.0
C      1  0.5535340000000  0.4992500000000  0.4896530000000 1.0
C      1  0.5682160000000  0.4117260000000  0.4697570000000 1.0
C      1  0.5706620000000  0.5538060000000  0.5660000000000 1.0
C      1  0.5361090000000  0.4824860000000  0.5715280000000 1.0
C      1  0.4626460000000  0.4137620000000  0.4720620000000 1.0
C      1  0.5223620000000  0.5375310000000  0.5708710000000 1.0
C      1  0.4077570000000  0.5398240000000  0.5144200000000 1.0
C      1  0.4453240000000  0.4853420000000  0.5115330000000 1.0
C      1  0.4914110000000  0.5574410000000  0.5911350000000 1.0
C      1  0.5549720000000  0.5204110000000  0.5381730000000 1.0
C      1  0.4845150000000  0.4621840000000  0.4506710000000 1.0
C      1  0.4406610000000  0.5485440000000  0.4238060000000 1.0
C      1  0.4201100000000  0.5130130000000  0.5586420000000 1.0
C      1  0.4193920000000  0.4415030000000  0.4659630000000 1.0
C      1  0.5327760000000  0.5249040000000  0.5200250000000 1.0
C      1  0.4115230000000  0.4542810000000  0.4911470000000 1.0
C      1  0.5159840000000  0.5654920000000  0.5764080000000 1.0
C      1  0.4542460000000  0.5866450000000  0.4554450000000 1.0
C      1  0.4920200000000  0.4300290000000  0.5682550000000 1.0
C      1  0.4367270000000  0.5189050000000  0.5828450000000 1.0
C      1  0.4563960000000  0.4118720000000  0.5024390000000 1.0
C      1  0.5686180000000  0.5168900000000  0.4186420000000 1.0
C      1  0.5539480000000  0.5205800000000  0.4702860000000 1.0
C      1  0.5166890000000  0.4838390000000  0.5504750000000 1.0
C      1  0.5324660000000  0.4789830000000  0.4348570000000 1.0
C      1  0.5858440000000  0.5498310000000  0.5114400000000 1.0
C      1  0.5789690000000  0.5322450000000  0.4592520000000 1.0
C      1  0.4161490000000  0.5545230000000  0.4675200000000 1.0
C      1  0.4812910000000  0.5643890000000  0.5034960000000 1.0
C      1  0.4106990000000  0.4850110000000  0.4347700000000 1.0
C      1  0.5217710000000  0.5453410000000  0.5021010000000 1.0
C      1  0.5001220000000  0.4917620000000  0.3921620000000 1.0
C      1  0.5858530000000  0.4817410000000  0.4437860000000 1.0
C      1  0.4965230000000  0.5254200000000  0.5651660000000 1.0
C      1  0.4860670000000  0.4361190000000  0.4352660000000 1.0
C      1  0.5682870000000  0.4334420000000  0.5621900000000 1.0
C      1  0.4705700000000  0.5853720000000  0.4318770000000 1.0
C      1  0.4335430000000  0.5645240000000  0.4482670000000 1.0
C      1  0.5042330000000  0.4010480000000  0.5184480000000 1.0
C      1  0.5195140000000  0.4463230000000  0.4972690000000 1.0
C      1  0.5545220000000  0.4368480000000  0.4392340000000 1.0
C      1  0.4134500000000  0.4649520000000  0.5428570000000 1.0
C      1  0.4666070000000  0.5595210000000  0.4184530000000 1.0
C      1  0.4911630000000  0.5876890000000  0.4882700000000 1.0
C      1  0.5626390000000  0.5948390000000  0.5025280000000 1.0
C      1  0.5058400000000  0.4649080000000  0.5988080000000 1.0
C      1  0.5566770000000  0.3986120000000  0.4937340000000 1.0
C      1  0.5436680000000  0.5201300000000  0.4063320000000 1.0
C      1  0.5045330000000  0.4670720000000  0.4006260000000 1.0
C      1  0.5419890000000  0.5251910000000  0.5907610000000 1.0
C      1  0.5945970000000  0.4796930000000  0.5465550000000 1.0
C      1  0.5535940000000  0.5700300000000  0.5466030000000 1.0
C      1  0.4701720000000  0.5190970000000  0.3937100000000 1.0
C      1  0.5928270000000  0.4633300000000  0.4649310000000 1.0
C      1  0.5359190000000  0.5953910000000  0.4905870000000 1.0
C      1  0.4636720000000  0.5975330000000  0.4816500000000 1.0
C      1  0.5421520000000  0.3975090000000  0.4686560000000 1.0
C      1  0.4361210000000  0.4259580000000  0.5179460000000 1.0
C      1  0.5743160000000  0.4626590000000  0.5596460000000 1.0
C      1  0.5355310000000  0.4994830000000  0.5102920000000 1.0
C      1  0.5574630000000  0.4758410000000  0.4496370000000 1.0
C      1  0.4325350000000  0.5559320000000  0.5189080000000 1.0
C      1  0.4458050000000  0.4615210000000  0.4159680000000 1.0
C      1  0.4583200000000  0.4718370000000  0.5788540000000 1.0
C      1  0.5355890000000  0.4486320000000  0.4219590000000 1.0
C      1  0.4582940000000  0.4701830000000  0.4638750000000 1.0
END
