TITL C-884141-4321-508 25.2915644285071 125000 -28061.4827009474 0 0 185 (C1) n - 1
REM
REM in /home/nfs/bkarasulu/CARBON/AIRSS/Generating-Clusters/ReaxFF-fromJPCA2015/Units_Real/with-SteepDescent/Only-C1/SD-CG/Try1-3A/FIRE-CG
REM
REM
REM
REM
REM
REM ./C.cell (11c1c37f851c82e70ff6c80c92926a4b)
REM
REM compiler GCC version 9.2.1 20190827 (Red Hat 9.2.1-1)
REM options -cpp -mtune=generic -march=x86-64 -g -O0 -fpre-include=/usr/include/finclude/math-vector-fortran.h
REM seed -1144647288 609089570 -633526990 1104770182 -1505562227 230689489 1621236076 -774044483 -999885791 -2080158198 1776286242 1660099348 -1140810708 -1486423575 -1767534894 -1291911393 -811279120 793694051 -384067047 -1693049928 462626504 -602452571 549358085 -1618308520 855585364 -401979673 -1581883250 -703552229 -1206457061 1098462285 -824694096 109045067 1093422510
REM
CELL 1.54180   50.00000   50.00000   50.00000   90.00000   90.00000   90.00000
LATT -1
SFAC C  
C      1  0.4186390000000  0.5331380000000  0.4419790000000 1.0
C      1  0.4505890000000  0.4412440000000  0.4847410000000 1.0
C      1  0.4624490000000  0.5325780000000  0.3901340000000 1.0
C      1  0.4905850000000  0.5261550000000  0.5569240000000 1.0
C      1  0.5478350000000  0.4657540000000  0.5755050000000 1.0
C      1  0.4891110000000  0.4702560000000  0.4142890000000 1.0
C      1  0.4469660000000  0.4184120000000  0.5584760000000 1.0
C      1  0.4691540000000  0.4809150000000  0.5465990000000 1.0
C      1  0.5645740000000  0.4106050000000  0.4993770000000 1.0
C      1  0.4937340000000  0.4476840000000  0.5014840000000 1.0
C      1  0.5383200000000  0.5301720000000  0.5910960000000 1.0
C      1  0.5034550000000  0.4279110000000  0.5435150000000 1.0
C      1  0.4656170000000  0.3964200000000  0.5535710000000 1.0
C      1  0.3956390000000  0.5239470000000  0.4757220000000 1.0
C      1  0.4949680000000  0.5546410000000  0.5523940000000 1.0
C      1  0.4792930000000  0.6134470000000  0.5136350000000 1.0
C      1  0.5212100000000  0.5346340000000  0.3908070000000 1.0
C      1  0.4137010000000  0.4282010000000  0.4977620000000 1.0
C      1  0.5188430000000  0.5528520000000  0.5881810000000 1.0
C      1  0.4598200000000  0.3947260000000  0.5002400000000 1.0
C      1  0.5012640000000  0.5757550000000  0.5186230000000 1.0
C      1  0.4358890000000  0.5647670000000  0.4855980000000 1.0
C      1  0.4986740000000  0.5714590000000  0.4338440000000 1.0
C      1  0.4161150000000  0.4390160000000  0.5246380000000 1.0
C      1  0.4557480000000  0.5166490000000  0.6129330000000 1.0
C      1  0.5205030000000  0.4484460000000  0.4541340000000 1.0
C      1  0.4784390000000  0.4397250000000  0.4785130000000 1.0
C      1  0.5334210000000  0.5380810000000  0.4206300000000 1.0
C      1  0.4012640000000  0.4510490000000  0.4840580000000 1.0
C      1  0.5895640000000  0.4573830000000  0.5553470000000 1.0
C      1  0.5258960000000  0.5075220000000  0.6009300000000 1.0
C      1  0.4559080000000  0.5854190000000  0.4435510000000 1.0
C      1  0.4071200000000  0.4540800000000  0.4550120000000 1.0
C      1  0.4425550000000  0.4362530000000  0.5374380000000 1.0
C      1  0.5979140000000  0.5466290000000  0.4546420000000 1.0
C      1  0.4618300000000  0.4281610000000  0.4154720000000 1.0
C      1  0.5011750000000  0.5857430000000  0.4576190000000 1.0
C      1  0.4072700000000  0.4665990000000  0.5286530000000 1.0
C      1  0.4737520000000  0.5598670000000  0.3965760000000 1.0
C      1  0.4222510000000  0.5611060000000  0.4475440000000 1.0
C      1  0.5066210000000  0.6201500000000  0.4787910000000 1.0
C      1  0.4791480000000  0.4770450000000  0.4432640000000 1.0
C      1  0.4452790000000  0.4943950000000  0.5927510000000 1.0
C      1  0.5673200000000  0.5495320000000  0.5539220000000 1.0
C      1  0.4486110000000  0.5360110000000  0.4816070000000 1.0
C      1  0.4559820000000  0.6026640000000  0.5256930000000 1.0
C      1  0.5150300000000  0.4905550000000  0.5488300000000 1.0
C      1  0.5368120000000  0.5587220000000  0.4798810000000 1.0
C      1  0.4759570000000  0.5992180000000  0.4607470000000 1.0
C      1  0.5758140000000  0.4331570000000  0.5428760000000 1.0
C      1  0.4599260000000  0.5962130000000  0.5559430000000 1.0
C      1  0.5098650000000  0.5462330000000  0.4357080000000 1.0
C      1  0.4379650000000  0.4148730000000  0.4840910000000 1.0
C      1  0.5140410000000  0.4837180000000  0.6102510000000 1.0
C      1  0.5271430000000  0.5001620000000  0.5006660000000 1.0
C      1  0.4167480000000  0.4522210000000  0.5773110000000 1.0
C      1  0.5765940000000  0.4821770000000  0.4280920000000 1.0
C      1  0.5448840000000  0.5705310000000  0.5480590000000 1.0
C      1  0.5528450000000  0.5939560000000  0.5288120000000 1.0
C      1  0.4947100000000  0.4008940000000  0.5480400000000 1.0
C      1  0.5276890000000  0.3960490000000  0.4747540000000 1.0
C      1  0.5308420000000  0.4611030000000  0.6008900000000 1.0
C      1  0.4160580000000  0.5238130000000  0.5314380000000 1.0
C      1  0.4028030000000  0.4932090000000  0.4774940000000 1.0
C      1  0.5478200000000  0.5072760000000  0.4562010000000 1.0
C      1  0.5757060000000  0.4563130000000  0.4372210000000 1.0
C      1  0.4487800000000  0.5146470000000  0.5002040000000 1.0
C      1  0.4636640000000  0.5097610000000  0.6368890000000 1.0
C      1  0.5891270000000  0.4996300000000  0.5406310000000 1.0
C      1  0.5919930000000  0.5811460000000  0.4938340000000 1.0
C      1  0.6063600000000  0.4759210000000  0.5409120000000 1.0
C      1  0.5042560000000  0.4190510000000  0.4265400000000 1.0
C      1  0.4994210000000  0.3929640000000  0.4716530000000 1.0
C      1  0.5681230000000  0.4482890000000  0.4671250000000 1.0
C      1  0.5262550000000  0.5771160000000  0.5720800000000 1.0
C      1  0.5492130000000  0.4198430000000  0.5482140000000 1.0
C      1  0.4254160000000  0.5673240000000  0.5262730000000 1.0
C      1  0.4073130000000  0.5465720000000  0.5144490000000 1.0
C      1  0.4238880000000  0.4352860000000  0.4398920000000 1.0
C      1  0.4387900000000  0.4459930000000  0.4168610000000 1.0
C      1  0.4136390000000  0.4734660000000  0.5570800000000 1.0
C      1  0.5328890000000  0.6111310000000  0.5196210000000 1.0
C      1  0.4770630000000  0.5592980000000  0.5164170000000 1.0
C      1  0.4416900000000  0.5187200000000  0.4605810000000 1.0
C      1  0.4894700000000  0.5223570000000  0.4765240000000 1.0
C      1  0.4324820000000  0.4275800000000  0.5808150000000 1.0
C      1  0.4707020000000  0.5150900000000  0.4311470000000 1.0
C      1  0.5093210000000  0.5661000000000  0.4786610000000 1.0
C      1  0.4733470000000  0.5730590000000  0.4228730000000 1.0
C      1  0.5769050000000  0.4755030000000  0.5738210000000 1.0
C      1  0.5812900000000  0.5369040000000  0.4322470000000 1.0
C      1  0.5784620000000  0.5945650000000  0.5154780000000 1.0
C      1  0.4486940000000  0.4638190000000  0.5029810000000 1.0
C      1  0.4374940000000  0.4138470000000  0.4535090000000 1.0
C      1  0.4784110000000  0.5074510000000  0.3871720000000 1.0
C      1  0.4673470000000  0.4829150000000  0.3981980000000 1.0
C      1  0.4087150000000  0.5497020000000  0.4857060000000 1.0
C      1  0.4383340000000  0.4506890000000  0.5974680000000 1.0
C      1  0.5328120000000  0.4266530000000  0.4348580000000 1.0
C      1  0.5387380000000  0.4367060000000  0.5678780000000 1.0
C      1  0.5365920000000  0.4081580000000  0.5007790000000 1.0
C      1  0.4445100000000  0.5168630000000  0.5283670000000 1.0
C      1  0.5338370000000  0.4573680000000  0.5156320000000 1.0
C      1  0.4885280000000  0.5482080000000  0.4909010000000 1.0
C      1  0.5158640000000  0.4349250000000  0.5161650000000 1.0
C      1  0.4407440000000  0.4742290000000  0.4094210000000 1.0
C      1  0.5240440000000  0.5242740000000  0.5152150000000 1.0
C      1  0.4542000000000  0.4610010000000  0.5306870000000 1.0
C      1  0.6010070000000  0.5020570000000  0.4645610000000 1.0
C      1  0.5425090000000  0.5093570000000  0.4268760000000 1.0
C      1  0.4516790000000  0.5262450000000  0.4136710000000 1.0
C      1  0.4790420000000  0.6164840000000  0.4843800000000 1.0
C      1  0.4606210000000  0.4705390000000  0.5987940000000 1.0
C      1  0.5078180000000  0.3912840000000  0.5241380000000 1.0
C      1  0.5538360000000  0.4477500000000  0.4195410000000 1.0
C      1  0.5568740000000  0.5668250000000  0.4586070000000 1.0
C      1  0.5932770000000  0.5255080000000  0.5176530000000 1.0
C      1  0.5076810000000  0.5089400000000  0.3886580000000 1.0
C      1  0.5354230000000  0.4001040000000  0.5264610000000 1.0
C      1  0.3997480000000  0.4754200000000  0.5006240000000 1.0
C      1  0.5172610000000  0.4803620000000  0.5165400000000 1.0
C      1  0.4955090000000  0.4750950000000  0.5008000000000 1.0
C      1  0.4886410000000  0.3913430000000  0.4987530000000 1.0
C      1  0.5699970000000  0.5251560000000  0.4964930000000 1.0
C      1  0.4551490000000  0.4885680000000  0.4901050000000 1.0
C      1  0.5323670000000  0.6242080000000  0.4916580000000 1.0
C      1  0.5375230000000  0.4679600000000  0.4113640000000 1.0
C      1  0.4679530000000  0.5429060000000  0.6012150000000 1.0
C      1  0.4222970000000  0.4908760000000  0.4247620000000 1.0
C      1  0.5720680000000  0.5091340000000  0.4210980000000 1.0
C      1  0.4203220000000  0.5239390000000  0.5601460000000 1.0
C      1  0.5416290000000  0.4880010000000  0.5543600000000 1.0
C      1  0.4820050000000  0.4952400000000  0.4862630000000 1.0
C      1  0.5618990000000  0.4874670000000  0.5334720000000 1.0
C      1  0.5188210000000  0.4880600000000  0.4083560000000 1.0
C      1  0.4257550000000  0.5188790000000  0.4182240000000 1.0
C      1  0.5658990000000  0.4188710000000  0.4708570000000 1.0
C      1  0.5451750000000  0.4073790000000  0.4550850000000 1.0
C      1  0.5820300000000  0.4530650000000  0.4981180000000 1.0
C      1  0.5801990000000  0.4289960000000  0.5152120000000 1.0
C      1  0.4574560000000  0.4962390000000  0.4490940000000 1.0
C      1  0.4926770000000  0.5261130000000  0.4476810000000 1.0
C      1  0.4366730000000  0.5875950000000  0.5100160000000 1.0
C      1  0.4882840000000  0.4388970000000  0.4127500000000 1.0
C      1  0.4253970000000  0.4968850000000  0.5715260000000 1.0
C      1  0.4091050000000  0.4821720000000  0.4505170000000 1.0
C      1  0.6176290000000  0.5232340000000  0.4995680000000 1.0
C      1  0.5002440000000  0.4475970000000  0.5639610000000 1.0
C      1  0.5604060000000  0.4668560000000  0.5147980000000 1.0
C      1  0.6183620000000  0.4828860000000  0.4785240000000 1.0
C      1  0.5070660000000  0.4463290000000  0.5921580000000 1.0
C      1  0.5957470000000  0.5733690000000  0.5203770000000 1.0
C      1  0.6097160000000  0.4615860000000  0.4964000000000 1.0
C      1  0.4572410000000  0.3942480000000  0.5271930000000 1.0
C      1  0.6139610000000  0.5275940000000  0.4707650000000 1.0
C      1  0.4443540000000  0.5819440000000  0.5741020000000 1.0
C      1  0.4988810000000  0.5506740000000  0.3873720000000 1.0
C      1  0.5050010000000  0.6046790000000  0.5300930000000 1.0
C      1  0.4336580000000  0.5777300000000  0.4590650000000 1.0
C      1  0.5582360000000  0.5532700000000  0.4329370000000 1.0
C      1  0.5883390000000  0.5498300000000  0.5344700000000 1.0
C      1  0.4520100000000  0.5567540000000  0.5343080000000 1.0
C      1  0.4937800000000  0.4731460000000  0.5573460000000 1.0
C      1  0.5174700000000  0.5585360000000  0.5350770000000 1.0
C      1  0.4934010000000  0.5382530000000  0.5888750000000 1.0
C      1  0.5633240000000  0.5280460000000  0.5724700000000 1.0
C      1  0.5730860000000  0.5104710000000  0.4721540000000 1.0
C      1  0.4843120000000  0.5804130000000  0.5655260000000 1.0
C      1  0.6299250000000  0.4968700000000  0.5019490000000 1.0
C      1  0.4431380000000  0.5432990000000  0.5597480000000 1.0
C      1  0.5332030000000  0.4901010000000  0.4744130000000 1.0
C      1  0.6217620000000  0.4740500000000  0.5180110000000 1.0
C      1  0.4665280000000  0.5086470000000  0.5456470000000 1.0
C      1  0.5160630000000  0.5177610000000  0.5433110000000 1.0
C      1  0.4460650000000  0.5564450000000  0.5865720000000 1.0
C      1  0.4885220000000  0.4029030000000  0.4455390000000 1.0
C      1  0.4894750000000  0.4665120000000  0.6048010000000 1.0
C      1  0.5796680000000  0.5039840000000  0.5692830000000 1.0
C      1  0.4912900000000  0.4548570000000  0.4573880000000 1.0
C      1  0.5841620000000  0.5686150000000  0.4686990000000 1.0
C      1  0.4609190000000  0.4081350000000  0.4378280000000 1.0
C      1  0.5399190000000  0.4615200000000  0.4689170000000 1.0
C      1  0.5078880000000  0.5960250000000  0.5608540000000 1.0
C      1  0.5451910000000  0.5397570000000  0.5006980000000 1.0
C      1  0.3864640000000  0.5274350000000  0.4490980000000 1.0
END
