TITL C-883738-3659-232 25.4344000545687 125000 -19848.6635567597 0 0 135 (C1) n - 1
REM
REM in /home/nfs/bkarasulu/CARBON/AIRSS/Generating-Clusters/ReaxFF-fromJPCA2015/Units_Real/with-SteepDescent/Only-C1/SD-CG/Try1-3A/FIRE-CG
REM
REM
REM
REM
REM
REM ./C.cell (11c1c37f851c82e70ff6c80c92926a4b)
REM
REM compiler GCC version 9.2.1 20190827 (Red Hat 9.2.1-1)
REM options -cpp -mtune=generic -march=x86-64 -g -O0 -fpre-include=/usr/include/finclude/math-vector-fortran.h
REM seed -1423014112 -1316992820 -2063971406 -1177061713 1846825885 -861500996 471469490 1485579564 -907579122 1350340943 1494962410 -333340208 1233825530 1423310152 -1211159226 -1667519788 -1447638428 -1326831474 914926280 -1009778300 -1373243101 923410980 -64227889 1856804325 127244821 1376823772 -753111329 1030668161 290997509 -422341221 -1198466737 1960567789 450452271
REM
CELL 1.54180   50.00000   50.00000   50.00000   90.00000   90.00000   90.00000
LATT -1
SFAC C  
C      1  0.5034830000000  0.4254460000000  0.5745080000000 1.0
C      1  0.4133220000000  0.5283040000000  0.4787020000000 1.0
C      1  0.5394840000000  0.4705440000000  0.5228490000000 1.0
C      1  0.4420490000000  0.4465840000000  0.5192040000000 1.0
C      1  0.5298850000000  0.5380080000000  0.5807200000000 1.0
C      1  0.4546020000000  0.5134860000000  0.5061280000000 1.0
C      1  0.5648830000000  0.5349490000000  0.4355960000000 1.0
C      1  0.5574980000000  0.4485230000000  0.5200380000000 1.0
C      1  0.5211810000000  0.5309560000000  0.5296210000000 1.0
C      1  0.5785810000000  0.5606050000000  0.4834030000000 1.0
C      1  0.6023260000000  0.5166720000000  0.4971820000000 1.0
C      1  0.4703170000000  0.5825920000000  0.5161930000000 1.0
C      1  0.4301940000000  0.5500010000000  0.4881010000000 1.0
C      1  0.4782670000000  0.4771800000000  0.4540820000000 1.0
C      1  0.4738490000000  0.5402560000000  0.5321530000000 1.0
C      1  0.5141890000000  0.5280960000000  0.5557360000000 1.0
C      1  0.3969310000000  0.4751780000000  0.5411610000000 1.0
C      1  0.5097520000000  0.5091920000000  0.5155750000000 1.0
C      1  0.4493930000000  0.5182560000000  0.5355550000000 1.0
C      1  0.4417020000000  0.4956640000000  0.5589090000000 1.0
C      1  0.4735200000000  0.5364350000000  0.4253350000000 1.0
C      1  0.4940070000000  0.4118550000000  0.5288630000000 1.0
C      1  0.5458120000000  0.5541650000000  0.4233600000000 1.0
C      1  0.4968750000000  0.5065410000000  0.5589720000000 1.0
C      1  0.5277840000000  0.5437670000000  0.4056950000000 1.0
C      1  0.4183760000000  0.5578030000000  0.5145990000000 1.0
C      1  0.5001720000000  0.5687920000000  0.4425680000000 1.0
C      1  0.5836890000000  0.5026610000000  0.5142820000000 1.0
C      1  0.5529090000000  0.4477810000000  0.4892500000000 1.0
C      1  0.5381000000000  0.5397090000000  0.4717890000000 1.0
C      1  0.4678720000000  0.4587920000000  0.5812030000000 1.0
C      1  0.4959610000000  0.4792850000000  0.5482820000000 1.0
C      1  0.5707260000000  0.5032010000000  0.4706650000000 1.0
C      1  0.5533780000000  0.5209770000000  0.5767800000000 1.0
C      1  0.4802140000000  0.5048060000000  0.4597890000000 1.0
C      1  0.4984760000000  0.5072670000000  0.5887200000000 1.0
C      1  0.5607520000000  0.5065690000000  0.4419250000000 1.0
C      1  0.4237520000000  0.4802530000000  0.4715220000000 1.0
C      1  0.5893680000000  0.5427570000000  0.5045960000000 1.0
C      1  0.5084560000000  0.4493410000000  0.5022890000000 1.0
C      1  0.4382410000000  0.5368320000000  0.5569670000000 1.0
C      1  0.5028030000000  0.5667820000000  0.4916880000000 1.0
C      1  0.5312140000000  0.4111780000000  0.4589430000000 1.0
C      1  0.4963170000000  0.4517680000000  0.5866420000000 1.0
C      1  0.5092810000000  0.4989380000000  0.4183320000000 1.0
C      1  0.5359610000000  0.4074950000000  0.4993730000000 1.0
C      1  0.4421890000000  0.5145350000000  0.4450110000000 1.0
C      1  0.5030580000000  0.5378930000000  0.3961960000000 1.0
C      1  0.5695850000000  0.5408380000000  0.5269790000000 1.0
C      1  0.4706970000000  0.5128880000000  0.5903630000000 1.0
C      1  0.5203010000000  0.4724730000000  0.4584150000000 1.0
C      1  0.4950920000000  0.5770470000000  0.5636770000000 1.0
C      1  0.4840860000000  0.5116940000000  0.5032920000000 1.0
C      1  0.4164950000000  0.4582110000000  0.5043240000000 1.0
C      1  0.5322820000000  0.4940640000000  0.5038430000000 1.0
C      1  0.5310750000000  0.4219670000000  0.5684390000000 1.0
C      1  0.4588530000000  0.4871390000000  0.5804590000000 1.0
C      1  0.4139060000000  0.5154650000000  0.4524910000000 1.0
C      1  0.4937560000000  0.6007170000000  0.5218310000000 1.0
C      1  0.4935740000000  0.4656430000000  0.5219230000000 1.0
C      1  0.4484380000000  0.5791300000000  0.5322130000000 1.0
C      1  0.5139170000000  0.5956370000000  0.5024110000000 1.0
C      1  0.5784210000000  0.4734420000000  0.5515620000000 1.0
C      1  0.4517310000000  0.4246580000000  0.4985140000000 1.0
C      1  0.4997910000000  0.4513060000000  0.4188940000000 1.0
C      1  0.5072900000000  0.5298920000000  0.5954500000000 1.0
C      1  0.4121850000000  0.4549730000000  0.5566620000000 1.0
C      1  0.4470640000000  0.4989170000000  0.4171250000000 1.0
C      1  0.5993010000000  0.4985610000000  0.4741040000000 1.0
C      1  0.4453810000000  0.4977090000000  0.4820060000000 1.0
C      1  0.4758540000000  0.4588610000000  0.4759890000000 1.0
C      1  0.5881460000000  0.4532420000000  0.5159510000000 1.0
C      1  0.5424110000000  0.5475500000000  0.5192630000000 1.0
C      1  0.4571490000000  0.4611820000000  0.4326010000000 1.0
C      1  0.5453340000000  0.4230990000000  0.5432280000000 1.0
C      1  0.4909380000000  0.5576970000000  0.4163210000000 1.0
C      1  0.4352000000000  0.4396100000000  0.5479120000000 1.0
C      1  0.4871660000000  0.4302480000000  0.4351020000000 1.0
C      1  0.5290550000000  0.5523130000000  0.4949740000000 1.0
C      1  0.4768430000000  0.4650300000000  0.4087210000000 1.0
C      1  0.5534590000000  0.5687480000000  0.5538080000000 1.0
C      1  0.4017110000000  0.4818700000000  0.5132440000000 1.0
C      1  0.5301900000000  0.5731850000000  0.4422770000000 1.0
C      1  0.5605930000000  0.5845180000000  0.4869740000000 1.0
C      1  0.5107440000000  0.4677900000000  0.5703270000000 1.0
C      1  0.4959300000000  0.5079820000000  0.3942500000000 1.0
C      1  0.5264900000000  0.4536180000000  0.4798830000000 1.0
C      1  0.4784930000000  0.5525310000000  0.5585870000000 1.0
C      1  0.5236990000000  0.4942390000000  0.4738620000000 1.0
C      1  0.5452630000000  0.5799430000000  0.4645520000000 1.0
C      1  0.4781230000000  0.4144800000000  0.5041250000000 1.0
C      1  0.5221450000000  0.4729920000000  0.4279800000000 1.0
C      1  0.5210880000000  0.4843070000000  0.5893330000000 1.0
C      1  0.4653620000000  0.4691520000000  0.5214530000000 1.0
C      1  0.5394050000000  0.5894060000000  0.5381400000000 1.0
C      1  0.4531760000000  0.5644160000000  0.4705860000000 1.0
C      1  0.4021990000000  0.5105980000000  0.5038920000000 1.0
C      1  0.5418470000000  0.5941880000000  0.5092040000000 1.0
C      1  0.4839070000000  0.5673550000000  0.4667290000000 1.0
C      1  0.4231030000000  0.4530060000000  0.4771550000000 1.0
C      1  0.4836220000000  0.4204710000000  0.5545800000000 1.0
C      1  0.4121820000000  0.4866650000000  0.4470190000000 1.0
C      1  0.5945420000000  0.4781370000000  0.5298980000000 1.0
C      1  0.5104470000000  0.4201500000000  0.4458120000000 1.0
C      1  0.5236750000000  0.4101890000000  0.5241010000000 1.0
C      1  0.4593910000000  0.4350000000000  0.4466140000000 1.0
C      1  0.4599720000000  0.4375410000000  0.5630410000000 1.0
C      1  0.4296950000000  0.5620300000000  0.5433500000000 1.0
C      1  0.4441700000000  0.4328400000000  0.4712690000000 1.0
C      1  0.4786700000000  0.5542520000000  0.5069680000000 1.0
C      1  0.5649270000000  0.5415010000000  0.5573330000000 1.0
C      1  0.5944200000000  0.4478660000000  0.4880530000000 1.0
C      1  0.5952310000000  0.4695310000000  0.4675920000000 1.0
C      1  0.4386440000000  0.5684980000000  0.4451970000000 1.0
C      1  0.4485380000000  0.5409120000000  0.4354350000000 1.0
C      1  0.5513630000000  0.4390360000000  0.5668960000000 1.0
C      1  0.4311940000000  0.4776230000000  0.4265020000000 1.0
C      1  0.5609050000000  0.5022990000000  0.4966870000000 1.0
C      1  0.5473420000000  0.4927750000000  0.5811060000000 1.0
C      1  0.5761960000000  0.4671150000000  0.4436240000000 1.0
C      1  0.5170180000000  0.5210960000000  0.4667090000000 1.0
C      1  0.4613740000000  0.4753380000000  0.4932980000000 1.0
C      1  0.5653090000000  0.5435010000000  0.4633750000000 1.0
C      1  0.4057740000000  0.5330510000000  0.5184860000000 1.0
C      1  0.4905110000000  0.5259820000000  0.4786410000000 1.0
C      1  0.5533130000000  0.4085440000000  0.4768580000000 1.0
C      1  0.5099310000000  0.5948780000000  0.5457870000000 1.0
C      1  0.5617060000000  0.4673130000000  0.5717650000000 1.0
C      1  0.5544060000000  0.4804950000000  0.4300760000000 1.0
C      1  0.5729570000000  0.4330180000000  0.4748990000000 1.0
C      1  0.4899630000000  0.4344450000000  0.4859840000000 1.0
C      1  0.4601090000000  0.5366600000000  0.5762660000000 1.0
C      1  0.4868220000000  0.5106240000000  0.4334100000000 1.0
C      1  0.4709520000000  0.4925370000000  0.4005310000000 1.0
C      1  0.4153360000000  0.4838880000000  0.5623920000000 1.0
END
