TITL C-884141-4321-253 1.3824496245608 125000 -11945.6833962241 0 0 80 (C1) n - 1
REM
REM in /home/nfs/bkarasulu/CARBON/AIRSS/Generating-Clusters/ReaxFF-fromJPCA2015/Units_Real/with-SteepDescent/Only-C1/SD-CG/Try1-3A/FIRE-CG
REM
REM
REM
REM
REM
REM ./C.cell (11c1c37f851c82e70ff6c80c92926a4b)
REM
REM compiler GCC version 9.2.1 20190827 (Red Hat 9.2.1-1)
REM options -cpp -mtune=generic -march=x86-64 -g -O0 -fpre-include=/usr/include/finclude/math-vector-fortran.h
REM seed 956333748 897218624 -43981857 -1374731804 164196482 -377542623 407146692 1393195551 -294322290 1495200652 101755297 -331305883 1572651347 54637288 -91606935 1611201580 190515850 1894633628 187208725 -1130995646 1416338824 -1452353711 1729405130 1456501599 737235897 -676884066 1263061275 -936138965 -1347072788 -880523783 -874620173 2001900363 -642685134
REM
CELL 1.54180   50.00000   50.00000   50.00000   90.00000   90.00000   90.00000
LATT -1
SFAC C  
C      1  0.4961890000000  0.5270360000000  0.5057540000000 1.0
C      1  0.5302980000000  0.4611240000000  0.4275640000000 1.0
C      1  0.4424790000000  0.4869830000000  0.5353150000000 1.0
C      1  0.5048560000000  0.5136250000000  0.5507290000000 1.0
C      1  0.4866760000000  0.5528490000000  0.4385660000000 1.0
C      1  0.5028920000000  0.4680280000000  0.5739090000000 1.0
C      1  0.5702620000000  0.4879790000000  0.4547540000000 1.0
C      1  0.5238750000000  0.5702680000000  0.5318560000000 1.0
C      1  0.5497220000000  0.4595680000000  0.5482880000000 1.0
C      1  0.5023700000000  0.4653230000000  0.4182060000000 1.0
C      1  0.4705930000000  0.4381150000000  0.5053000000000 1.0
C      1  0.5355590000000  0.5678270000000  0.5050460000000 1.0
C      1  0.4503860000000  0.5593600000000  0.5155030000000 1.0
C      1  0.4299530000000  0.4725610000000  0.4892830000000 1.0
C      1  0.4455680000000  0.4891100000000  0.5826810000000 1.0
C      1  0.4370700000000  0.5015840000000  0.4379120000000 1.0
C      1  0.4333560000000  0.5472060000000  0.4639090000000 1.0
C      1  0.5242920000000  0.5196120000000  0.5048670000000 1.0
C      1  0.5774990000000  0.4792270000000  0.4840020000000 1.0
C      1  0.4923310000000  0.4620490000000  0.5034540000000 1.0
C      1  0.5130150000000  0.5753780000000  0.4910340000000 1.0
C      1  0.4917820000000  0.5343430000000  0.5350800000000 1.0
C      1  0.4952170000000  0.5633400000000  0.5325350000000 1.0
C      1  0.4771440000000  0.5722210000000  0.4551570000000 1.0
C      1  0.4738870000000  0.4990990000000  0.4724270000000 1.0
C      1  0.4940480000000  0.4964800000000  0.5718000000000 1.0
C      1  0.4760680000000  0.5728520000000  0.5118640000000 1.0
C      1  0.4695900000000  0.4860590000000  0.5278700000000 1.0
C      1  0.4501840000000  0.5647070000000  0.4499010000000 1.0
C      1  0.4214180000000  0.4896960000000  0.5130360000000 1.0
C      1  0.5805880000000  0.5025840000000  0.5029940000000 1.0
C      1  0.5167110000000  0.4267720000000  0.5229930000000 1.0
C      1  0.4698230000000  0.4388860000000  0.4495560000000 1.0
C      1  0.5211660000000  0.4371140000000  0.4428710000000 1.0
C      1  0.4704690000000  0.4271750000000  0.4757170000000 1.0
C      1  0.5798210000000  0.5290140000000  0.5423670000000 1.0
C      1  0.5279780000000  0.4241070000000  0.4951490000000 1.0
C      1  0.4697580000000  0.5019520000000  0.5870100000000 1.0
C      1  0.4733590000000  0.5213970000000  0.4884350000000 1.0
C      1  0.4558830000000  0.4836360000000  0.4232270000000 1.0
C      1  0.4475990000000  0.4543280000000  0.4987510000000 1.0
C      1  0.5661620000000  0.5149950000000  0.4590760000000 1.0
C      1  0.5402080000000  0.5638160000000  0.5564160000000 1.0
C      1  0.4527760000000  0.4631430000000  0.4437880000000 1.0
C      1  0.5900790000000  0.5449100000000  0.5191170000000 1.0
C      1  0.5063790000000  0.4635580000000  0.4803650000000 1.0
C      1  0.4619440000000  0.4506990000000  0.5571630000000 1.0
C      1  0.4417720000000  0.4698850000000  0.5607910000000 1.0
C      1  0.4443630000000  0.5367190000000  0.4935120000000 1.0
C      1  0.5667370000000  0.4563980000000  0.4939430000000 1.0
C      1  0.5451100000000  0.5394200000000  0.4949500000000 1.0
C      1  0.4920220000000  0.5156780000000  0.4221120000000 1.0
C      1  0.4842210000000  0.4898310000000  0.4162640000000 1.0
C      1  0.5274330000000  0.4648240000000  0.5637090000000 1.0
C      1  0.5436940000000  0.4349460000000  0.5320990000000 1.0
C      1  0.4354300000000  0.5284070000000  0.4438980000000 1.0
C      1  0.4445750000000  0.5355060000000  0.5615710000000 1.0
C      1  0.4958880000000  0.4827960000000  0.5220650000000 1.0
C      1  0.4944630000000  0.4402070000000  0.4309230000000 1.0
C      1  0.5255850000000  0.5286760000000  0.4491540000000 1.0
C      1  0.4460400000000  0.5488010000000  0.5401780000000 1.0
C      1  0.5765820000000  0.5309560000000  0.4959050000000 1.0
C      1  0.5194160000000  0.4398510000000  0.4722140000000 1.0
C      1  0.5441510000000  0.4832340000000  0.4414320000000 1.0
C      1  0.4461500000000  0.5178890000000  0.5829000000000 1.0
C      1  0.5389330000000  0.5428440000000  0.5746700000000 1.0
C      1  0.4873840000000  0.4426840000000  0.5604190000000 1.0
C      1  0.5552800000000  0.4328590000000  0.5046320000000 1.0
C      1  0.5000670000000  0.4871760000000  0.4660820000000 1.0
C      1  0.5226490000000  0.4998720000000  0.4531870000000 1.0
C      1  0.4900260000000  0.4316700000000  0.5338930000000 1.0
C      1  0.5054650000000  0.5377840000000  0.4306250000000 1.0
C      1  0.5637050000000  0.5447430000000  0.5623860000000 1.0
C      1  0.4467570000000  0.4843100000000  0.4642750000000 1.0
C      1  0.5503610000000  0.4873490000000  0.5374330000000 1.0
C      1  0.5750210000000  0.5016020000000  0.5316160000000 1.0
C      1  0.5239630000000  0.5016630000000  0.5287330000000 1.0
C      1  0.4304810000000  0.5134150000000  0.5033770000000 1.0
C      1  0.5496490000000  0.5374590000000  0.4636040000000 1.0
C      1  0.4873420000000  0.5788530000000  0.4848500000000 1.0
END
