TITL C-883732-77-152 1.52863834493625 125000 -16100.4919778796 0 0 108 (C1) n - 1
REM
REM in /home/nfs/bkarasulu/CARBON/AIRSS/Generating-Clusters/ReaxFF-fromJPCA2015/Units_Real/with-SteepDescent/Only-C1/SD-CG/Try1-3A/FIRE-CG
REM
REM
REM
REM
REM
REM ./C.cell (11c1c37f851c82e70ff6c80c92926a4b)
REM
REM compiler GCC version 9.2.1 20190827 (Red Hat 9.2.1-1)
REM options -cpp -mtune=generic -march=x86-64 -g -O0 -fpre-include=/usr/include/finclude/math-vector-fortran.h
REM seed 1895078000 -1273655037 -687734070 -1252295187 308866051 -1781875664 99892184 116664903 1955319436 1114815402 2052857055 1032345390 1521394247 618993869 531550541 654666350 -942045594 -1965016581 1372673590 -1684700598 1869539789 -1721761329 1180564011 -69964314 -952503641 -1598535606 1099503635 -1471323060 -2046817817 1315214726 -145707071 -1359903370 1203955295
REM
CELL 1.54180   50.00000   50.00000   50.00000   90.00000   90.00000   90.00000
LATT -1
SFAC C  
C      1  0.4562740000000  0.4289490000000  0.4671280000000 1.0
C      1  0.4851230000000  0.4662140000000  0.4089440000000 1.0
C      1  0.4325630000000  0.4448400000000  0.4973880000000 1.0
C      1  0.5652230000000  0.4330260000000  0.5155290000000 1.0
C      1  0.5330880000000  0.4159840000000  0.4706020000000 1.0
C      1  0.5223680000000  0.4032680000000  0.4930600000000 1.0
C      1  0.5368310000000  0.5247780000000  0.4012120000000 1.0
C      1  0.5053640000000  0.5185790000000  0.5123280000000 1.0
C      1  0.4828330000000  0.5941570000000  0.5137990000000 1.0
C      1  0.4357970000000  0.5760610000000  0.5510070000000 1.0
C      1  0.4779640000000  0.5608630000000  0.5737630000000 1.0
C      1  0.4788440000000  0.4442990000000  0.4267170000000 1.0
C      1  0.5013840000000  0.5737560000000  0.5629040000000 1.0
C      1  0.4345750000000  0.5785770000000  0.5223790000000 1.0
C      1  0.4258310000000  0.5318110000000  0.4867010000000 1.0
C      1  0.4734870000000  0.4266520000000  0.5378980000000 1.0
C      1  0.5224530000000  0.5483070000000  0.4087180000000 1.0
C      1  0.5410500000000  0.4687950000000  0.5361240000000 1.0
C      1  0.5460270000000  0.4939660000000  0.5814900000000 1.0
C      1  0.5569260000000  0.5018630000000  0.4532980000000 1.0
C      1  0.4956430000000  0.4253210000000  0.5573650000000 1.0
C      1  0.5231330000000  0.5552950000000  0.5630050000000 1.0
C      1  0.4783330000000  0.5281210000000  0.5200930000000 1.0
C      1  0.5357280000000  0.4568940000000  0.4681040000000 1.0
C      1  0.5109330000000  0.4782310000000  0.4160600000000 1.0
C      1  0.5267380000000  0.5628220000000  0.4719110000000 1.0
C      1  0.4305940000000  0.4750160000000  0.4871370000000 1.0
C      1  0.5579740000000  0.4755690000000  0.5582840000000 1.0
C      1  0.5254550000000  0.4335710000000  0.4504470000000 1.0
C      1  0.4824650000000  0.4169410000000  0.4653240000000 1.0
C      1  0.5231200000000  0.5137300000000  0.5337940000000 1.0
C      1  0.4800020000000  0.4806690000000  0.4880110000000 1.0
C      1  0.4599830000000  0.4539200000000  0.4485010000000 1.0
C      1  0.4188980000000  0.4787030000000  0.5175910000000 1.0
C      1  0.5354680000000  0.5601330000000  0.5337330000000 1.0
C      1  0.5227890000000  0.4616580000000  0.5158470000000 1.0
C      1  0.5651820000000  0.4591830000000  0.4749390000000 1.0
C      1  0.5016460000000  0.5302100000000  0.4449920000000 1.0
C      1  0.5946300000000  0.5041030000000  0.4691140000000 1.0
C      1  0.4540290000000  0.5704670000000  0.5645440000000 1.0
C      1  0.5028290000000  0.4816270000000  0.4443950000000 1.0
C      1  0.4134390000000  0.5286270000000  0.5124500000000 1.0
C      1  0.4750070000000  0.5387960000000  0.4810070000000 1.0
C      1  0.5041290000000  0.5117700000000  0.5938990000000 1.0
C      1  0.4541760000000  0.4488370000000  0.5422000000000 1.0
C      1  0.5355780000000  0.4478310000000  0.5739270000000 1.0
C      1  0.4203870000000  0.5035930000000  0.5311890000000 1.0
C      1  0.4552330000000  0.4914760000000  0.4842660000000 1.0
C      1  0.5160860000000  0.4579370000000  0.5921540000000 1.0
C      1  0.5188670000000  0.5900480000000  0.4713890000000 1.0
C      1  0.4190700000000  0.5550600000000  0.5215080000000 1.0
C      1  0.4394020000000  0.5100930000000  0.5522860000000 1.0
C      1  0.5551770000000  0.5415000000000  0.5232640000000 1.0
C      1  0.5809750000000  0.4860910000000  0.5135420000000 1.0
C      1  0.4958780000000  0.4618110000000  0.5290950000000 1.0
C      1  0.5797540000000  0.5202980000000  0.4478220000000 1.0
C      1  0.4699550000000  0.5496040000000  0.5044230000000 1.0
C      1  0.4628170000000  0.5253570000000  0.5449740000000 1.0
C      1  0.5483620000000  0.4195020000000  0.5360390000000 1.0
C      1  0.4729510000000  0.4162310000000  0.5108510000000 1.0
C      1  0.4932820000000  0.4798880000000  0.5515670000000 1.0
C      1  0.4161840000000  0.4783920000000  0.4583350000000 1.0
C      1  0.5276010000000  0.4276210000000  0.5558290000000 1.0
C      1  0.4531910000000  0.5264010000000  0.4404040000000 1.0
C      1  0.5230160000000  0.5331250000000  0.5821930000000 1.0
C      1  0.4963570000000  0.4412200000000  0.5800620000000 1.0
C      1  0.5642510000000  0.5449530000000  0.4449230000000 1.0
C      1  0.4988600000000  0.5994940000000  0.4907410000000 1.0
C      1  0.4825630000000  0.4702410000000  0.4612490000000 1.0
C      1  0.4378710000000  0.4769720000000  0.4401440000000 1.0
C      1  0.5211100000000  0.4886410000000  0.5947750000000 1.0
C      1  0.4971050000000  0.4280260000000  0.4424510000000 1.0
C      1  0.5533790000000  0.5525410000000  0.4709580000000 1.0
C      1  0.4652460000000  0.4738490000000  0.5547600000000 1.0
C      1  0.5619640000000  0.5310450000000  0.4953170000000 1.0
C      1  0.4510850000000  0.4249030000000  0.4935860000000 1.0
C      1  0.5449310000000  0.5124030000000  0.4781740000000 1.0
C      1  0.4940660000000  0.5375870000000  0.4175830000000 1.0
C      1  0.5010470000000  0.5894920000000  0.5365010000000 1.0
C      1  0.5772680000000  0.4807880000000  0.4598150000000 1.0
C      1  0.5474300000000  0.4095310000000  0.5089260000000 1.0
C      1  0.5192950000000  0.4711790000000  0.4875810000000 1.0
C      1  0.4684750000000  0.5499270000000  0.4322200000000 1.0
C      1  0.4902000000000  0.5117510000000  0.4005460000000 1.0
C      1  0.4702440000000  0.4920470000000  0.4072620000000 1.0
C      1  0.5478690000000  0.5213310000000  0.5737220000000 1.0
C      1  0.5196860000000  0.5788800000000  0.5199210000000 1.0
C      1  0.5176140000000  0.5029540000000  0.4856180000000 1.0
C      1  0.4968140000000  0.5492090000000  0.4649180000000 1.0
C      1  0.4301490000000  0.4530860000000  0.5252710000000 1.0
C      1  0.4803440000000  0.5295380000000  0.5665500000000 1.0
C      1  0.4499850000000  0.5009420000000  0.4266240000000 1.0
C      1  0.4739760000000  0.4709840000000  0.5143250000000 1.0
C      1  0.5087970000000  0.5066280000000  0.4568200000000 1.0
C      1  0.5851060000000  0.5090670000000  0.4960010000000 1.0
C      1  0.5728860000000  0.4582030000000  0.5029210000000 1.0
C      1  0.4932650000000  0.4096040000000  0.4915180000000 1.0
C      1  0.4618830000000  0.5756480000000  0.5098460000000 1.0
C      1  0.5558120000000  0.5193390000000  0.5427960000000 1.0
C      1  0.4555670000000  0.4955580000000  0.5724550000000 1.0
C      1  0.5173530000000  0.5022390000000  0.3999480000000 1.0
C      1  0.4776630000000  0.5700890000000  0.4513830000000 1.0
C      1  0.5735490000000  0.4943140000000  0.5401810000000 1.0
C      1  0.4757980000000  0.5108870000000  0.5874700000000 1.0
C      1  0.5489940000000  0.5459040000000  0.4190650000000 1.0
C      1  0.4514230000000  0.5216920000000  0.4717840000000 1.0
C      1  0.4904750000000  0.5932120000000  0.4625000000000 1.0
C      1  0.5021550000000  0.5072850000000  0.5520000000000 1.0
END
