TITL C-883726-8501-151 152.457107563798 125000 -28159.9521638717 0 0 191 (C1) n - 1
REM
REM in /home/nfs/bkarasulu/CARBON/AIRSS/Generating-Clusters/ReaxFF-fromJPCA2015/Units_Real/with-SteepDescent/Only-C1/SD-CG/Try1-3A/FIRE-CG
REM
REM
REM
REM
REM
REM ./C.cell (11c1c37f851c82e70ff6c80c92926a4b)
REM
REM compiler GCC version 9.2.1 20190827 (Red Hat 9.2.1-1)
REM options -cpp -mtune=generic -march=x86-64 -g -O0 -fpre-include=/usr/include/finclude/math-vector-fortran.h
REM seed -758490504 -1605753813 1598874029 331258024 -1967302966 -1563127403 -1920012896 -45954924 1166490628 -1835198255 -766173310 -1117750403 -1739048093 1673668455 -350056172 681775589 573222947 2106027035 1162201554 -1188685997 -721633532 758824738 514913222 1152406752 217363501 2051293972 1410784618 -1898326516 -1548221699 1488799896 734865588 334187718 -1084449781
REM
CELL 1.54180   50.00000   50.00000   50.00000   90.00000   90.00000   90.00000
LATT -1
SFAC C  
C      1  0.5372220000000  0.4902970000000  0.4093670000000 1.0
C      1  0.5092530000000  0.4532420000000  0.5475070000000 1.0
C      1  0.5010230000000  0.4748120000000  0.6068820000000 1.0
C      1  0.4707750000000  0.5966450000000  0.5182670000000 1.0
C      1  0.4360520000000  0.5693220000000  0.4827050000000 1.0
C      1  0.5364100000000  0.4605990000000  0.4076430000000 1.0
C      1  0.4383910000000  0.4049400000000  0.5064890000000 1.0
C      1  0.5014350000000  0.5294040000000  0.6150580000000 1.0
C      1  0.5958460000000  0.4691900000000  0.4644240000000 1.0
C      1  0.4834630000000  0.5631580000000  0.4834180000000 1.0
C      1  0.6027270000000  0.4979430000000  0.4657230000000 1.0
C      1  0.5749710000000  0.5562660000000  0.4910830000000 1.0
C      1  0.5125670000000  0.6096830000000  0.5397430000000 1.0
C      1  0.5888360000000  0.5107150000000  0.4445450000000 1.0
C      1  0.4304620000000  0.5714200000000  0.5694630000000 1.0
C      1  0.4700830000000  0.4382940000000  0.5932580000000 1.0
C      1  0.5331890000000  0.5037720000000  0.5896970000000 1.0
C      1  0.5994120000000  0.4624750000000  0.4920160000000 1.0
C      1  0.4866070000000  0.4552310000000  0.5074320000000 1.0
C      1  0.4174110000000  0.5406360000000  0.5069820000000 1.0
C      1  0.5256680000000  0.5088100000000  0.3888940000000 1.0
C      1  0.4691130000000  0.5347110000000  0.3959350000000 1.0
C      1  0.5523140000000  0.5272160000000  0.5476710000000 1.0
C      1  0.5551800000000  0.4469540000000  0.4270790000000 1.0
C      1  0.5742380000000  0.4899310000000  0.5684150000000 1.0
C      1  0.4359950000000  0.4957080000000  0.4614000000000 1.0
C      1  0.5118800000000  0.6063340000000  0.4865880000000 1.0
C      1  0.4348140000000  0.5033210000000  0.4129990000000 1.0
C      1  0.5925960000000  0.4703420000000  0.5553390000000 1.0
C      1  0.4852170000000  0.5872890000000  0.5706860000000 1.0
C      1  0.4994720000000  0.5188050000000  0.4818720000000 1.0
C      1  0.5225890000000  0.5568850000000  0.5358430000000 1.0
C      1  0.5364070000000  0.4700110000000  0.5087520000000 1.0
C      1  0.5374260000000  0.3918620000000  0.5000140000000 1.0
C      1  0.5899280000000  0.5126200000000  0.5257540000000 1.0
C      1  0.5461980000000  0.4903090000000  0.5263720000000 1.0
C      1  0.5079350000000  0.4860590000000  0.4363330000000 1.0
C      1  0.4592590000000  0.4780680000000  0.5600210000000 1.0
C      1  0.4555750000000  0.5735060000000  0.4260780000000 1.0
C      1  0.5560480000000  0.4308430000000  0.5623760000000 1.0
C      1  0.4761370000000  0.4040070000000  0.4712110000000 1.0
C      1  0.4486060000000  0.5284340000000  0.5658430000000 1.0
C      1  0.4479230000000  0.4764570000000  0.6020140000000 1.0
C      1  0.5838450000000  0.4424590000000  0.5539460000000 1.0
C      1  0.4768270000000  0.3902610000000  0.5198100000000 1.0
C      1  0.5589800000000  0.5185070000000  0.5961120000000 1.0
C      1  0.3896360000000  0.5366830000000  0.5388250000000 1.0
C      1  0.4868380000000  0.4397070000000  0.4382950000000 1.0
C      1  0.4618390000000  0.5230570000000  0.5919440000000 1.0
C      1  0.5251460000000  0.4224250000000  0.4940610000000 1.0
C      1  0.5261320000000  0.4604530000000  0.4667720000000 1.0
C      1  0.6126920000000  0.5090540000000  0.4911710000000 1.0
C      1  0.4204300000000  0.4499650000000  0.5646690000000 1.0
C      1  0.4582940000000  0.5005470000000  0.6068420000000 1.0
C      1  0.4978830000000  0.5892220000000  0.4378620000000 1.0
C      1  0.5054160000000  0.4074910000000  0.4776990000000 1.0
C      1  0.4678830000000  0.4531910000000  0.4577710000000 1.0
C      1  0.5519920000000  0.5233700000000  0.4678690000000 1.0
C      1  0.4903590000000  0.5331160000000  0.4456080000000 1.0
C      1  0.4240900000000  0.4659420000000  0.5107480000000 1.0
C      1  0.4316190000000  0.5568230000000  0.4257980000000 1.0
C      1  0.5088220000000  0.4639080000000  0.3974200000000 1.0
C      1  0.4192940000000  0.4237790000000  0.4957180000000 1.0
C      1  0.5014870000000  0.5726150000000  0.4119770000000 1.0
C      1  0.4241810000000  0.5426350000000  0.5732660000000 1.0
C      1  0.4579530000000  0.5792950000000  0.5719750000000 1.0
C      1  0.5796630000000  0.5184500000000  0.5756110000000 1.0
C      1  0.4661600000000  0.4501700000000  0.4865440000000 1.0
C      1  0.5008810000000  0.5428360000000  0.4977340000000 1.0
C      1  0.5780540000000  0.4522490000000  0.4470630000000 1.0
C      1  0.5795030000000  0.4443240000000  0.5061410000000 1.0
C      1  0.5351900000000  0.5443150000000  0.5573060000000 1.0
C      1  0.5607450000000  0.5784350000000  0.4381050000000 1.0
C      1  0.5008030000000  0.4066590000000  0.5279340000000 1.0
C      1  0.4526900000000  0.4904050000000  0.3970470000000 1.0
C      1  0.5108230000000  0.4709710000000  0.4940810000000 1.0
C      1  0.5133250000000  0.5146010000000  0.4378620000000 1.0
C      1  0.5413260000000  0.4386940000000  0.4768880000000 1.0
C      1  0.4426240000000  0.5442510000000  0.5215640000000 1.0
C      1  0.5666920000000  0.3943730000000  0.4975450000000 1.0
C      1  0.4087010000000  0.5439740000000  0.4413200000000 1.0
C      1  0.4002380000000  0.5615370000000  0.5276060000000 1.0
C      1  0.6037430000000  0.5312380000000  0.5091620000000 1.0
C      1  0.5776060000000  0.5404990000000  0.5549880000000 1.0
C      1  0.6132200000000  0.4836450000000  0.5062360000000 1.0
C      1  0.4832100000000  0.4164700000000  0.5790060000000 1.0
C      1  0.4758730000000  0.5607740000000  0.4071540000000 1.0
C      1  0.5695000000000  0.4892440000000  0.4400300000000 1.0
C      1  0.5067940000000  0.4330580000000  0.5720280000000 1.0
C      1  0.4266040000000  0.5450420000000  0.4789200000000 1.0
C      1  0.4655810000000  0.4509900000000  0.5672980000000 1.0
C      1  0.4677010000000  0.5042100000000  0.5232600000000 1.0
C      1  0.3976340000000  0.4734920000000  0.4974410000000 1.0
C      1  0.4436220000000  0.4337600000000  0.5588220000000 1.0
C      1  0.3882020000000  0.4940160000000  0.5161720000000 1.0
C      1  0.5474250000000  0.4830040000000  0.4607680000000 1.0
C      1  0.4724760000000  0.4622950000000  0.6094370000000 1.0
C      1  0.5260470000000  0.3889450000000  0.4699730000000 1.0
C      1  0.5124000000000  0.5013470000000  0.6104170000000 1.0
C      1  0.5426080000000  0.5561900000000  0.4295400000000 1.0
C      1  0.5239910000000  0.4640640000000  0.5950720000000 1.0
C      1  0.5511720000000  0.4064140000000  0.5434910000000 1.0
C      1  0.4239010000000  0.4582800000000  0.4199270000000 1.0
C      1  0.5016310000000  0.5367370000000  0.5292370000000 1.0
C      1  0.4964980000000  0.4358640000000  0.5269730000000 1.0
C      1  0.5476280000000  0.5451800000000  0.6022200000000 1.0
C      1  0.5030060000000  0.5047940000000  0.5271770000000 1.0
C      1  0.4713390000000  0.4788130000000  0.5350000000000 1.0
C      1  0.5381870000000  0.5703370000000  0.5158150000000 1.0
C      1  0.5433420000000  0.4531450000000  0.5447150000000 1.0
C      1  0.4500060000000  0.5217390000000  0.5380120000000 1.0
C      1  0.4858810000000  0.6032680000000  0.5428170000000 1.0
C      1  0.5367550000000  0.5861490000000  0.5732670000000 1.0
C      1  0.5349270000000  0.4291480000000  0.4362520000000 1.0
C      1  0.4591540000000  0.4979780000000  0.4953810000000 1.0
C      1  0.5333840000000  0.5982720000000  0.5062330000000 1.0
C      1  0.5831410000000  0.5353840000000  0.4302000000000 1.0
C      1  0.5264260000000  0.5593390000000  0.4049670000000 1.0
C      1  0.5432290000000  0.5886280000000  0.4596740000000 1.0
C      1  0.4642050000000  0.6045780000000  0.4696350000000 1.0
C      1  0.4013100000000  0.4515690000000  0.5430150000000 1.0
C      1  0.4425720000000  0.4616810000000  0.3973620000000 1.0
C      1  0.4776470000000  0.5531840000000  0.5425040000000 1.0
C      1  0.3945750000000  0.4809170000000  0.5421950000000 1.0
C      1  0.5516990000000  0.4808450000000  0.5516900000000 1.0
C      1  0.5649650000000  0.5277760000000  0.4087390000000 1.0
C      1  0.5169430000000  0.5471830000000  0.5948150000000 1.0
C      1  0.5438020000000  0.4049590000000  0.4531220000000 1.0
C      1  0.4133190000000  0.4396880000000  0.4690540000000 1.0
C      1  0.4775820000000  0.5040080000000  0.4747600000000 1.0
C      1  0.4890810000000  0.4440760000000  0.4060100000000 1.0
C      1  0.5629480000000  0.5001190000000  0.4147230000000 1.0
C      1  0.4703480000000  0.4129000000000  0.4443540000000 1.0
C      1  0.4611310000000  0.3921950000000  0.4940240000000 1.0
C      1  0.5389030000000  0.5344300000000  0.3949080000000 1.0
C      1  0.4171780000000  0.4389190000000  0.5206600000000 1.0
C      1  0.5734480000000  0.4038250000000  0.5248120000000 1.0
C      1  0.4082800000000  0.4960600000000  0.5622590000000 1.0
C      1  0.4822840000000  0.4908210000000  0.4495030000000 1.0
C      1  0.4562470000000  0.4779660000000  0.4501060000000 1.0
C      1  0.4037300000000  0.5246260000000  0.5622410000000 1.0
C      1  0.5825630000000  0.5662250000000  0.4710210000000 1.0
C      1  0.5129150000000  0.5000380000000  0.4974620000000 1.0
C      1  0.5542650000000  0.5362750000000  0.4937610000000 1.0
C      1  0.4643390000000  0.4444600000000  0.3940500000000 1.0
C      1  0.4542040000000  0.3981460000000  0.5351710000000 1.0
C      1  0.4999930000000  0.5615730000000  0.4577130000000 1.0
C      1  0.4442840000000  0.5322530000000  0.4129700000000 1.0
C      1  0.5183840000000  0.6035930000000  0.4583560000000 1.0
C      1  0.5712680000000  0.5644140000000  0.5378800000000 1.0
C      1  0.5675250000000  0.4053630000000  0.4704450000000 1.0
C      1  0.4763500000000  0.5067680000000  0.3907040000000 1.0
C      1  0.4471040000000  0.4713940000000  0.4939220000000 1.0
C      1  0.6029690000000  0.4876240000000  0.5333970000000 1.0
C      1  0.5896950000000  0.5577450000000  0.5107260000000 1.0
C      1  0.5399560000000  0.5005670000000  0.4794620000000 1.0
C      1  0.3997710000000  0.4651370000000  0.4703010000000 1.0
C      1  0.5894530000000  0.4281350000000  0.5294540000000 1.0
C      1  0.4312830000000  0.4770720000000  0.5732930000000 1.0
C      1  0.5504220000000  0.4467220000000  0.5156000000000 1.0
C      1  0.5556780000000  0.5873780000000  0.5488280000000 1.0
C      1  0.3930460000000  0.5224000000000  0.5140540000000 1.0
C      1  0.4591390000000  0.4094290000000  0.5612370000000 1.0
C      1  0.5280080000000  0.5650300000000  0.4678320000000 1.0
C      1  0.4733690000000  0.5379020000000  0.6177180000000 1.0
C      1  0.4170970000000  0.4849080000000  0.4256400000000 1.0
C      1  0.4617230000000  0.5299640000000  0.4417920000000 1.0
C      1  0.5700140000000  0.4352300000000  0.4713070000000 1.0
C      1  0.4595050000000  0.5679590000000  0.5250760000000 1.0
C      1  0.5223410000000  0.5261490000000  0.5736160000000 1.0
C      1  0.5594070000000  0.5163660000000  0.5205310000000 1.0
C      1  0.4442620000000  0.4202890000000  0.4477310000000 1.0
C      1  0.4428970000000  0.5239670000000  0.4632260000000 1.0
C      1  0.4971410000000  0.4817400000000  0.5443570000000 1.0
C      1  0.5019580000000  0.4923980000000  0.3890380000000 1.0
C      1  0.4827930000000  0.6067200000000  0.4930750000000 1.0
C      1  0.5139620000000  0.4508360000000  0.4425740000000 1.0
C      1  0.5380400000000  0.5308620000000  0.4434960000000 1.0
C      1  0.5324680000000  0.4395590000000  0.5838540000000 1.0
C      1  0.5103370000000  0.5758400000000  0.5808370000000 1.0
C      1  0.4689080000000  0.5932550000000  0.4426930000000 1.0
C      1  0.5844800000000  0.5621020000000  0.4436390000000 1.0
C      1  0.4226300000000  0.4357590000000  0.4409860000000 1.0
C      1  0.5310790000000  0.5534420000000  0.4934100000000 1.0
C      1  0.5281770000000  0.3964140000000  0.5294520000000 1.0
C      1  0.4066210000000  0.4917390000000  0.4530600000000 1.0
C      1  0.5397880000000  0.6083210000000  0.5332580000000 1.0
C      1  0.4128890000000  0.5801180000000  0.5456600000000 1.0
C      1  0.3954440000000  0.5209620000000  0.4522890000000 1.0
C      1  0.5530330000000  0.5660690000000  0.5843890000000 1.0
C      1  0.4452720000000  0.5920390000000  0.4863900000000 1.0
END
