TITL C-884140-4336-262 5.13943153598919 125000 -26318.899335002 0 0 177 (C1) n - 1
REM
REM in /home/nfs/bkarasulu/CARBON/AIRSS/Generating-Clusters/ReaxFF-fromJPCA2015/Units_Real/with-SteepDescent/Only-C1/SD-CG/Try1-3A/FIRE-CG
REM
REM
REM
REM
REM
REM ./C.cell (11c1c37f851c82e70ff6c80c92926a4b)
REM
REM compiler GCC version 9.2.1 20190827 (Red Hat 9.2.1-1)
REM options -cpp -mtune=generic -march=x86-64 -g -O0 -fpre-include=/usr/include/finclude/math-vector-fortran.h
REM seed -528812931 -1789802872 -1529420421 -1618255015 842999381 -330606733 -1732109532 1141888625 915278579 -1797255912 1255308225 -1888549983 -2111819404 592330843 -833646787 -1116167488 -702802999 1459953277 -1912795658 -1618130512 -1416444453 662043104 1840196326 255550972 -282633604 -27039215 1808653139 1800772140 -767326554 1158147054 -152324827 1481156807 23576886
REM
CELL 1.54180   50.00000   50.00000   50.00000   90.00000   90.00000   90.00000
LATT -1
SFAC C  
C      1  0.4371970000000  0.5132350000000  0.6037690000000 1.0
C      1  0.5446310000000  0.5881530000000  0.4941400000000 1.0
C      1  0.5714710000000  0.5415060000000  0.4829410000000 1.0
C      1  0.5391410000000  0.5535390000000  0.5904090000000 1.0
C      1  0.4789920000000  0.4046020000000  0.5410870000000 1.0
C      1  0.4815370000000  0.5256030000000  0.4911110000000 1.0
C      1  0.4783960000000  0.4074120000000  0.4403990000000 1.0
C      1  0.5626420000000  0.4424850000000  0.4327910000000 1.0
C      1  0.5489690000000  0.5699830000000  0.4499090000000 1.0
C      1  0.4998840000000  0.5118190000000  0.4464850000000 1.0
C      1  0.5590870000000  0.4660050000000  0.4151970000000 1.0
C      1  0.4672930000000  0.3869420000000  0.5045100000000 1.0
C      1  0.4138200000000  0.5307370000000  0.4961250000000 1.0
C      1  0.4625890000000  0.5415880000000  0.5049210000000 1.0
C      1  0.4344680000000  0.5318240000000  0.5845800000000 1.0
C      1  0.4986000000000  0.5824560000000  0.5631360000000 1.0
C      1  0.5760020000000  0.4159230000000  0.5074560000000 1.0
C      1  0.4498890000000  0.5174910000000  0.4497950000000 1.0
C      1  0.4284360000000  0.4767450000000  0.5641790000000 1.0
C      1  0.5197910000000  0.4992100000000  0.4011090000000 1.0
C      1  0.4747770000000  0.5692200000000  0.5712440000000 1.0
C      1  0.4534170000000  0.5069740000000  0.4045700000000 1.0
C      1  0.4622300000000  0.4765090000000  0.4435940000000 1.0
C      1  0.5782000000000  0.5660020000000  0.5373130000000 1.0
C      1  0.5304090000000  0.5700440000000  0.5664040000000 1.0
C      1  0.5284450000000  0.5016630000000  0.5728710000000 1.0
C      1  0.6005220000000  0.5200970000000  0.5342880000000 1.0
C      1  0.5064230000000  0.3998630000000  0.4438580000000 1.0
C      1  0.4057770000000  0.4495760000000  0.4646250000000 1.0
C      1  0.5431970000000  0.4701490000000  0.5342220000000 1.0
C      1  0.5251610000000  0.5308640000000  0.4763140000000 1.0
C      1  0.4357250000000  0.5050520000000  0.5014320000000 1.0
C      1  0.4513260000000  0.4612040000000  0.4955600000000 1.0
C      1  0.5164340000000  0.4297980000000  0.5253490000000 1.0
C      1  0.4423850000000  0.4006600000000  0.4982010000000 1.0
C      1  0.5749240000000  0.4427400000000  0.5593180000000 1.0
C      1  0.5618880000000  0.4129680000000  0.4823630000000 1.0
C      1  0.5728380000000  0.4908440000000  0.4929860000000 1.0
C      1  0.4272350000000  0.4319500000000  0.4568970000000 1.0
C      1  0.4371760000000  0.5774620000000  0.5008120000000 1.0
C      1  0.4521030000000  0.5698710000000  0.5462840000000 1.0
C      1  0.4297680000000  0.4498010000000  0.5755560000000 1.0
C      1  0.3897270000000  0.4743340000000  0.4714200000000 1.0
C      1  0.4850610000000  0.3887770000000  0.4820280000000 1.0
C      1  0.5370620000000  0.5867780000000  0.4290850000000 1.0
C      1  0.5148680000000  0.5336610000000  0.4364710000000 1.0
C      1  0.5114700000000  0.4722810000000  0.3969560000000 1.0
C      1  0.4580630000000  0.4786890000000  0.4019000000000 1.0
C      1  0.5394740000000  0.5648710000000  0.4104240000000 1.0
C      1  0.4848150000000  0.4712160000000  0.6008790000000 1.0
C      1  0.3992980000000  0.5115880000000  0.5377550000000 1.0
C      1  0.4885350000000  0.5672410000000  0.4188540000000 1.0
C      1  0.4448360000000  0.4167540000000  0.4745040000000 1.0
C      1  0.5157640000000  0.5952250000000  0.4492060000000 1.0
C      1  0.5651130000000  0.5086180000000  0.5970840000000 1.0
C      1  0.5818420000000  0.5295410000000  0.4576660000000 1.0
C      1  0.5631300000000  0.5208690000000  0.4207490000000 1.0
C      1  0.5079290000000  0.4015380000000  0.5319270000000 1.0
C      1  0.4041260000000  0.4848940000000  0.5470260000000 1.0
C      1  0.4238990000000  0.5592170000000  0.5392410000000 1.0
C      1  0.5922030000000  0.4877310000000  0.5346740000000 1.0
C      1  0.4801580000000  0.4598470000000  0.4580810000000 1.0
C      1  0.4851230000000  0.5009540000000  0.5944790000000 1.0
C      1  0.5852070000000  0.4697030000000  0.5608770000000 1.0
C      1  0.4402670000000  0.4370600000000  0.4308050000000 1.0
C      1  0.5344220000000  0.5439030000000  0.4526690000000 1.0
C      1  0.5854430000000  0.5395040000000  0.5486850000000 1.0
C      1  0.4140030000000  0.4424170000000  0.5273680000000 1.0
C      1  0.4508510000000  0.4932320000000  0.5231590000000 1.0
C      1  0.4900070000000  0.5988420000000  0.4871080000000 1.0
C      1  0.4977680000000  0.5513670000000  0.5336860000000 1.0
C      1  0.5350090000000  0.5627240000000  0.5042220000000 1.0
C      1  0.4581560000000  0.4684710000000  0.5939480000000 1.0
C      1  0.3977880000000  0.4963600000000  0.4519190000000 1.0
C      1  0.4990760000000  0.4476650000000  0.4397540000000 1.0
C      1  0.5113360000000  0.5000210000000  0.4707730000000 1.0
C      1  0.4170330000000  0.4755530000000  0.4585120000000 1.0
C      1  0.4664430000000  0.5522800000000  0.4095530000000 1.0
C      1  0.5000310000000  0.5009940000000  0.5692030000000 1.0
C      1  0.5601780000000  0.4913590000000  0.5204880000000 1.0
C      1  0.5177770000000  0.5982120000000  0.5238560000000 1.0
C      1  0.4397600000000  0.5909030000000  0.4629490000000 1.0
C      1  0.5366970000000  0.3948140000000  0.4856160000000 1.0
C      1  0.4935000000000  0.5285950000000  0.6016420000000 1.0
C      1  0.5721140000000  0.4334360000000  0.4609920000000 1.0
C      1  0.5359130000000  0.4545940000000  0.4024930000000 1.0
C      1  0.5702520000000  0.4849310000000  0.5802140000000 1.0
C      1  0.5518840000000  0.4350010000000  0.5786620000000 1.0
C      1  0.5227830000000  0.3923440000000  0.5099990000000 1.0
C      1  0.5915150000000  0.4475000000000  0.4727300000000 1.0
C      1  0.4931400000000  0.4985510000000  0.4941160000000 1.0
C      1  0.4748810000000  0.5503650000000  0.5938430000000 1.0
C      1  0.5637290000000  0.5371660000000  0.5884210000000 1.0
C      1  0.4755870000000  0.4518180000000  0.5498420000000 1.0
C      1  0.4740950000000  0.5252070000000  0.3978220000000 1.0
C      1  0.4503720000000  0.5387500000000  0.6049740000000 1.0
C      1  0.4632510000000  0.4229210000000  0.4226830000000 1.0
C      1  0.4371200000000  0.4869300000000  0.5917130000000 1.0
C      1  0.5920250000000  0.5647180000000  0.5111030000000 1.0
C      1  0.5008920000000  0.4298020000000  0.4877390000000 1.0
C      1  0.5185190000000  0.5986050000000  0.4778660000000 1.0
C      1  0.4195610000000  0.4373330000000  0.5544630000000 1.0
C      1  0.5127060000000  0.5488390000000  0.4102070000000 1.0
C      1  0.4645690000000  0.6038400000000  0.4669930000000 1.0
C      1  0.5190740000000  0.4256410000000  0.4402670000000 1.0
C      1  0.4428550000000  0.4445720000000  0.5182140000000 1.0
C      1  0.4904650000000  0.5060750000000  0.5442850000000 1.0
C      1  0.5642040000000  0.5481330000000  0.4148400000000 1.0
C      1  0.4438760000000  0.4650110000000  0.4239490000000 1.0
C      1  0.4350930000000  0.4828490000000  0.4856020000000 1.0
C      1  0.3976750000000  0.4675740000000  0.5246680000000 1.0
C      1  0.4903550000000  0.5812210000000  0.4441580000000 1.0
C      1  0.5069800000000  0.4504150000000  0.5945840000000 1.0
C      1  0.5397500000000  0.5131760000000  0.5214960000000 1.0
C      1  0.4574360000000  0.5592340000000  0.4817480000000 1.0
C      1  0.5194880000000  0.4503680000000  0.4793230000000 1.0
C      1  0.4169660000000  0.5331370000000  0.5485350000000 1.0
C      1  0.6119420000000  0.4830360000000  0.4667160000000 1.0
C      1  0.5203520000000  0.4737310000000  0.4620850000000 1.0
C      1  0.4088490000000  0.5217710000000  0.4466000000000 1.0
C      1  0.3929320000000  0.5116540000000  0.5089890000000 1.0
C      1  0.4993830000000  0.5441640000000  0.4806150000000 1.0
C      1  0.6083900000000  0.5392150000000  0.5134770000000 1.0
C      1  0.4835920000000  0.4634690000000  0.3981920000000 1.0
C      1  0.6058110000000  0.4714040000000  0.5153060000000 1.0
C      1  0.5397990000000  0.5241090000000  0.5500650000000 1.0
C      1  0.5010150000000  0.4524950000000  0.5370100000000 1.0
C      1  0.5180960000000  0.5462900000000  0.5537160000000 1.0
C      1  0.5434080000000  0.4770740000000  0.5682240000000 1.0
C      1  0.4775910000000  0.6018340000000  0.5173560000000 1.0
C      1  0.4987130000000  0.4537090000000  0.4979400000000 1.0
C      1  0.4513690000000  0.4669090000000  0.5384460000000 1.0
C      1  0.6118060000000  0.4612800000000  0.4877950000000 1.0
C      1  0.4105630000000  0.5416090000000  0.4675690000000 1.0
C      1  0.4689080000000  0.5486740000000  0.5320900000000 1.0
C      1  0.5122970000000  0.3871910000000  0.4700710000000 1.0
C      1  0.5085020000000  0.5006080000000  0.5214170000000 1.0
C      1  0.4433720000000  0.5512310000000  0.4278980000000 1.0
C      1  0.4188450000000  0.5576860000000  0.5113280000000 1.0
C      1  0.5349990000000  0.4569240000000  0.5897770000000 1.0
C      1  0.5159080000000  0.4738830000000  0.5260630000000 1.0
C      1  0.4567740000000  0.4112010000000  0.5225640000000 1.0
C      1  0.5221280000000  0.5344220000000  0.6044230000000 1.0
C      1  0.5777490000000  0.5737230000000  0.4555420000000 1.0
C      1  0.4786800000000  0.4248960000000  0.5617680000000 1.0
C      1  0.4327700000000  0.5227090000000  0.4253500000000 1.0
C      1  0.3907800000000  0.4840200000000  0.5017200000000 1.0
C      1  0.4779790000000  0.4680970000000  0.4860370000000 1.0
C      1  0.5367350000000  0.5091330000000  0.6016430000000 1.0
C      1  0.4753270000000  0.4149080000000  0.4701620000000 1.0
C      1  0.6003610000000  0.4997740000000  0.4855360000000 1.0
C      1  0.5451030000000  0.5353330000000  0.4981790000000 1.0
C      1  0.4949220000000  0.6021480000000  0.5413540000000 1.0
C      1  0.5540970000000  0.5797490000000  0.5451220000000 1.0
C      1  0.4504380000000  0.5450130000000  0.4556480000000 1.0
C      1  0.5466760000000  0.5972730000000  0.5238790000000 1.0
C      1  0.5035240000000  0.5217580000000  0.3968200000000 1.0
C      1  0.5445610000000  0.4851890000000  0.4504940000000 1.0
C      1  0.4841990000000  0.4392380000000  0.4143250000000 1.0
C      1  0.5589210000000  0.4881640000000  0.4710760000000 1.0
C      1  0.5121210000000  0.5700270000000  0.5169490000000 1.0
C      1  0.5747320000000  0.5712880000000  0.4856140000000 1.0
C      1  0.5481120000000  0.4964820000000  0.4190360000000 1.0
C      1  0.4619670000000  0.5094090000000  0.5441680000000 1.0
C      1  0.4445550000000  0.5282900000000  0.5575610000000 1.0
C      1  0.5011980000000  0.4244240000000  0.5820520000000 1.0
C      1  0.4188800000000  0.5707470000000  0.4634660000000 1.0
C      1  0.4525790000000  0.5898070000000  0.5227630000000 1.0
C      1  0.5287770000000  0.4190790000000  0.5773780000000 1.0
C      1  0.5434610000000  0.4412910000000  0.5276770000000 1.0
C      1  0.5680480000000  0.4282590000000  0.5341250000000 1.0
C      1  0.4731400000000  0.5030150000000  0.4415930000000 1.0
C      1  0.6043620000000  0.5108160000000  0.4610180000000 1.0
C      1  0.5842840000000  0.5514450000000  0.4377180000000 1.0
C      1  0.4858800000000  0.5687900000000  0.4730480000000 1.0
C      1  0.5646090000000  0.5309850000000  0.5619940000000 1.0
C      1  0.5395620000000  0.4299180000000  0.4195890000000 1.0
END
