TITL C-884139-6216-173 27.6896498815779 125000 -10168.6375164918 0 0 70 (C1) n - 1
REM
REM in /home/nfs/bkarasulu/CARBON/AIRSS/Generating-Clusters/ReaxFF-fromJPCA2015/Units_Real/with-SteepDescent/Only-C1/SD-CG/Try1-3A/FIRE-CG
REM
REM
REM
REM
REM
REM ./C.cell (11c1c37f851c82e70ff6c80c92926a4b)
REM
REM compiler GCC version 9.2.1 20190827 (Red Hat 9.2.1-1)
REM options -cpp -mtune=generic -march=x86-64 -g -O0 -fpre-include=/usr/include/finclude/math-vector-fortran.h
REM seed -609800 -1908382927 934557597 -500015247 -1417780637 -566740257 -300669615 1027411891 1645350102 -1030599006 1916407452 -1256003881 484331909 -920191823 -293662362 1516889295 409601299 -330494995 650905049 -1189409643 -815553729 64778808 2044510402 -2118365928 -91492562 -246831111 -1459578832 -1223148750 -846672381 405763062 -1348299846 1784301298 -1051195248
REM
CELL 1.54180   50.00000   50.00000   50.00000   90.00000   90.00000   90.00000
LATT -1
SFAC C  
C      1  0.4330380000000  0.5324780000000  0.5172440000000 1.0
C      1  0.5823400000000  0.5001180000000  0.4798040000000 1.0
C      1  0.4293510000000  0.4809190000000  0.5021180000000 1.0
C      1  0.5020130000000  0.5297050000000  0.5065470000000 1.0
C      1  0.5311850000000  0.4445330000000  0.4630220000000 1.0
C      1  0.4264780000000  0.4818150000000  0.5308120000000 1.0
C      1  0.4798160000000  0.4790110000000  0.5141550000000 1.0
C      1  0.5246640000000  0.4747590000000  0.5725670000000 1.0
C      1  0.5824070000000  0.5030350000000  0.5097280000000 1.0
C      1  0.4650790000000  0.5048310000000  0.4420320000000 1.0
C      1  0.5160300000000  0.5596130000000  0.5054890000000 1.0
C      1  0.5157160000000  0.4848720000000  0.4320480000000 1.0
C      1  0.4917790000000  0.5041090000000  0.4289310000000 1.0
C      1  0.5388470000000  0.4598540000000  0.5842890000000 1.0
C      1  0.4731380000000  0.5018260000000  0.5310310000000 1.0
C      1  0.5728910000000  0.5271490000000  0.5209380000000 1.0
C      1  0.5178840000000  0.5536020000000  0.5569790000000 1.0
C      1  0.5020160000000  0.5311320000000  0.4267660000000 1.0
C      1  0.5458660000000  0.5136430000000  0.5478990000000 1.0
C      1  0.4539010000000  0.4342710000000  0.5336930000000 1.0
C      1  0.4909070000000  0.4474830000000  0.4505120000000 1.0
C      1  0.4645030000000  0.4693640000000  0.5583960000000 1.0
C      1  0.4411560000000  0.4598020000000  0.5446490000000 1.0
C      1  0.4868000000000  0.5238400000000  0.4844930000000 1.0
C      1  0.5813640000000  0.4716140000000  0.4832750000000 1.0
C      1  0.5320400000000  0.5613540000000  0.5318730000000 1.0
C      1  0.5389580000000  0.5359190000000  0.5638420000000 1.0
C      1  0.5522850000000  0.5235350000000  0.4410380000000 1.0
C      1  0.4832600000000  0.4334380000000  0.5338830000000 1.0
C      1  0.4907010000000  0.5740080000000  0.4920920000000 1.0
C      1  0.5604820000000  0.5153490000000  0.4679580000000 1.0
C      1  0.5266520000000  0.5616190000000  0.4572090000000 1.0
C      1  0.4278120000000  0.5108030000000  0.5395320000000 1.0
C      1  0.4288350000000  0.5008190000000  0.4802240000000 1.0
C      1  0.4556550000000  0.4692290000000  0.4989790000000 1.0
C      1  0.5305900000000  0.4366060000000  0.5196000000000 1.0
C      1  0.4764060000000  0.5438640000000  0.4316850000000 1.0
C      1  0.5344680000000  0.5504580000000  0.4837050000000 1.0
C      1  0.4869610000000  0.4699620000000  0.4685770000000 1.0
C      1  0.4626080000000  0.5636720000000  0.4962420000000 1.0
C      1  0.4294640000000  0.5286890000000  0.4885560000000 1.0
C      1  0.4807750000000  0.5298360000000  0.5308660000000 1.0
C      1  0.5315340000000  0.4970710000000  0.5304800000000 1.0
C      1  0.4536010000000  0.5522940000000  0.4471600000000 1.0
C      1  0.4407010000000  0.5159040000000  0.5641810000000 1.0
C      1  0.5465240000000  0.4562220000000  0.5098750000000 1.0
C      1  0.5060960000000  0.4219770000000  0.5170690000000 1.0
C      1  0.5410950000000  0.5225960000000  0.4861430000000 1.0
C      1  0.4598110000000  0.4702210000000  0.4723220000000 1.0
C      1  0.5234200000000  0.5054120000000  0.5030190000000 1.0
C      1  0.4919650000000  0.4212200000000  0.4638800000000 1.0
C      1  0.4450230000000  0.4896900000000  0.4583700000000 1.0
C      1  0.5284630000000  0.5409070000000  0.4363440000000 1.0
C      1  0.5190750000000  0.4188590000000  0.4690290000000 1.0
C      1  0.4739250000000  0.5188740000000  0.4658360000000 1.0
C      1  0.5578090000000  0.5482120000000  0.5297600000000 1.0
C      1  0.4981630000000  0.5053800000000  0.5659930000000 1.0
C      1  0.4873640000000  0.4621290000000  0.5417260000000 1.0
C      1  0.5742260000000  0.4723990000000  0.5099930000000 1.0
C      1  0.4974130000000  0.5329120000000  0.5569770000000 1.0
C      1  0.4566000000000  0.5481810000000  0.5196220000000 1.0
C      1  0.4689280000000  0.4977870000000  0.5596520000000 1.0
C      1  0.5046790000000  0.4785820000000  0.4903820000000 1.0
C      1  0.5116480000000  0.4854000000000  0.5508830000000 1.0
C      1  0.5385950000000  0.4997580000000  0.4373000000000 1.0
C      1  0.5033400000000  0.5741330000000  0.4677170000000 1.0
C      1  0.4451090000000  0.5509560000000  0.4764560000000 1.0
C      1  0.5291560000000  0.4623100000000  0.4862090000000 1.0
C      1  0.5166690000000  0.4559340000000  0.4405980000000 1.0
C      1  0.5019450000000  0.4121450000000  0.4897450000000 1.0
END
