TITL C-883734-4173-30 296134.557822787 125000 -17917.6777008504 0 0 121 (C1) n - 1
REM
REM in /home/nfs/bkarasulu/CARBON/AIRSS/Generating-Clusters/ReaxFF-fromJPCA2015/Units_Real/with-SteepDescent/Only-C1/SD-CG/Try1-3A/FIRE-CG
REM
REM
REM
REM
REM
REM ./C.cell (11c1c37f851c82e70ff6c80c92926a4b)
REM
REM compiler GCC version 9.2.1 20190827 (Red Hat 9.2.1-1)
REM options -cpp -mtune=generic -march=x86-64 -g -O0 -fpre-include=/usr/include/finclude/math-vector-fortran.h
REM seed -1762318742 -1983329018 1589380712 1378916848 1371105248 262552784 746478160 1889251253 85476117 323311625 -819215235 667659328 4284024 -993123423 212912418 -1438830309 512001016 1313679380 -605926028 429232827 2036927348 -2126546567 -898873158 -184396182 415206494 -944309223 715905699 1912128979 -569006936 -131895143 -1001178754 -1367890024 -2092078799
REM
CELL 1.54180   50.00000   50.00000   50.00000   90.00000   90.00000   90.00000
LATT -1
SFAC C  
C      1  0.5739080000000  0.5181580000000  0.5437800000000 1.0
C      1  0.5387610000000  0.4498930000000  0.4847570000000 1.0
C      1  0.5222710000000  0.4392070000000  0.5739190000000 1.0
C      1  0.4327280000000  0.5204650000000  0.5683530000000 1.0
C      1  0.4857080000000  0.4484850000000  0.4309890000000 1.0
C      1  0.5997980000000  0.5125960000000  0.5007590000000 1.0
C      1  0.5426130000000  0.4483900000000  0.5147000000000 1.0
C      1  0.4953090000000  0.4374830000000  0.5844590000000 1.0
C      1  0.4625820000000  0.4283830000000  0.4733230000000 1.0
C      1  0.5555620000000  0.4440070000000  0.4402520000000 1.0
C      1  0.5335690000000  0.4260540000000  0.4495470000000 1.0
C      1  0.5453930000000  0.4688050000000  0.5520390000000 1.0
C      1  0.5517780000000  0.4894250000000  0.4279180000000 1.0
C      1  0.5174670000000  0.4095240000000  0.4973800000000 1.0
C      1  0.5345390000000  0.5210290000000  0.5326080000000 1.0
C      1  0.4867700000000  0.5403940000000  0.4120210000000 1.0
C      1  0.5627350000000  0.5124410000000  0.5698170000000 1.0
C      1  0.4019150000000  0.4999230000000  0.5014770000000 1.0
C      1  0.5551530000000  0.5427240000000  0.5289530000000 1.0
C      1  0.5873700000000  0.5000020000000  0.5257620000000 1.0
C      1  0.4737900000000  0.5303480000000  0.4594830000000 1.0
C      1  0.4399960000000  0.4414290000000  0.4879310000000 1.0
C      1  0.4670430000000  0.5476860000000  0.4322660000000 1.0
C      1  0.4130850000000  0.4782770000000  0.5476520000000 1.0
C      1  0.4866680000000  0.4315360000000  0.4560510000000 1.0
C      1  0.4369500000000  0.5593380000000  0.5379980000000 1.0
C      1  0.6146830000000  0.4698680000000  0.4768280000000 1.0
C      1  0.5306180000000  0.4214930000000  0.5210970000000 1.0
C      1  0.4634290000000  0.5782180000000  0.4340370000000 1.0
C      1  0.5025990000000  0.4806430000000  0.4660480000000 1.0
C      1  0.4276930000000  0.4910520000000  0.5703360000000 1.0
C      1  0.3997980000000  0.4736230000000  0.4894400000000 1.0
C      1  0.6012390000000  0.4965920000000  0.4746460000000 1.0
C      1  0.5878630000000  0.4704970000000  0.5210520000000 1.0
C      1  0.5128340000000  0.5282980000000  0.4878100000000 1.0
C      1  0.4674170000000  0.4832470000000  0.5534550000000 1.0
C      1  0.4834730000000  0.5215660000000  0.5204420000000 1.0
C      1  0.5393330000000  0.5236890000000  0.4772120000000 1.0
C      1  0.4854870000000  0.5119130000000  0.4055460000000 1.0
C      1  0.4244620000000  0.5188320000000  0.4960250000000 1.0
C      1  0.3911490000000  0.4622390000000  0.5155900000000 1.0
C      1  0.4551860000000  0.4265420000000  0.5358470000000 1.0
C      1  0.5065980000000  0.4893460000000  0.4120370000000 1.0
C      1  0.4994480000000  0.4494590000000  0.4975980000000 1.0
C      1  0.4823400000000  0.5339120000000  0.5842510000000 1.0
C      1  0.4398330000000  0.5179700000000  0.4251720000000 1.0
C      1  0.5303470000000  0.4756130000000  0.4740700000000 1.0
C      1  0.5931790000000  0.4560180000000  0.4934740000000 1.0
C      1  0.4515600000000  0.5753570000000  0.4862930000000 1.0
C      1  0.4794700000000  0.4091500000000  0.5332320000000 1.0
C      1  0.4858910000000  0.4663300000000  0.5923260000000 1.0
C      1  0.4923650000000  0.5733740000000  0.5141310000000 1.0
C      1  0.5276530000000  0.5508540000000  0.5667220000000 1.0
C      1  0.4798230000000  0.5471640000000  0.5081650000000 1.0
C      1  0.5167760000000  0.5268370000000  0.5535480000000 1.0
C      1  0.4802440000000  0.5841440000000  0.4894610000000 1.0
C      1  0.4949790000000  0.4601100000000  0.5259210000000 1.0
C      1  0.4142420000000  0.4528270000000  0.5318490000000 1.0
C      1  0.4623580000000  0.5019720000000  0.5258670000000 1.0
C      1  0.4323940000000  0.5318370000000  0.4509260000000 1.0
C      1  0.5118810000000  0.4212960000000  0.4680500000000 1.0
C      1  0.5234270000000  0.5261750000000  0.4353420000000 1.0
C      1  0.5328110000000  0.5052840000000  0.4164020000000 1.0
C      1  0.4800410000000  0.5773560000000  0.5676410000000 1.0
C      1  0.5679610000000  0.4460090000000  0.4798160000000 1.0
C      1  0.5201570000000  0.5764340000000  0.5229700000000 1.0
C      1  0.4640890000000  0.4686060000000  0.4223380000000 1.0
C      1  0.5622890000000  0.5600380000000  0.4530870000000 1.0
C      1  0.4920260000000  0.4845360000000  0.5688980000000 1.0
C      1  0.5443980000000  0.5828370000000  0.4495150000000 1.0
C      1  0.5047930000000  0.5650410000000  0.4179310000000 1.0
C      1  0.4888760000000  0.5424360000000  0.4808240000000 1.0
C      1  0.4460070000000  0.4709600000000  0.4425090000000 1.0
C      1  0.4917920000000  0.5857830000000  0.4377220000000 1.0
C      1  0.4361790000000  0.5138510000000  0.5210350000000 1.0
C      1  0.5723150000000  0.4478310000000  0.5285770000000 1.0
C      1  0.5503700000000  0.4966320000000  0.4802370000000 1.0
C      1  0.5294410000000  0.5704230000000  0.4291150000000 1.0
C      1  0.4536550000000  0.5384020000000  0.5776510000000 1.0
C      1  0.4979340000000  0.5177480000000  0.4476710000000 1.0
C      1  0.5458730000000  0.5361080000000  0.4514190000000 1.0
C      1  0.4816230000000  0.4367530000000  0.5410490000000 1.0
C      1  0.5766270000000  0.5580630000000  0.4803250000000 1.0
C      1  0.4835840000000  0.4717470000000  0.4863820000000 1.0
C      1  0.5592700000000  0.5609760000000  0.5035680000000 1.0
C      1  0.5301450000000  0.4982120000000  0.5160750000000 1.0
C      1  0.5744620000000  0.4909010000000  0.4634050000000 1.0
C      1  0.5579670000000  0.4417390000000  0.5529660000000 1.0
C      1  0.5266950000000  0.4719770000000  0.5294200000000 1.0
C      1  0.5370650000000  0.5628650000000  0.5430630000000 1.0
C      1  0.4225860000000  0.4612900000000  0.4751990000000 1.0
C      1  0.5328350000000  0.4662910000000  0.5908040000000 1.0
C      1  0.5491840000000  0.4852480000000  0.5752940000000 1.0
C      1  0.4915750000000  0.4011100000000  0.5076740000000 1.0
C      1  0.5510770000000  0.5379900000000  0.5725660000000 1.0
C      1  0.4610010000000  0.4996670000000  0.4140210000000 1.0
C      1  0.5344510000000  0.4244190000000  0.5502870000000 1.0
C      1  0.4340450000000  0.5686460000000  0.5098190000000 1.0
C      1  0.4359530000000  0.4388970000000  0.5171290000000 1.0
C      1  0.5107340000000  0.4743300000000  0.6087100000000 1.0
C      1  0.4532720000000  0.5630340000000  0.5618160000000 1.0
C      1  0.4932840000000  0.4907710000000  0.4402320000000 1.0
C      1  0.4359230000000  0.4847950000000  0.4616620000000 1.0
C      1  0.4440800000000  0.5134940000000  0.4703890000000 1.0
C      1  0.4988590000000  0.5132030000000  0.5720830000000 1.0
C      1  0.4524440000000  0.4776650000000  0.5756720000000 1.0
C      1  0.4982610000000  0.5577300000000  0.5791360000000 1.0
C      1  0.5050390000000  0.5096050000000  0.5068090000000 1.0
C      1  0.4992440000000  0.5889070000000  0.4672120000000 1.0
C      1  0.5682790000000  0.4721880000000  0.4404330000000 1.0
C      1  0.5083710000000  0.4575090000000  0.4170590000000 1.0
C      1  0.5374210000000  0.5793990000000  0.4996460000000 1.0
C      1  0.4190670000000  0.5504510000000  0.4923250000000 1.0
C      1  0.5316410000000  0.4413500000000  0.4236290000000 1.0
C      1  0.5269890000000  0.5884420000000  0.4733670000000 1.0
C      1  0.5900930000000  0.5353740000000  0.4895830000000 1.0
C      1  0.3938080000000  0.4895990000000  0.5279670000000 1.0
C      1  0.4335180000000  0.5585570000000  0.4689580000000 1.0
C      1  0.4806130000000  0.4260350000000  0.4959410000000 1.0
C      1  0.4275580000000  0.5317450000000  0.5419350000000 1.0
C      1  0.4748190000000  0.4786570000000  0.5129930000000 1.0
END
