TITL C-883728-9229-148 1.69757495572462 125000 -14126.0343861154 0 0 95 (C1) n - 1
REM
REM in /home/nfs/bkarasulu/CARBON/AIRSS/Generating-Clusters/ReaxFF-fromJPCA2015/Units_Real/with-SteepDescent/Only-C1/SD-CG/Try1-3A/FIRE-CG
REM
REM
REM
REM
REM
REM ./C.cell (11c1c37f851c82e70ff6c80c92926a4b)
REM
REM compiler GCC version 9.2.1 20190827 (Red Hat 9.2.1-1)
REM options -cpp -mtune=generic -march=x86-64 -g -O0 -fpre-include=/usr/include/finclude/math-vector-fortran.h
REM seed -710577541 538138441 464817486 -1939098811 -1323509534 -3538632 -175292618 -792533881 677923499 271592558 1105251431 1001680013 -1847381593 -1983677325 -1976334310 507258776 1825163905 1006965838 45113956 671812036 -22545354 -1684461227 -1404224214 -1821593723 783723118 218542963 1089566886 -1325087179 -1443142922 -1370898607 -136168078 -2038752635 -1725868062
REM
CELL 1.54180   50.00000   50.00000   50.00000   90.00000   90.00000   90.00000
LATT -1
SFAC C  
C      1  0.5466710000000  0.4485350000000  0.5596060000000 1.0
C      1  0.4331390000000  0.5388890000000  0.4591370000000 1.0
C      1  0.4870850000000  0.5193330000000  0.5233380000000 1.0
C      1  0.4550550000000  0.5106510000000  0.4228680000000 1.0
C      1  0.4075530000000  0.5259130000000  0.5039550000000 1.0
C      1  0.5687550000000  0.4786990000000  0.5368940000000 1.0
C      1  0.5056380000000  0.5302810000000  0.4597450000000 1.0
C      1  0.4338680000000  0.5562040000000  0.5107700000000 1.0
C      1  0.4350250000000  0.4646620000000  0.5353710000000 1.0
C      1  0.5440680000000  0.5686240000000  0.4601680000000 1.0
C      1  0.4291860000000  0.4934920000000  0.5386070000000 1.0
C      1  0.4764130000000  0.5663710000000  0.5309570000000 1.0
C      1  0.5181350000000  0.4277370000000  0.4874610000000 1.0
C      1  0.5712220000000  0.5443220000000  0.5025310000000 1.0
C      1  0.5837060000000  0.5334320000000  0.5245530000000 1.0
C      1  0.4975170000000  0.4600080000000  0.5278670000000 1.0
C      1  0.5552030000000  0.5445720000000  0.5611640000000 1.0
C      1  0.5008070000000  0.4913400000000  0.4235300000000 1.0
C      1  0.5576630000000  0.5415700000000  0.4545540000000 1.0
C      1  0.4113820000000  0.4999980000000  0.5151200000000 1.0
C      1  0.4985680000000  0.5665870000000  0.4322250000000 1.0
C      1  0.4643250000000  0.5561970000000  0.5050900000000 1.0
C      1  0.5631360000000  0.4970010000000  0.4438390000000 1.0
C      1  0.5477330000000  0.5618040000000  0.5104220000000 1.0
C      1  0.5593270000000  0.4669250000000  0.4388650000000 1.0
C      1  0.4831070000000  0.4406220000000  0.4220170000000 1.0
C      1  0.4736680000000  0.4364480000000  0.5594980000000 1.0
C      1  0.4718520000000  0.4873090000000  0.4221660000000 1.0
C      1  0.5628190000000  0.4740590000000  0.5642040000000 1.0
C      1  0.4621150000000  0.5221820000000  0.5076120000000 1.0
C      1  0.4288570000000  0.4552390000000  0.5115230000000 1.0
C      1  0.5150740000000  0.5197980000000  0.4335710000000 1.0
C      1  0.5020190000000  0.5255800000000  0.5013540000000 1.0
C      1  0.5480430000000  0.4350940000000  0.5341690000000 1.0
C      1  0.4687230000000  0.5373810000000  0.4224480000000 1.0
C      1  0.5334790000000  0.4513380000000  0.4380050000000 1.0
C      1  0.4355500000000  0.5454630000000  0.5383180000000 1.0
C      1  0.4629750000000  0.5293900000000  0.5662110000000 1.0
C      1  0.5004680000000  0.4978610000000  0.5940150000000 1.0
C      1  0.4911000000000  0.4703260000000  0.4700790000000 1.0
C      1  0.5034290000000  0.5748580000000  0.5254460000000 1.0
C      1  0.4255650000000  0.4438530000000  0.4632610000000 1.0
C      1  0.4977970000000  0.5005900000000  0.5449400000000 1.0
C      1  0.5484020000000  0.5002610000000  0.5734880000000 1.0
C      1  0.5403900000000  0.4902680000000  0.5241260000000 1.0
C      1  0.5152540000000  0.4765140000000  0.4851970000000 1.0
C      1  0.5182550000000  0.4597670000000  0.5641490000000 1.0
C      1  0.4226980000000  0.4905370000000  0.4893970000000 1.0
C      1  0.5228090000000  0.5723250000000  0.4431890000000 1.0
C      1  0.4199530000000  0.5451740000000  0.4878000000000 1.0
C      1  0.5226170000000  0.5270330000000  0.4847070000000 1.0
C      1  0.5689270000000  0.4798980000000  0.4871070000000 1.0
C      1  0.4469090000000  0.4263290000000  0.4611840000000 1.0
C      1  0.4596420000000  0.5556570000000  0.5522190000000 1.0
C      1  0.4542810000000  0.4369250000000  0.5375380000000 1.0
C      1  0.4881860000000  0.4224400000000  0.4950170000000 1.0
C      1  0.5702400000000  0.5226780000000  0.5689740000000 1.0
C      1  0.4713850000000  0.4847100000000  0.4789610000000 1.0
C      1  0.5169720000000  0.4717140000000  0.4305860000000 1.0
C      1  0.4194300000000  0.4613140000000  0.4860600000000 1.0
C      1  0.4572560000000  0.5492090000000  0.4469590000000 1.0
C      1  0.4809410000000  0.4773210000000  0.5443180000000 1.0
C      1  0.4730670000000  0.4274230000000  0.5187320000000 1.0
C      1  0.4402470000000  0.4440470000000  0.4399430000000 1.0
C      1  0.5874730000000  0.5260940000000  0.5463710000000 1.0
C      1  0.5666370000000  0.4507560000000  0.4874250000000 1.0
C      1  0.5212040000000  0.4657600000000  0.5114510000000 1.0
C      1  0.4991690000000  0.4701420000000  0.5851500000000 1.0
C      1  0.5417770000000  0.4388090000000  0.5047570000000 1.0
C      1  0.4520580000000  0.5012780000000  0.4897000000000 1.0
C      1  0.5135040000000  0.5355570000000  0.5809860000000 1.0
C      1  0.5737040000000  0.5306430000000  0.4758400000000 1.0
C      1  0.5471870000000  0.5200930000000  0.4383640000000 1.0
C      1  0.4610100000000  0.4585430000000  0.4233680000000 1.0
C      1  0.5683900000000  0.4497780000000  0.4595650000000 1.0
C      1  0.5009430000000  0.4394850000000  0.5481630000000 1.0
C      1  0.5343760000000  0.5734070000000  0.4882570000000 1.0
C      1  0.4847840000000  0.5540310000000  0.4599880000000 1.0
C      1  0.5191730000000  0.4334570000000  0.4600520000000 1.0
C      1  0.4871690000000  0.5228380000000  0.5817080000000 1.0
C      1  0.4908590000000  0.4405560000000  0.4540680000000 1.0
C      1  0.4401580000000  0.5181390000000  0.5501830000000 1.0
C      1  0.5292750000000  0.5636730000000  0.5338370000000 1.0
C      1  0.5780720000000  0.5021420000000  0.4690290000000 1.0
C      1  0.5248210000000  0.4916090000000  0.5502070000000 1.0
C      1  0.5297290000000  0.5542990000000  0.5622750000000 1.0
C      1  0.5408960000000  0.4880040000000  0.4787940000000 1.0
C      1  0.4733410000000  0.4246030000000  0.4704100000000 1.0
C      1  0.5265860000000  0.5112130000000  0.5913490000000 1.0
C      1  0.5398150000000  0.5073920000000  0.4996060000000 1.0
C      1  0.4977860000000  0.5406670000000  0.4190890000000 1.0
C      1  0.4308090000000  0.5155420000000  0.4410760000000 1.0
C      1  0.4748440000000  0.4640470000000  0.5704720000000 1.0
C      1  0.4825630000000  0.5675870000000  0.4848890000000 1.0
C      1  0.5062100000000  0.5777750000000  0.4964430000000 1.0
END
