TITL C-884138-6203-424 -4.62861404015977 125000 -10799.0699913235 0 0 73 (C1) n - 1
REM
REM in /home/nfs/bkarasulu/CARBON/AIRSS/Generating-Clusters/ReaxFF-fromJPCA2015/Units_Real/with-SteepDescent/Only-C1/SD-CG/Try1-3A/FIRE-CG
REM
REM
REM
REM
REM
REM ./C.cell (11c1c37f851c82e70ff6c80c92926a4b)
REM
REM compiler GCC version 9.2.1 20190827 (Red Hat 9.2.1-1)
REM options -cpp -mtune=generic -march=x86-64 -g -O0 -fpre-include=/usr/include/finclude/math-vector-fortran.h
REM seed 604996919 899184352 2077994816 -1788009061 1407742983 -2013671486 529091366 -462047355 -1538281683 161164731 329754800 -237876812 -1220632158 -263296588 -1968401147 1586849918 424790789 126324820 -26826055 1265440187 900581307 1654994074 -285832259 316742167 1631003292 717625646 1486182 -797827923 1185348570 -1340365034 -2129019898 -1826116048 425591254
REM
CELL 1.54180   50.00000   50.00000   50.00000   90.00000   90.00000   90.00000
LATT -1
SFAC C  
C      1  0.5597480000000  0.5046040000000  0.5509850000000 1.0
C      1  0.4360160000000  0.5123170000000  0.5047220000000 1.0
C      1  0.5154840000000  0.4493910000000  0.5247960000000 1.0
C      1  0.4749350000000  0.5400810000000  0.4532230000000 1.0
C      1  0.4955120000000  0.4996480000000  0.4403440000000 1.0
C      1  0.4537400000000  0.5198410000000  0.4544620000000 1.0
C      1  0.5186390000000  0.5104660000000  0.5856900000000 1.0
C      1  0.5330060000000  0.4266520000000  0.4760360000000 1.0
C      1  0.5033570000000  0.4652160000000  0.4825020000000 1.0
C      1  0.4803040000000  0.4248150000000  0.5514240000000 1.0
C      1  0.4433890000000  0.4683030000000  0.4517920000000 1.0
C      1  0.5522720000000  0.5191180000000  0.4586530000000 1.0
C      1  0.5184270000000  0.4829000000000  0.5763380000000 1.0
C      1  0.4826280000000  0.4536360000000  0.4276040000000 1.0
C      1  0.5443330000000  0.5643140000000  0.5143570000000 1.0
C      1  0.4930480000000  0.5202680000000  0.5174390000000 1.0
C      1  0.4782430000000  0.4341030000000  0.4714640000000 1.0
C      1  0.4419180000000  0.4435690000000  0.5330400000000 1.0
C      1  0.5278760000000  0.5255340000000  0.4386050000000 1.0
C      1  0.4976180000000  0.5857960000000  0.5322150000000 1.0
C      1  0.5025460000000  0.5378540000000  0.4983090000000 1.0
C      1  0.4528940000000  0.4885230000000  0.5471360000000 1.0
C      1  0.5676800000000  0.4746200000000  0.4875820000000 1.0
C      1  0.4541700000000  0.4930410000000  0.4100360000000 1.0
C      1  0.4623670000000  0.5587180000000  0.4725660000000 1.0
C      1  0.4507940000000  0.4875840000000  0.5165220000000 1.0
C      1  0.5644890000000  0.4905190000000  0.4634010000000 1.0
C      1  0.5049730000000  0.5410070000000  0.4489250000000 1.0
C      1  0.4374200000000  0.5492490000000  0.4854910000000 1.0
C      1  0.4382410000000  0.5399460000000  0.5140000000000 1.0
C      1  0.4637670000000  0.4253170000000  0.5252020000000 1.0
C      1  0.4934820000000  0.4982170000000  0.5769140000000 1.0
C      1  0.4777180000000  0.5302260000000  0.5407680000000 1.0
C      1  0.4863950000000  0.4880120000000  0.4784910000000 1.0
C      1  0.5337720000000  0.5346100000000  0.5768290000000 1.0
C      1  0.5099120000000  0.5726090000000  0.5533550000000 1.0
C      1  0.4473650000000  0.4617570000000  0.5575530000000 1.0
C      1  0.5537100000000  0.5315300000000  0.5542210000000 1.0
C      1  0.5055030000000  0.5787220000000  0.4875790000000 1.0
C      1  0.5060710000000  0.5042840000000  0.4671740000000 1.0
C      1  0.5488670000000  0.4480050000000  0.4880460000000 1.0
C      1  0.5205340000000  0.5564190000000  0.5665180000000 1.0
C      1  0.5352480000000  0.4656310000000  0.5581870000000 1.0
C      1  0.4680470000000  0.4447850000000  0.5664570000000 1.0
C      1  0.4655710000000  0.4379490000000  0.4981690000000 1.0
C      1  0.4801130000000  0.4820600000000  0.4199180000000 1.0
C      1  0.4597680000000  0.5512890000000  0.5311160000000 1.0
C      1  0.5004570000000  0.4659750000000  0.5099070000000 1.0
C      1  0.5278550000000  0.4719240000000  0.4294560000000 1.0
C      1  0.5466140000000  0.5364170000000  0.5248690000000 1.0
C      1  0.4340440000000  0.5213550000000  0.4764720000000 1.0
C      1  0.5298520000000  0.4668270000000  0.4770940000000 1.0
C      1  0.5458020000000  0.4713000000000  0.4523120000000 1.0
C      1  0.4723380000000  0.5752670000000  0.5200850000000 1.0
C      1  0.5430000000000  0.5129150000000  0.5069890000000 1.0
C      1  0.5314100000000  0.5137330000000  0.4795930000000 1.0
C      1  0.4826550000000  0.4919540000000  0.5084160000000 1.0
C      1  0.5252520000000  0.4415780000000  0.5471100000000 1.0
C      1  0.5206070000000  0.5006590000000  0.4252330000000 1.0
C      1  0.4455380000000  0.4579020000000  0.5078460000000 1.0
C      1  0.5587240000000  0.4884930000000  0.5124240000000 1.0
C      1  0.5195730000000  0.5815750000000  0.5132430000000 1.0
C      1  0.4717480000000  0.5071960000000  0.5582620000000 1.0
C      1  0.4763140000000  0.5768870000000  0.4912790000000 1.0
C      1  0.5121930000000  0.5520850000000  0.4757710000000 1.0
C      1  0.5069620000000  0.4326270000000  0.4610130000000 1.0
C      1  0.4439870000000  0.4951980000000  0.4389250000000 1.0
C      1  0.4636260000000  0.4466360000000  0.4496540000000 1.0
C      1  0.5053940000000  0.4352980000000  0.5612250000000 1.0
C      1  0.5576550000000  0.4790710000000  0.5413450000000 1.0
C      1  0.5582070000000  0.5580390000000  0.4911040000000 1.0
C      1  0.5097110000000  0.4495790000000  0.4353420000000 1.0
C      1  0.5685710000000  0.5464520000000  0.4688780000000 1.0
END
