TITL C-884137-4758-356 -3.8957990933441 125000 -7148.77512861112 0 0 49 (C1) n - 1
REM
REM in /home/nfs/bkarasulu/CARBON/AIRSS/Generating-Clusters/ReaxFF-fromJPCA2015/Units_Real/with-SteepDescent/Only-C1/SD-CG/Try1-3A/FIRE-CG
REM
REM
REM
REM
REM
REM ./C.cell (11c1c37f851c82e70ff6c80c92926a4b)
REM
REM compiler GCC version 9.2.1 20190827 (Red Hat 9.2.1-1)
REM options -cpp -mtune=generic -march=x86-64 -g -O0 -fpre-include=/usr/include/finclude/math-vector-fortran.h
REM seed -46141158 -117309145 687745160 1886471192 2083733843 549268055 868381804 -427920155 820323951 786825488 1501230626 231559788 467461589 -1657624485 638256993 -654943725 1183170192 -910313274 -1692274065 -401675083 -566968938 86824956 -1081643188 1374968611 -886253194 -1724193321 1096543159 -1024705218 -932254110 33014548 1682276356 -1907020621 108258093
REM
CELL 1.54180   50.00000   50.00000   50.00000   90.00000   90.00000   90.00000
LATT -1
SFAC C  
C      1  0.5347540000000  0.4441540000000  0.4850160000000 1.0
C      1  0.5297930000000  0.5551330000000  0.4799500000000 1.0
C      1  0.4837990000000  0.5550900000000  0.4725070000000 1.0
C      1  0.4875470000000  0.5426120000000  0.4995860000000 1.0
C      1  0.5147420000000  0.5332890000000  0.5593510000000 1.0
C      1  0.4316830000000  0.5143480000000  0.5245180000000 1.0
C      1  0.5635520000000  0.4872410000000  0.5294880000000 1.0
C      1  0.5516540000000  0.5053600000000  0.4866100000000 1.0
C      1  0.4673860000000  0.5360750000000  0.5511690000000 1.0
C      1  0.4709040000000  0.4612570000000  0.4511390000000 1.0
C      1  0.5660010000000  0.4848700000000  0.4998260000000 1.0
C      1  0.5120050000000  0.4378250000000  0.5017440000000 1.0
C      1  0.4593830000000  0.5500010000000  0.5059030000000 1.0
C      1  0.5089660000000  0.5492660000000  0.4598310000000 1.0
C      1  0.4454740000000  0.4931630000000  0.5391080000000 1.0
C      1  0.5898350000000  0.4607970000000  0.5655920000000 1.0
C      1  0.5770570000000  0.4733080000000  0.5489590000000 1.0
C      1  0.4420260000000  0.5252300000000  0.4702690000000 1.0
C      1  0.5493280000000  0.5338910000000  0.4860480000000 1.0
C      1  0.4565470000000  0.4690030000000  0.5259350000000 1.0
C      1  0.4785670000000  0.4345080000000  0.4639120000000 1.0
C      1  0.5324320000000  0.5176620000000  0.5015210000000 1.0
C      1  0.4948910000000  0.5506890000000  0.5519600000000 1.0
C      1  0.4955360000000  0.4906900000000  0.5105310000000 1.0
C      1  0.4587030000000  0.5051840000000  0.4583980000000 1.0
C      1  0.4825590000000  0.5064630000000  0.4400960000000 1.0
C      1  0.4237670000000  0.5141700000000  0.4941830000000 1.0
C      1  0.5130970000000  0.4772130000000  0.5290000000000 1.0
C      1  0.4594870000000  0.4786970000000  0.4709910000000 1.0
C      1  0.4906490000000  0.4785110000000  0.4366110000000 1.0
C      1  0.5621480000000  0.4565950000000  0.4914140000000 1.0
C      1  0.5637770000000  0.4642400000000  0.4642310000000 1.0
C      1  0.4720460000000  0.4728850000000  0.4982230000000 1.0
C      1  0.5030020000000  0.5170470000000  0.5027510000000 1.0
C      1  0.4783090000000  0.4541220000000  0.5349790000000 1.0
C      1  0.4472890000000  0.5384210000000  0.5296830000000 1.0
C      1  0.5325410000000  0.5110770000000  0.5626770000000 1.0
C      1  0.5206990000000  0.5646320000000  0.5058040000000 1.0
C      1  0.5200490000000  0.4760030000000  0.4413800000000 1.0
C      1  0.5095890000000  0.5614720000000  0.5302700000000 1.0
C      1  0.5374390000000  0.4879180000000  0.5430280000000 1.0
C      1  0.4540080000000  0.5505800000000  0.4762610000000 1.0
C      1  0.4625210000000  0.5082490000000  0.5594620000000 1.0
C      1  0.4854470000000  0.4434930000000  0.4912360000000 1.0
C      1  0.5379480000000  0.4550610000000  0.4569640000000 1.0
C      1  0.5236290000000  0.5028990000000  0.4420320000000 1.0
C      1  0.5055800000000  0.4477950000000  0.5293500000000 1.0
C      1  0.4053890000000  0.4971220000000  0.4975940000000 1.0
C      1  0.5064660000000  0.5246880000000  0.4429080000000 1.0
END
