TITL C-884131-4643-17 1634824.396937 125000 -19907.2067121751 0 0 133 (C1) n - 1
REM
REM in /home/nfs/bkarasulu/CARBON/AIRSS/Generating-Clusters/ReaxFF-fromJPCA2015/Units_Real/with-SteepDescent/Only-C1/SD-CG/Try1-3A/FIRE-CG
REM
REM
REM
REM
REM
REM ./C.cell (11c1c37f851c82e70ff6c80c92926a4b)
REM
REM compiler GCC version 9.2.1 20190827 (Red Hat 9.2.1-1)
REM options -cpp -mtune=generic -march=x86-64 -g -O0 -fpre-include=/usr/include/finclude/math-vector-fortran.h
REM seed -1465915114 188057318 428109931 411432028 -245438217 -688968565 -49809752 -2128518829 -705926979 374949160 1959257698 -31307448 -1505837691 -2012050795 867747861 -1829488824 -1739736596 -369360832 -1779561168 1730744427 -1888632561 -1539412622 -31760684 -523574136 3421192 -1878399527 -1831692136 1310948675 -1283429218 1517083039 513219608 112496989 652310375
REM
CELL 1.54180   50.00000   50.00000   50.00000   90.00000   90.00000   90.00000
LATT -1
SFAC C  
C      1  0.4298730000000  0.5666210000000  0.5227750000000 1.0
C      1  0.4199800000000  0.5373430000000  0.5281990000000 1.0
C      1  0.4638500000000  0.4421640000000  0.5132800000000 1.0
C      1  0.5471240000000  0.5302880000000  0.5176950000000 1.0
C      1  0.5426290000000  0.4428720000000  0.4325710000000 1.0
C      1  0.5478500000000  0.5306620000000  0.5865960000000 1.0
C      1  0.4278740000000  0.5723600000000  0.4949310000000 1.0
C      1  0.5864730000000  0.4765260000000  0.5320770000000 1.0
C      1  0.4893180000000  0.5957070000000  0.5491280000000 1.0
C      1  0.4321880000000  0.4821970000000  0.4904500000000 1.0
C      1  0.5857500000000  0.5237210000000  0.5536890000000 1.0
C      1  0.5401570000000  0.5082980000000  0.4849280000000 1.0
C      1  0.4226650000000  0.4351430000000  0.5049470000000 1.0
C      1  0.5412220000000  0.4526790000000  0.5719520000000 1.0
C      1  0.4800210000000  0.4156330000000  0.4583880000000 1.0
C      1  0.5868450000000  0.4645750000000  0.4443400000000 1.0
C      1  0.5440270000000  0.4725840000000  0.4618750000000 1.0
C      1  0.4379300000000  0.4941900000000  0.4340340000000 1.0
C      1  0.5154020000000  0.4724240000000  0.4652470000000 1.0
C      1  0.5936410000000  0.4921620000000  0.4440870000000 1.0
C      1  0.5095550000000  0.4227540000000  0.4648090000000 1.0
C      1  0.4120740000000  0.4884340000000  0.4475250000000 1.0
C      1  0.5925750000000  0.4641130000000  0.4735270000000 1.0
C      1  0.4659310000000  0.5235160000000  0.5827350000000 1.0
C      1  0.5771150000000  0.4460110000000  0.4907060000000 1.0
C      1  0.4908500000000  0.5368450000000  0.5879170000000 1.0
C      1  0.4774230000000  0.5334800000000  0.4046030000000 1.0
C      1  0.4859880000000  0.5629630000000  0.5749110000000 1.0
C      1  0.3985860000000  0.5312900000000  0.4814360000000 1.0
C      1  0.5222790000000  0.5182510000000  0.5285850000000 1.0
C      1  0.4246810000000  0.5258030000000  0.5558740000000 1.0
C      1  0.5011070000000  0.4889400000000  0.4464710000000 1.0
C      1  0.5091460000000  0.4636130000000  0.5938070000000 1.0
C      1  0.5075140000000  0.5820100000000  0.5655280000000 1.0
C      1  0.5380800000000  0.4277850000000  0.4568330000000 1.0
C      1  0.5593070000000  0.4628970000000  0.4402650000000 1.0
C      1  0.5095750000000  0.4223190000000  0.5514260000000 1.0
C      1  0.4136670000000  0.5567350000000  0.4756710000000 1.0
C      1  0.5726890000000  0.4979450000000  0.5483140000000 1.0
C      1  0.4432770000000  0.5537750000000  0.4737270000000 1.0
C      1  0.4449480000000  0.5398380000000  0.5707720000000 1.0
C      1  0.4706330000000  0.4592810000000  0.4715520000000 1.0
C      1  0.5014710000000  0.4102850000000  0.5269120000000 1.0
C      1  0.5114500000000  0.4576870000000  0.5079170000000 1.0
C      1  0.5221420000000  0.4013350000000  0.5083570000000 1.0
C      1  0.4144230000000  0.4846370000000  0.5349810000000 1.0
C      1  0.4002530000000  0.5225670000000  0.5097690000000 1.0
C      1  0.5068180000000  0.4685240000000  0.5347030000000 1.0
C      1  0.5528040000000  0.5109650000000  0.4216880000000 1.0
C      1  0.4515090000000  0.5788840000000  0.5384700000000 1.0
C      1  0.4172630000000  0.4587020000000  0.4548730000000 1.0
C      1  0.5558320000000  0.4276360000000  0.4804260000000 1.0
C      1  0.4396910000000  0.4744670000000  0.5680070000000 1.0
C      1  0.5776140000000  0.5137940000000  0.4350930000000 1.0
C      1  0.5761740000000  0.4499900000000  0.5195650000000 1.0
C      1  0.3968920000000  0.4942560000000  0.5138130000000 1.0
C      1  0.5765160000000  0.5591980000000  0.5254450000000 1.0
C      1  0.4216040000000  0.4970080000000  0.5600760000000 1.0
C      1  0.5274010000000  0.5281680000000  0.4256870000000 1.0
C      1  0.5423210000000  0.4994760000000  0.5485700000000 1.0
C      1  0.5570150000000  0.4309760000000  0.5294780000000 1.0
C      1  0.4758740000000  0.4790420000000  0.4093530000000 1.0
C      1  0.5609770000000  0.5242890000000  0.4941230000000 1.0
C      1  0.4964890000000  0.5528070000000  0.4124490000000 1.0
C      1  0.4825560000000  0.5009050000000  0.5691720000000 1.0
C      1  0.4895520000000  0.5049620000000  0.4904660000000 1.0
C      1  0.5500880000000  0.4814400000000  0.4878720000000 1.0
C      1  0.5369340000000  0.4894990000000  0.4083160000000 1.0
C      1  0.5328060000000  0.5052960000000  0.5792820000000 1.0
C      1  0.4539140000000  0.5153120000000  0.4415480000000 1.0
C      1  0.5726120000000  0.5390920000000  0.5748070000000 1.0
C      1  0.4811310000000  0.5977860000000  0.4757210000000 1.0
C      1  0.4477970000000  0.5235940000000  0.5135260000000 1.0
C      1  0.5479560000000  0.5570490000000  0.5736060000000 1.0
C      1  0.4721900000000  0.5979190000000  0.5279080000000 1.0
C      1  0.4594320000000  0.5642490000000  0.5628530000000 1.0
C      1  0.6055900000000  0.5220300000000  0.5103490000000 1.0
C      1  0.5077530000000  0.5176850000000  0.4464640000000 1.0
C      1  0.4803620000000  0.4926270000000  0.5141920000000 1.0
C      1  0.4499780000000  0.4722620000000  0.4216940000000 1.0
C      1  0.4993720000000  0.4529960000000  0.4808140000000 1.0
C      1  0.4482090000000  0.5283500000000  0.4848220000000 1.0
C      1  0.4919440000000  0.5907210000000  0.5041620000000 1.0
C      1  0.4761410000000  0.4163950000000  0.5110160000000 1.0
C      1  0.5380890000000  0.4322790000000  0.5535760000000 1.0
C      1  0.4038570000000  0.4770750000000  0.4897110000000 1.0
C      1  0.6015060000000  0.4959020000000  0.5196550000000 1.0
C      1  0.5386980000000  0.4662530000000  0.5094630000000 1.0
C      1  0.4091410000000  0.4496390000000  0.4815720000000 1.0
C      1  0.5976300000000  0.4929400000000  0.4719480000000 1.0
C      1  0.5159670000000  0.5775600000000  0.4492790000000 1.0
C      1  0.5813450000000  0.5605890000000  0.4512630000000 1.0
C      1  0.4925550000000  0.5569250000000  0.5085620000000 1.0
C      1  0.4286410000000  0.4338630000000  0.5329830000000 1.0
C      1  0.5850430000000  0.5356950000000  0.4542710000000 1.0
C      1  0.4356220000000  0.4449430000000  0.5589100000000 1.0
C      1  0.5158870000000  0.5080780000000  0.4017910000000 1.0
C      1  0.5894590000000  0.5194850000000  0.4844340000000 1.0
C      1  0.5078420000000  0.5508740000000  0.4842450000000 1.0
C      1  0.4871160000000  0.5049910000000  0.4002120000000 1.0
C      1  0.4834340000000  0.4541270000000  0.5875690000000 1.0
C      1  0.4604800000000  0.5399280000000  0.4281850000000 1.0
C      1  0.4599130000000  0.4321460000000  0.5598400000000 1.0
C      1  0.4398940000000  0.4504290000000  0.4382900000000 1.0
C      1  0.4396140000000  0.4893680000000  0.5173810000000 1.0
C      1  0.5269620000000  0.4621810000000  0.4166460000000 1.0
C      1  0.5332540000000  0.5727740000000  0.5541150000000 1.0
C      1  0.4929010000000  0.5364230000000  0.4632680000000 1.0
C      1  0.5963450000000  0.5409990000000  0.5315560000000 1.0
C      1  0.5474780000000  0.4162490000000  0.5061460000000 1.0
C      1  0.4627320000000  0.5100610000000  0.4689430000000 1.0
C      1  0.4034290000000  0.5099420000000  0.4630200000000 1.0
C      1  0.4617400000000  0.4693280000000  0.5158570000000 1.0
C      1  0.4860120000000  0.4296820000000  0.5681940000000 1.0
C      1  0.5076440000000  0.3980020000000  0.4833760000000 1.0
C      1  0.4614010000000  0.4382310000000  0.4551050000000 1.0
C      1  0.5223610000000  0.5864820000000  0.5031290000000 1.0
C      1  0.4730090000000  0.5394320000000  0.5198420000000 1.0
C      1  0.5196030000000  0.5599610000000  0.4263200000000 1.0
C      1  0.4866380000000  0.5826810000000  0.4521350000000 1.0
C      1  0.5557090000000  0.5573490000000  0.5149080000000 1.0
C      1  0.5404360000000  0.5778270000000  0.5255890000000 1.0
C      1  0.4663290000000  0.4765350000000  0.5778980000000 1.0
C      1  0.4970130000000  0.4965110000000  0.5382090000000 1.0
C      1  0.4710300000000  0.5554680000000  0.4517190000000 1.0
C      1  0.5347090000000  0.4735990000000  0.5371210000000 1.0
C      1  0.5346500000000  0.4736750000000  0.5895480000000 1.0
C      1  0.4522010000000  0.4817710000000  0.4698900000000 1.0
C      1  0.4990020000000  0.4689580000000  0.4240280000000 1.0
C      1  0.5253640000000  0.5731870000000  0.4772170000000 1.0
C      1  0.4786310000000  0.4021750000000  0.4845320000000 1.0
C      1  0.5055750000000  0.5126490000000  0.5820920000000 1.0
C      1  0.5154400000000  0.5131760000000  0.4999250000000 1.0
END
