TITL C-883739-1268-186 1.67699087555658 125000 -11486.4460333316 0 0 77 (C1) n - 1
REM
REM in /home/nfs/bkarasulu/CARBON/AIRSS/Generating-Clusters/ReaxFF-fromJPCA2015/Units_Real/with-SteepDescent/Only-C1/SD-CG/Try1-3A/FIRE-CG
REM
REM
REM
REM
REM
REM ./C.cell (11c1c37f851c82e70ff6c80c92926a4b)
REM
REM compiler GCC version 9.2.1 20190827 (Red Hat 9.2.1-1)
REM options -cpp -mtune=generic -march=x86-64 -g -O0 -fpre-include=/usr/include/finclude/math-vector-fortran.h
REM seed 205649171 1198385408 1004317737 1849663703 -665488808 -1001661384 -989204506 934634414 707043249 -514985337 -98335361 -627375923 1676814076 -1162168342 -1021639101 1464769896 -1029193386 2091923607 845776823 -742018815 1841846835 1672111185 -613917966 -738426311 778284524 987670099 -858392759 2028025130 -1435398203 923285072 1580527842 -997634201 429094340
REM
CELL 1.54180   50.00000   50.00000   50.00000   90.00000   90.00000   90.00000
LATT -1
SFAC C  
C      1  0.4977180000000  0.5401020000000  0.4569660000000 1.0
C      1  0.5055940000000  0.4914040000000  0.5166050000000 1.0
C      1  0.5102140000000  0.5535930000000  0.5520550000000 1.0
C      1  0.4928950000000  0.5124640000000  0.4513940000000 1.0
C      1  0.4464810000000  0.4670460000000  0.4729040000000 1.0
C      1  0.4250090000000  0.4900280000000  0.5332350000000 1.0
C      1  0.4618140000000  0.5115910000000  0.4189050000000 1.0
C      1  0.4638770000000  0.4566770000000  0.5210300000000 1.0
C      1  0.5281760000000  0.4953990000000  0.5643440000000 1.0
C      1  0.4648210000000  0.5528610000000  0.5670950000000 1.0
C      1  0.4752410000000  0.4583560000000  0.4307140000000 1.0
C      1  0.5000830000000  0.5759380000000  0.5018340000000 1.0
C      1  0.5069000000000  0.5492850000000  0.4848540000000 1.0
C      1  0.5567760000000  0.5492390000000  0.4958110000000 1.0
C      1  0.5406590000000  0.4747810000000  0.4344950000000 1.0
C      1  0.4441270000000  0.5206230000000  0.4688680000000 1.0
C      1  0.5447610000000  0.4340400000000  0.5118650000000 1.0
C      1  0.5191790000000  0.4749600000000  0.4758470000000 1.0
C      1  0.5675060000000  0.4669890000000  0.4797350000000 1.0
C      1  0.5441380000000  0.4670700000000  0.4623590000000 1.0
C      1  0.5045120000000  0.4961940000000  0.5797660000000 1.0
C      1  0.4655600000000  0.4626830000000  0.5738600000000 1.0
C      1  0.4513420000000  0.4683310000000  0.4440490000000 1.0
C      1  0.4883340000000  0.5477320000000  0.5325800000000 1.0
C      1  0.5830070000000  0.5080510000000  0.5072830000000 1.0
C      1  0.5164960000000  0.4608420000000  0.4263230000000 1.0
C      1  0.4487640000000  0.5587270000000  0.5067990000000 1.0
C      1  0.4954180000000  0.4248490000000  0.4627030000000 1.0
C      1  0.5797660000000  0.5320200000000  0.4905050000000 1.0
C      1  0.4429020000000  0.4922890000000  0.4285780000000 1.0
C      1  0.5800250000000  0.5151380000000  0.4670050000000 1.0
C      1  0.5202700000000  0.5420460000000  0.4390200000000 1.0
C      1  0.4710850000000  0.5027490000000  0.5337030000000 1.0
C      1  0.4463040000000  0.5410140000000  0.4860480000000 1.0
C      1  0.4316950000000  0.5433260000000  0.5254050000000 1.0
C      1  0.4432870000000  0.5202410000000  0.4388450000000 1.0
C      1  0.5342770000000  0.5386590000000  0.4844500000000 1.0
C      1  0.4457340000000  0.4814810000000  0.5678170000000 1.0
C      1  0.5481080000000  0.5612320000000  0.5221100000000 1.0
C      1  0.5007550000000  0.4230430000000  0.4894860000000 1.0
C      1  0.5239020000000  0.5147070000000  0.5149470000000 1.0
C      1  0.5721660000000  0.4719530000000  0.5306890000000 1.0
C      1  0.4986090000000  0.4937140000000  0.4717710000000 1.0
C      1  0.5433920000000  0.5411700000000  0.4577410000000 1.0
C      1  0.4104580000000  0.5020070000000  0.4960810000000 1.0
C      1  0.4391970000000  0.5521600000000  0.5532290000000 1.0
C      1  0.4920350000000  0.4668760000000  0.5814470000000 1.0
C      1  0.5647430000000  0.4524840000000  0.5058420000000 1.0
C      1  0.4633250000000  0.5067290000000  0.5600550000000 1.0
C      1  0.5603770000000  0.5200090000000  0.4475050000000 1.0
C      1  0.5832610000000  0.4913160000000  0.4823210000000 1.0
C      1  0.4759450000000  0.5688940000000  0.5163610000000 1.0
C      1  0.4869210000000  0.5016420000000  0.4972500000000 1.0
C      1  0.4173590000000  0.5153870000000  0.5217570000000 1.0
C      1  0.4629200000000  0.4889640000000  0.5099430000000 1.0
C      1  0.4917620000000  0.5461760000000  0.5745630000000 1.0
C      1  0.4940790000000  0.4759290000000  0.4175230000000 1.0
C      1  0.5681030000000  0.5006640000000  0.5307810000000 1.0
C      1  0.5408690000000  0.5143750000000  0.5405880000000 1.0
C      1  0.5154050000000  0.4682250000000  0.5030790000000 1.0
C      1  0.4900340000000  0.4473060000000  0.5326490000000 1.0
C      1  0.5371980000000  0.5450060000000  0.5441930000000 1.0
C      1  0.5441260000000  0.5036620000000  0.4294860000000 1.0
C      1  0.4926530000000  0.5040750000000  0.4215310000000 1.0
C      1  0.5000200000000  0.5313460000000  0.5095480000000 1.0
C      1  0.4741230000000  0.4266790000000  0.4816590000000 1.0
C      1  0.5128220000000  0.4396860000000  0.5105220000000 1.0
C      1  0.4391920000000  0.4936790000000  0.4855390000000 1.0
C      1  0.5016520000000  0.4511690000000  0.5581740000000 1.0
C      1  0.4402270000000  0.4681070000000  0.5420620000000 1.0
C      1  0.5536450000000  0.4650230000000  0.5491760000000 1.0
C      1  0.4978290000000  0.4422490000000  0.4406160000000 1.0
C      1  0.4582840000000  0.4488040000000  0.4920890000000 1.0
C      1  0.5232320000000  0.5738880000000  0.5178530000000 1.0
C      1  0.5310030000000  0.4662740000000  0.5642770000000 1.0
C      1  0.5208380000000  0.5190060000000  0.4215160000000 1.0
C      1  0.4846840000000  0.5175690000000  0.5783880000000 1.0
END
