TITL C-884136-4169-68 24.3058203482749 125000 -8900.8225548447 0 0 62 (C1) n - 1
REM
REM in /home/nfs/bkarasulu/CARBON/AIRSS/Generating-Clusters/ReaxFF-fromJPCA2015/Units_Real/with-SteepDescent/Only-C1/SD-CG/Try1-3A/FIRE-CG
REM
REM
REM
REM
REM
REM ./C.cell (11c1c37f851c82e70ff6c80c92926a4b)
REM
REM compiler GCC version 9.2.1 20190827 (Red Hat 9.2.1-1)
REM options -cpp -mtune=generic -march=x86-64 -g -O0 -fpre-include=/usr/include/finclude/math-vector-fortran.h
REM seed 1962425335 5326974 1174965423 917964066 1863059213 -1717392624 1577036284 -359216468 1497160557 -541562928 -1037520607 2140712354 -542864763 1973159102 -2042642570 -1150737201 -390067123 1500414108 39390798 1342630204 557256505 -1077609957 994104395 206798439 1702110118 -189953634 391907562 1277588503 -1212139397 1241271329 749825341 -593180279 285925374
REM
CELL 1.54180   50.00000   50.00000   50.00000   90.00000   90.00000   90.00000
LATT -1
SFAC C  
C      1  0.5000590000000  0.4538440000000  0.4464750000000 1.0
C      1  0.4507760000000  0.4853940000000  0.5558040000000 1.0
C      1  0.4888080000000  0.5572220000000  0.4699900000000 1.0
C      1  0.4747180000000  0.5729710000000  0.5409390000000 1.0
C      1  0.5129930000000  0.5662010000000  0.4621560000000 1.0
C      1  0.4725930000000  0.5388180000000  0.4853850000000 1.0
C      1  0.4888260000000  0.4397770000000  0.5301490000000 1.0
C      1  0.5714780000000  0.4475380000000  0.4986310000000 1.0
C      1  0.4425510000000  0.4966710000000  0.5150190000000 1.0
C      1  0.4628980000000  0.4741570000000  0.4721770000000 1.0
C      1  0.5156210000000  0.5698090000000  0.5124640000000 1.0
C      1  0.5491790000000  0.4635940000000  0.4609160000000 1.0
C      1  0.5162490000000  0.4948450000000  0.4964330000000 1.0
C      1  0.5816590000000  0.4720250000000  0.4984510000000 1.0
C      1  0.5359070000000  0.5316930000000  0.5464210000000 1.0
C      1  0.4771060000000  0.4890470000000  0.5636470000000 1.0
C      1  0.5275510000000  0.5518330000000  0.4902200000000 1.0
C      1  0.4619880000000  0.5632370000000  0.5004960000000 1.0
C      1  0.4410320000000  0.5082010000000  0.5414470000000 1.0
C      1  0.4402910000000  0.5462640000000  0.5110180000000 1.0
C      1  0.4851370000000  0.5762970000000  0.5152700000000 1.0
C      1  0.4168130000000  0.5007430000000  0.5004410000000 1.0
C      1  0.5208010000000  0.5201910000000  0.4514500000000 1.0
C      1  0.5606710000000  0.4909860000000  0.4664550000000 1.0
C      1  0.4191300000000  0.4758520000000  0.5168820000000 1.0
C      1  0.4892850000000  0.5283480000000  0.5133830000000 1.0
C      1  0.5034560000000  0.4954600000000  0.5678520000000 1.0
C      1  0.4587780000000  0.4989720000000  0.4568660000000 1.0
C      1  0.5456840000000  0.4853320000000  0.5328170000000 1.0
C      1  0.5502990000000  0.4409700000000  0.4805600000000 1.0
C      1  0.4779500000000  0.4502180000000  0.4656470000000 1.0
C      1  0.5102140000000  0.5217660000000  0.5578480000000 1.0
C      1  0.5253060000000  0.4745370000000  0.5551930000000 1.0
C      1  0.4649220000000  0.4456240000000  0.5132660000000 1.0
C      1  0.4287230000000  0.5262030000000  0.4912840000000 1.0
C      1  0.5531300000000  0.5354650000000  0.4840900000000 1.0
C      1  0.4942440000000  0.4816020000000  0.5124860000000 1.0
C      1  0.5018190000000  0.5185580000000  0.4282730000000 1.0
C      1  0.5157600000000  0.5255500000000  0.5032110000000 1.0
C      1  0.4493420000000  0.5220490000000  0.4717590000000 1.0
C      1  0.4790890000000  0.4333760000000  0.4901650000000 1.0
C      1  0.4663620000000  0.4751220000000  0.5024250000000 1.0
C      1  0.4427940000000  0.5366940000000  0.5385610000000 1.0
C      1  0.5307590000000  0.4733790000000  0.4147700000000 1.0
C      1  0.5785310000000  0.4981710000000  0.4891970000000 1.0
C      1  0.5488610000000  0.5173320000000  0.4613920000000 1.0
C      1  0.5288780000000  0.4570440000000  0.4414140000000 1.0
C      1  0.5532980000000  0.5128980000000  0.5305610000000 1.0
C      1  0.5038700000000  0.4310530000000  0.5061010000000 1.0
C      1  0.5304860000000  0.4443240000000  0.5026270000000 1.0
C      1  0.5262810000000  0.4467070000000  0.5628070000000 1.0
C      1  0.5163160000000  0.4981350000000  0.4160290000000 1.0
C      1  0.4948850000000  0.4826510000000  0.4495510000000 1.0
C      1  0.5022200000000  0.4655020000000  0.5342830000000 1.0
C      1  0.4371740000000  0.4629320000000  0.5364620000000 1.0
C      1  0.5663420000000  0.5202630000000  0.5049110000000 1.0
C      1  0.5284780000000  0.5549490000000  0.5319400000000 1.0
C      1  0.5107860000000  0.4985780000000  0.4672700000000 1.0
C      1  0.4784450000000  0.5015760000000  0.4341340000000 1.0
C      1  0.4866270000000  0.5300980000000  0.5418410000000 1.0
C      1  0.5401130000000  0.4722840000000  0.5075180000000 1.0
C      1  0.4656610000000  0.5490690000000  0.5527680000000 1.0
END
