TITL C-883729-9652-204 0.0280765323326139 125000 -21656.4093247677 0 0 143 (C1) n - 1
REM
REM in /home/nfs/bkarasulu/CARBON/AIRSS/Generating-Clusters/ReaxFF-fromJPCA2015/Units_Real/with-SteepDescent/Only-C1/SD-CG/Try1-3A/FIRE-CG
REM
REM
REM
REM
REM
REM ./C.cell (11c1c37f851c82e70ff6c80c92926a4b)
REM
REM compiler GCC version 9.2.1 20190827 (Red Hat 9.2.1-1)
REM options -cpp -mtune=generic -march=x86-64 -g -O0 -fpre-include=/usr/include/finclude/math-vector-fortran.h
REM seed -1249777346 27656879 -1597292318 1662499951 -469032411 -2114921074 2091310115 -304641853 -1412018926 2094916211 355209381 -753513429 -1931005413 1792820032 -509369451 -585594899 -133175036 -358230024 -1612521954 -211134581 1346036771 -652487276 1779218425 -681246068 772943979 1736792772 -1713506142 1192853561 -1930119249 1347625786 623308278 772785569 -2497527
REM
CELL 1.54180   50.00000   50.00000   50.00000   90.00000   90.00000   90.00000
LATT -1
SFAC C  
C      1  0.6079950000000  0.4862340000000  0.4930500000000 1.0
C      1  0.5721140000000  0.4892070000000  0.5585010000000 1.0
C      1  0.4957500000000  0.5155600000000  0.6013270000000 1.0
C      1  0.5961980000000  0.4654150000000  0.4762960000000 1.0
C      1  0.5620560000000  0.4650870000000  0.5438360000000 1.0
C      1  0.4688550000000  0.4117650000000  0.4804790000000 1.0
C      1  0.4765810000000  0.5908830000000  0.5488450000000 1.0
C      1  0.5582900000000  0.4286200000000  0.4582740000000 1.0
C      1  0.5179830000000  0.4678610000000  0.5872490000000 1.0
C      1  0.5087680000000  0.4080000000000  0.4620670000000 1.0
C      1  0.4990520000000  0.4320330000000  0.4204020000000 1.0
C      1  0.4563620000000  0.5692620000000  0.4577870000000 1.0
C      1  0.5099460000000  0.4513210000000  0.5339980000000 1.0
C      1  0.5282860000000  0.5917620000000  0.4969660000000 1.0
C      1  0.4848720000000  0.4553420000000  0.4097880000000 1.0
C      1  0.5390630000000  0.5613780000000  0.5732690000000 1.0
C      1  0.5303420000000  0.5385960000000  0.4542750000000 1.0
C      1  0.4655500000000  0.5496190000000  0.5680890000000 1.0
C      1  0.4647370000000  0.4447750000000  0.5617130000000 1.0
C      1  0.4844240000000  0.4606130000000  0.5459980000000 1.0
C      1  0.4627670000000  0.5272600000000  0.5201960000000 1.0
C      1  0.5543230000000  0.4103820000000  0.5073240000000 1.0
C      1  0.5402270000000  0.5517660000000  0.5217660000000 1.0
C      1  0.4899460000000  0.4926410000000  0.4935100000000 1.0
C      1  0.5254190000000  0.5373340000000  0.4114250000000 1.0
C      1  0.5838350000000  0.4481940000000  0.4962440000000 1.0
C      1  0.5637930000000  0.4514190000000  0.4400260000000 1.0
C      1  0.5781810000000  0.5374930000000  0.4466900000000 1.0
C      1  0.5754280000000  0.5526390000000  0.4727570000000 1.0
C      1  0.5061650000000  0.5239250000000  0.4603190000000 1.0
C      1  0.4777300000000  0.5572750000000  0.4148420000000 1.0
C      1  0.3999100000000  0.5286710000000  0.5385460000000 1.0
C      1  0.4334880000000  0.5700990000000  0.5006210000000 1.0
C      1  0.4745860000000  0.5983160000000  0.4979930000000 1.0
C      1  0.4564380000000  0.4613830000000  0.5045870000000 1.0
C      1  0.4534240000000  0.5824730000000  0.4836230000000 1.0
C      1  0.5828670000000  0.4599330000000  0.5236800000000 1.0
C      1  0.4329610000000  0.5701940000000  0.5318870000000 1.0
C      1  0.5683390000000  0.5119920000000  0.5036820000000 1.0
C      1  0.5022290000000  0.4792860000000  0.4030400000000 1.0
C      1  0.4798020000000  0.5506390000000  0.5162300000000 1.0
C      1  0.5315040000000  0.5823370000000  0.5533480000000 1.0
C      1  0.5560050000000  0.5063030000000  0.5749630000000 1.0
C      1  0.5076250000000  0.4505270000000  0.5065940000000 1.0
C      1  0.4003480000000  0.4697360000000  0.4973460000000 1.0
C      1  0.5867460000000  0.5551200000000  0.5065480000000 1.0
C      1  0.4694740000000  0.5088920000000  0.5975120000000 1.0
C      1  0.4264930000000  0.4913900000000  0.5384800000000 1.0
C      1  0.4277760000000  0.5228250000000  0.4460150000000 1.0
C      1  0.4254560000000  0.4362720000000  0.4929180000000 1.0
C      1  0.4909240000000  0.4629420000000  0.5963230000000 1.0
C      1  0.5043730000000  0.5881410000000  0.5527420000000 1.0
C      1  0.4426360000000  0.4882830000000  0.4982470000000 1.0
C      1  0.5035890000000  0.5358180000000  0.5135650000000 1.0
C      1  0.5296000000000  0.4852120000000  0.4121580000000 1.0
C      1  0.5415620000000  0.5524450000000  0.4755570000000 1.0
C      1  0.5339590000000  0.4941990000000  0.5877740000000 1.0
C      1  0.4790800000000  0.5799370000000  0.5208740000000 1.0
C      1  0.4946140000000  0.5449090000000  0.5649030000000 1.0
C      1  0.4241170000000  0.4515070000000  0.4675360000000 1.0
C      1  0.5476270000000  0.5336940000000  0.5411420000000 1.0
C      1  0.4101320000000  0.5069600000000  0.5564400000000 1.0
C      1  0.4287770000000  0.5057760000000  0.5778170000000 1.0
C      1  0.5942690000000  0.5026380000000  0.5420870000000 1.0
C      1  0.4509050000000  0.4211230000000  0.5021540000000 1.0
C      1  0.4053580000000  0.5262670000000  0.4849970000000 1.0
C      1  0.5331750000000  0.4182800000000  0.4495340000000 1.0
C      1  0.4409290000000  0.4794680000000  0.5840470000000 1.0
C      1  0.4845540000000  0.4671130000000  0.5032530000000 1.0
C      1  0.5168120000000  0.5472210000000  0.5845660000000 1.0
C      1  0.4381660000000  0.4570240000000  0.5645490000000 1.0
C      1  0.4821230000000  0.4369170000000  0.5847450000000 1.0
C      1  0.5092350000000  0.5755040000000  0.4476550000000 1.0
C      1  0.4700050000000  0.5101390000000  0.4402250000000 1.0
C      1  0.5409340000000  0.5125610000000  0.4158180000000 1.0
C      1  0.5290060000000  0.4604320000000  0.4901320000000 1.0
C      1  0.4537720000000  0.5212460000000  0.5712990000000 1.0
C      1  0.4468380000000  0.4447140000000  0.4444590000000 1.0
C      1  0.5595530000000  0.5400110000000  0.5677050000000 1.0
C      1  0.5658570000000  0.5157180000000  0.4311050000000 1.0
C      1  0.5364080000000  0.4883730000000  0.5332800000000 1.0
C      1  0.4994320000000  0.5432210000000  0.3991180000000 1.0
C      1  0.5297280000000  0.5367790000000  0.4991400000000 1.0
C      1  0.4665850000000  0.4800860000000  0.5986500000000 1.0
C      1  0.4128240000000  0.4936530000000  0.5126580000000 1.0
C      1  0.5091310000000  0.5000670000000  0.5443950000000 1.0
C      1  0.3979610000000  0.5176690000000  0.5111380000000 1.0
C      1  0.4709450000000  0.4534180000000  0.4822890000000 1.0
C      1  0.4546230000000  0.4855500000000  0.4073900000000 1.0
C      1  0.5938030000000  0.5303360000000  0.5365400000000 1.0
C      1  0.5441930000000  0.5807200000000  0.5241780000000 1.0
C      1  0.4807750000000  0.5706430000000  0.4411530000000 1.0
C      1  0.5272660000000  0.5576530000000  0.4327330000000 1.0
C      1  0.5755790000000  0.5716950000000  0.5265980000000 1.0
C      1  0.4132220000000  0.5066340000000  0.4644120000000 1.0
C      1  0.5225490000000  0.4420810000000  0.5727920000000 1.0
C      1  0.5423810000000  0.4599400000000  0.4216860000000 1.0
C      1  0.4882330000000  0.4150680000000  0.4417400000000 1.0
C      1  0.4199230000000  0.5519490000000  0.4821440000000 1.0
C      1  0.5045100000000  0.5284620000000  0.5418950000000 1.0
C      1  0.5361700000000  0.4422420000000  0.5458700000000 1.0
C      1  0.5833680000000  0.4705230000000  0.4502610000000 1.0
C      1  0.5357740000000  0.4834080000000  0.5048930000000 1.0
C      1  0.5266490000000  0.5780830000000  0.4716590000000 1.0
C      1  0.4091310000000  0.4758320000000  0.4699370000000 1.0
C      1  0.4544810000000  0.5720000000000  0.5544140000000 1.0
C      1  0.4673570000000  0.4620990000000  0.4567130000000 1.0
C      1  0.5262420000000  0.4739660000000  0.4646240000000 1.0
C      1  0.4793420000000  0.4949030000000  0.3941760000000 1.0
C      1  0.4967470000000  0.4064580000000  0.4883240000000 1.0
C      1  0.4635380000000  0.4145860000000  0.5286830000000 1.0
C      1  0.5072980000000  0.4071350000000  0.5165860000000 1.0
C      1  0.4826590000000  0.4897230000000  0.5445170000000 1.0
C      1  0.5006970000000  0.4229240000000  0.5677350000000 1.0
C      1  0.5228930000000  0.5198710000000  0.5986850000000 1.0
C      1  0.5469460000000  0.4936560000000  0.4640400000000 1.0
C      1  0.4578550000000  0.5075520000000  0.5420670000000 1.0
C      1  0.4705900000000  0.5293210000000  0.4800750000000 1.0
C      1  0.4790970000000  0.5243430000000  0.3887200000000 1.0
C      1  0.5024800000000  0.4923360000000  0.4674370000000 1.0
C      1  0.5555030000000  0.5103070000000  0.5290030000000 1.0
C      1  0.5275840000000  0.4350420000000  0.4254990000000 1.0
C      1  0.5335040000000  0.4158440000000  0.5265920000000 1.0
C      1  0.6016600000000  0.4822790000000  0.5216140000000 1.0
C      1  0.4169540000000  0.5500850000000  0.5351130000000 1.0
C      1  0.4801460000000  0.4858560000000  0.4490490000000 1.0
C      1  0.5692050000000  0.4944010000000  0.4486990000000 1.0
C      1  0.5957810000000  0.5317940000000  0.4689620000000 1.0
C      1  0.4565190000000  0.4594110000000  0.4174100000000 1.0
C      1  0.5831070000000  0.5524710000000  0.5482600000000 1.0
C      1  0.4803370000000  0.5304330000000  0.4560890000000 1.0
C      1  0.5446130000000  0.5052720000000  0.4899240000000 1.0
C      1  0.5952170000000  0.5124800000000  0.4918530000000 1.0
C      1  0.4902290000000  0.4116090000000  0.5400100000000 1.0
C      1  0.4625740000000  0.4197030000000  0.4532530000000 1.0
C      1  0.5687970000000  0.4257050000000  0.4856450000000 1.0
C      1  0.4236170000000  0.4622610000000  0.5403100000000 1.0
C      1  0.4337040000000  0.5496660000000  0.4566320000000 1.0
C      1  0.4678720000000  0.5107790000000  0.4972060000000 1.0
C      1  0.4132250000000  0.4505110000000  0.5152700000000 1.0
C      1  0.5024110000000  0.6018430000000  0.4943860000000 1.0
C      1  0.4586690000000  0.5370170000000  0.4053230000000 1.0
C      1  0.4463980000000  0.5140240000000  0.4222180000000 1.0
END
