TITL C-884131-4643-297 32.1036883820984 125000 -17523.5520448651 0 0 117 (C1) n - 1
REM
REM in /home/nfs/bkarasulu/CARBON/AIRSS/Generating-Clusters/ReaxFF-fromJPCA2015/Units_Real/with-SteepDescent/Only-C1/SD-CG/Try1-3A/FIRE-CG
REM
REM
REM
REM
REM
REM ./C.cell (11c1c37f851c82e70ff6c80c92926a4b)
REM
REM compiler GCC version 9.2.1 20190827 (Red Hat 9.2.1-1)
REM options -cpp -mtune=generic -march=x86-64 -g -O0 -fpre-include=/usr/include/finclude/math-vector-fortran.h
REM seed 1685875614 -1050885322 782189949 -1043742588 51030461 792130991 1115899175 -1120520453 1567095603 678597650 1215981918 -1236482804 -828306652 27512694 -1412992586 -727409519 58356559 2131846017 1053526191 -227457900 -2060505901 -1757402226 1552372846 1881967448 2076522926 -1231926613 -428230221 1680209743 1588856454 1341844639 -1549825185 -380726906 -564179190
REM
CELL 1.54180   50.00000   50.00000   50.00000   90.00000   90.00000   90.00000
LATT -1
SFAC C  
C      1  0.5533720000000  0.4486590000000  0.5485010000000 1.0
C      1  0.5193510000000  0.5005520000000  0.5362200000000 1.0
C      1  0.5292820000000  0.5009060000000  0.4203940000000 1.0
C      1  0.5346540000000  0.5027980000000  0.5958090000000 1.0
C      1  0.5214100000000  0.5426350000000  0.5722130000000 1.0
C      1  0.5454360000000  0.5686490000000  0.4326090000000 1.0
C      1  0.5266030000000  0.4363150000000  0.5444030000000 1.0
C      1  0.4089520000000  0.5057300000000  0.5046960000000 1.0
C      1  0.5898820000000  0.4664090000000  0.4887870000000 1.0
C      1  0.5227580000000  0.4625050000000  0.4203200000000 1.0
C      1  0.4496350000000  0.5176550000000  0.4816540000000 1.0
C      1  0.4559480000000  0.5496290000000  0.5643020000000 1.0
C      1  0.5232900000000  0.4655080000000  0.5105010000000 1.0
C      1  0.5349580000000  0.5259930000000  0.4527200000000 1.0
C      1  0.4665740000000  0.5302530000000  0.4634020000000 1.0
C      1  0.4992830000000  0.4601880000000  0.5243060000000 1.0
C      1  0.5821820000000  0.5381760000000  0.5308050000000 1.0
C      1  0.4086640000000  0.4858340000000  0.4412520000000 1.0
C      1  0.5834540000000  0.4846900000000  0.5410390000000 1.0
C      1  0.5674890000000  0.4903110000000  0.4313030000000 1.0
C      1  0.4347660000000  0.4657510000000  0.4877500000000 1.0
C      1  0.4438290000000  0.5144630000000  0.4313590000000 1.0
C      1  0.5499340000000  0.5427310000000  0.5652520000000 1.0
C      1  0.5227150000000  0.5730870000000  0.4506530000000 1.0
C      1  0.4551960000000  0.5701150000000  0.5453300000000 1.0
C      1  0.5946100000000  0.4923450000000  0.4753810000000 1.0
C      1  0.5380810000000  0.4868930000000  0.5174090000000 1.0
C      1  0.5267270000000  0.4994660000000  0.4490540000000 1.0
C      1  0.4054360000000  0.5032420000000  0.4635970000000 1.0
C      1  0.5711030000000  0.5511900000000  0.4817990000000 1.0
C      1  0.4530810000000  0.4640480000000  0.5096130000000 1.0
C      1  0.4575040000000  0.4466650000000  0.5504970000000 1.0
C      1  0.4779770000000  0.5667180000000  0.5619240000000 1.0
C      1  0.5820410000000  0.5064310000000  0.4530790000000 1.0
C      1  0.4449990000000  0.4257830000000  0.4968020000000 1.0
C      1  0.4383710000000  0.4438650000000  0.5261540000000 1.0
C      1  0.4093350000000  0.5323220000000  0.4595220000000 1.0
C      1  0.4096560000000  0.4967150000000  0.5495140000000 1.0
C      1  0.4511160000000  0.4716570000000  0.5641540000000 1.0
C      1  0.5523530000000  0.4455880000000  0.4558550000000 1.0
C      1  0.4922060000000  0.4504100000000  0.5825120000000 1.0
C      1  0.4499380000000  0.5697920000000  0.5163960000000 1.0
C      1  0.5387920000000  0.4864850000000  0.4721490000000 1.0
C      1  0.5585800000000  0.4950460000000  0.5798320000000 1.0
C      1  0.4874850000000  0.5024500000000  0.5859980000000 1.0
C      1  0.4277720000000  0.5524610000000  0.5065020000000 1.0
C      1  0.4242900000000  0.5196940000000  0.5465560000000 1.0
C      1  0.4862270000000  0.5322660000000  0.5187780000000 1.0
C      1  0.5708030000000  0.4433570000000  0.5256140000000 1.0
C      1  0.5855160000000  0.5138690000000  0.5465650000000 1.0
C      1  0.4944120000000  0.5504130000000  0.4968580000000 1.0
C      1  0.5349480000000  0.4212880000000  0.4963700000000 1.0
C      1  0.5156960000000  0.5706630000000  0.5295250000000 1.0
C      1  0.4313340000000  0.5391550000000  0.4419620000000 1.0
C      1  0.4815810000000  0.5546450000000  0.4666220000000 1.0
C      1  0.5852050000000  0.5360740000000  0.5019490000000 1.0
C      1  0.4633070000000  0.4988960000000  0.5703380000000 1.0
C      1  0.5303380000000  0.4295150000000  0.4682610000000 1.0
C      1  0.4176230000000  0.5541470000000  0.4788810000000 1.0
C      1  0.5220810000000  0.4777800000000  0.5863330000000 1.0
C      1  0.4489640000000  0.5222030000000  0.5608820000000 1.0
C      1  0.4366910000000  0.5643200000000  0.4593360000000 1.0
C      1  0.4936850000000  0.4883950000000  0.5298180000000 1.0
C      1  0.4932370000000  0.4748510000000  0.5961020000000 1.0
C      1  0.4729350000000  0.4208960000000  0.5019780000000 1.0
C      1  0.4652270000000  0.4959430000000  0.4393300000000 1.0
C      1  0.5436750000000  0.5694650000000  0.5223040000000 1.0
C      1  0.5136860000000  0.5288810000000  0.5283210000000 1.0
C      1  0.4376350000000  0.4415150000000  0.4733170000000 1.0
C      1  0.5533620000000  0.4972140000000  0.4949970000000 1.0
C      1  0.4897490000000  0.4146890000000  0.5248000000000 1.0
C      1  0.4793710000000  0.4511160000000  0.5026710000000 1.0
C      1  0.4137590000000  0.4597790000000  0.5336150000000 1.0
C      1  0.4605300000000  0.5769290000000  0.4710680000000 1.0
C      1  0.4691360000000  0.5811760000000  0.4980100000000 1.0
C      1  0.5606650000000  0.5551710000000  0.5413060000000 1.0
C      1  0.5040090000000  0.4357200000000  0.4577890000000 1.0
C      1  0.4026720000000  0.4855000000000  0.5244390000000 1.0
C      1  0.5489070000000  0.5695730000000  0.4925910000000 1.0
C      1  0.4790540000000  0.4267880000000  0.5503270000000 1.0
C      1  0.4922570000000  0.4605880000000  0.4729910000000 1.0
C      1  0.4667390000000  0.4962510000000  0.4887910000000 1.0
C      1  0.5649490000000  0.4733810000000  0.5602150000000 1.0
C      1  0.4222610000000  0.4726130000000  0.5584590000000 1.0
C      1  0.5660850000000  0.5132890000000  0.4148930000000 1.0
C      1  0.4999320000000  0.5558970000000  0.4417680000000 1.0
C      1  0.5128740000000  0.4853580000000  0.4051830000000 1.0
C      1  0.5813720000000  0.5070170000000  0.4968590000000 1.0
C      1  0.4826900000000  0.5193430000000  0.4431380000000 1.0
C      1  0.5583530000000  0.5407490000000  0.4339150000000 1.0
C      1  0.5107500000000  0.5147330000000  0.4060160000000 1.0
C      1  0.4780550000000  0.5052220000000  0.5138280000000 1.0
C      1  0.4719100000000  0.4455220000000  0.4337550000000 1.0
C      1  0.5275300000000  0.5292410000000  0.4767330000000 1.0
C      1  0.4281770000000  0.4919920000000  0.4221300000000 1.0
C      1  0.5012380000000  0.5780170000000  0.5023490000000 1.0
C      1  0.4269610000000  0.4982600000000  0.4824810000000 1.0
C      1  0.5188270000000  0.4714320000000  0.4849550000000 1.0
C      1  0.4966950000000  0.5346080000000  0.4224010000000 1.0
C      1  0.5752590000000  0.5353060000000  0.4576640000000 1.0
C      1  0.5117990000000  0.5194810000000  0.5871630000000 1.0
C      1  0.5247390000000  0.5780890000000  0.4806730000000 1.0
C      1  0.4255210000000  0.4651200000000  0.4324850000000 1.0
C      1  0.5621150000000  0.4304820000000  0.5002570000000 1.0
C      1  0.5685460000000  0.5200660000000  0.5693490000000 1.0
C      1  0.5875680000000  0.4658920000000  0.5185840000000 1.0
C      1  0.5217460000000  0.5393870000000  0.5012890000000 1.0
C      1  0.4732150000000  0.4820070000000  0.4643760000000 1.0
C      1  0.5483190000000  0.4644780000000  0.4339730000000 1.0
C      1  0.5725130000000  0.4454660000000  0.4774890000000 1.0
C      1  0.4455360000000  0.4465880000000  0.4431240000000 1.0
C      1  0.5211430000000  0.4867830000000  0.5597390000000 1.0
C      1  0.4185420000000  0.5286570000000  0.5197680000000 1.0
C      1  0.5040770000000  0.4324700000000  0.5650880000000 1.0
C      1  0.4998700000000  0.4433310000000  0.4299900000000 1.0
C      1  0.5186630000000  0.4196690000000  0.5213450000000 1.0
C      1  0.5060760000000  0.5622140000000  0.5558430000000 1.0
END
