TITL C-883736-9678-375 -1.56319482743437 125000 -8886.48873979543 0 0 61 (C1) n - 1
REM
REM in /home/nfs/bkarasulu/CARBON/AIRSS/Generating-Clusters/ReaxFF-fromJPCA2015/Units_Real/with-SteepDescent/Only-C1/SD-CG/Try1-3A/FIRE-CG
REM
REM
REM
REM
REM
REM ./C.cell (11c1c37f851c82e70ff6c80c92926a4b)
REM
REM compiler GCC version 9.2.1 20190827 (Red Hat 9.2.1-1)
REM options -cpp -mtune=generic -march=x86-64 -g -O0 -fpre-include=/usr/include/finclude/math-vector-fortran.h
REM seed -308624254 -2069728509 408328842 -130851644 379364516 -1256003232 544116821 1592797178 -1550445079 -1460096370 -1117433271 270196517 491082120 -179914565 -654654213 -615379186 1063021730 1425918021 -61322275 125022903 404775973 288136116 1763287393 1221481552 -1073001868 -1146575146 1547209693 757324770 -949253481 1511035851 125425589 -187493720 -675650612
REM
CELL 1.54180   50.00000   50.00000   50.00000   90.00000   90.00000   90.00000
LATT -1
SFAC C  
C      1  0.4932380000000  0.5169990000000  0.4584220000000 1.0
C      1  0.5640010000000  0.4834200000000  0.4826480000000 1.0
C      1  0.4864100000000  0.4912260000000  0.5226540000000 1.0
C      1  0.5459900000000  0.5110830000000  0.4786410000000 1.0
C      1  0.5418310000000  0.5533260000000  0.4592710000000 1.0
C      1  0.5199690000000  0.5081410000000  0.4998570000000 1.0
C      1  0.5193850000000  0.5569780000000  0.5209070000000 1.0
C      1  0.4914040000000  0.4504120000000  0.5708480000000 1.0
C      1  0.4587530000000  0.5520410000000  0.5404900000000 1.0
C      1  0.4998190000000  0.5400890000000  0.5740190000000 1.0
C      1  0.4595790000000  0.5320220000000  0.5202340000000 1.0
C      1  0.4454570000000  0.4895860000000  0.4915640000000 1.0
C      1  0.4533140000000  0.4949540000000  0.4450550000000 1.0
C      1  0.5377840000000  0.5246290000000  0.4531070000000 1.0
C      1  0.5444180000000  0.4668680000000  0.4498520000000 1.0
C      1  0.5110010000000  0.4426980000000  0.4523280000000 1.0
C      1  0.5314990000000  0.4207690000000  0.5036460000000 1.0
C      1  0.4696480000000  0.4866320000000  0.5462730000000 1.0
C      1  0.4384540000000  0.5199270000000  0.5281530000000 1.0
C      1  0.4546470000000  0.5488140000000  0.4947200000000 1.0
C      1  0.4474910000000  0.4752040000000  0.4662950000000 1.0
C      1  0.4991220000000  0.4323130000000  0.5492760000000 1.0
C      1  0.4739830000000  0.5699940000000  0.5401060000000 1.0
C      1  0.4624080000000  0.4501910000000  0.4716720000000 1.0
C      1  0.4919990000000  0.4790560000000  0.5691520000000 1.0
C      1  0.4533640000000  0.4597030000000  0.5402170000000 1.0
C      1  0.4772320000000  0.5361930000000  0.4483390000000 1.0
C      1  0.4772310000000  0.5651570000000  0.4905770000000 1.0
C      1  0.5403190000000  0.4867080000000  0.5507170000000 1.0
C      1  0.5716780000000  0.4922880000000  0.5077750000000 1.0
C      1  0.4741370000000  0.4968160000000  0.4983770000000 1.0
C      1  0.5410310000000  0.4598180000000  0.5409300000000 1.0
C      1  0.4514640000000  0.5232550000000  0.4531210000000 1.0
C      1  0.4949800000000  0.5089820000000  0.4846820000000 1.0
C      1  0.5574940000000  0.5570010000000  0.4854450000000 1.0
C      1  0.4486620000000  0.4999300000000  0.5413840000000 1.0
C      1  0.4780800000000  0.4465150000000  0.4964320000000 1.0
C      1  0.5119650000000  0.4830780000000  0.5129480000000 1.0
C      1  0.4822360000000  0.4385010000000  0.4516250000000 1.0
C      1  0.4303560000000  0.5126750000000  0.4993830000000 1.0
C      1  0.5542080000000  0.4571770000000  0.4733080000000 1.0
C      1  0.5210860000000  0.4646790000000  0.4349660000000 1.0
C      1  0.4876120000000  0.5613970000000  0.4626510000000 1.0
C      1  0.5655610000000  0.5301140000000  0.4920150000000 1.0
C      1  0.4909500000000  0.5683080000000  0.5171760000000 1.0
C      1  0.4590510000000  0.4506780000000  0.5142290000000 1.0
C      1  0.5126030000000  0.5166170000000  0.4396860000000 1.0
C      1  0.4763460000000  0.4877600000000  0.4270200000000 1.0
C      1  0.5239970000000  0.5279490000000  0.5281470000000 1.0
C      1  0.5419330000000  0.5704560000000  0.5072540000000 1.0
C      1  0.5720590000000  0.5179130000000  0.5189550000000 1.0
C      1  0.4383100000000  0.5313200000000  0.4782350000000 1.0
C      1  0.5484160000000  0.5123980000000  0.5356370000000 1.0
C      1  0.4707470000000  0.4383830000000  0.5521410000000 1.0
C      1  0.5150530000000  0.5592220000000  0.4605740000000 1.0
C      1  0.5103890000000  0.5228640000000  0.5583560000000 1.0
C      1  0.5157000000000  0.4939470000000  0.5668200000000 1.0
C      1  0.5084350000000  0.4555990000000  0.5028430000000 1.0
C      1  0.5284750000000  0.4405190000000  0.4817170000000 1.0
C      1  0.5053170000000  0.4898300000000  0.4277150000000 1.0
C      1  0.5219160000000  0.4388780000000  0.5294130000000 1.0
END
