TITL C-884131-4643-50 3560559.04917748 125000 -12962.1060610917 0 0 88 (C1) n - 1
REM
REM in /home/nfs/bkarasulu/CARBON/AIRSS/Generating-Clusters/ReaxFF-fromJPCA2015/Units_Real/with-SteepDescent/Only-C1/SD-CG/Try1-3A/FIRE-CG
REM
REM
REM
REM
REM
REM ./C.cell (11c1c37f851c82e70ff6c80c92926a4b)
REM
REM compiler GCC version 9.2.1 20190827 (Red Hat 9.2.1-1)
REM options -cpp -mtune=generic -march=x86-64 -g -O0 -fpre-include=/usr/include/finclude/math-vector-fortran.h
REM seed -1608819913 -415081524 -1268953324 967388595 413587459 -515884888 1007972215 1383436912 -945747549 -1465182595 340753266 1023352230 -612611341 -298771346 348811643 1712127948 720742854 1757330097 -1664353100 1379655744 -772216126 354704550 -729230757 1055258172 -1609308522 -413525262 -485426579 -1325015839 -1295563270 -659532868 -1351599302 -1175091960 -1676832972
REM
CELL 1.54180   50.00000   50.00000   50.00000   90.00000   90.00000   90.00000
LATT -1
SFAC C  
C      1  0.5590160000000  0.5415340000000  0.4492490000000 1.0
C      1  0.4469360000000  0.4944340000000  0.4831640000000 1.0
C      1  0.5265120000000  0.4236990000000  0.4809920000000 1.0
C      1  0.4450710000000  0.5205600000000  0.4468580000000 1.0
C      1  0.4655040000000  0.5274320000000  0.5250480000000 1.0
C      1  0.5759600000000  0.4860750000000  0.4691640000000 1.0
C      1  0.4566900000000  0.4949470000000  0.4381410000000 1.0
C      1  0.5034030000000  0.5652380000000  0.5465020000000 1.0
C      1  0.4474970000000  0.4337210000000  0.5012700000000 1.0
C      1  0.4246470000000  0.5401990000000  0.4945650000000 1.0
C      1  0.4895220000000  0.4498650000000  0.5657460000000 1.0
C      1  0.4817610000000  0.5195800000000  0.5660980000000 1.0
C      1  0.4254010000000  0.4727800000000  0.5471540000000 1.0
C      1  0.5511940000000  0.5884890000000  0.4997570000000 1.0
C      1  0.5113630000000  0.5591000000000  0.4611020000000 1.0
C      1  0.5821500000000  0.5099840000000  0.4834600000000 1.0
C      1  0.4672000000000  0.5442490000000  0.5013650000000 1.0
C      1  0.5122130000000  0.5284930000000  0.5196350000000 1.0
C      1  0.5458740000000  0.4711010000000  0.4588450000000 1.0
C      1  0.4899300000000  0.4277000000000  0.4832710000000 1.0
C      1  0.5729580000000  0.5250600000000  0.5316550000000 1.0
C      1  0.4243480000000  0.5263270000000  0.4682910000000 1.0
C      1  0.5687090000000  0.5505770000000  0.5179460000000 1.0
C      1  0.4440570000000  0.4946650000000  0.5543090000000 1.0
C      1  0.5157050000000  0.5584040000000  0.5169640000000 1.0
C      1  0.5814820000000  0.5571850000000  0.4919770000000 1.0
C      1  0.4412590000000  0.5174220000000  0.5359130000000 1.0
C      1  0.4906730000000  0.4409290000000  0.5374220000000 1.0
C      1  0.4846500000000  0.4497780000000  0.4434030000000 1.0
C      1  0.5433810000000  0.4707300000000  0.5593690000000 1.0
C      1  0.5055940000000  0.5647590000000  0.4878140000000 1.0
C      1  0.4405110000000  0.4535090000000  0.5598490000000 1.0
C      1  0.5289360000000  0.4706230000000  0.5314210000000 1.0
C      1  0.4074360000000  0.4966990000000  0.5084090000000 1.0
C      1  0.4680150000000  0.4675410000000  0.5104960000000 1.0
C      1  0.4897540000000  0.5140880000000  0.5316100000000 1.0
C      1  0.5011410000000  0.5184870000000  0.4277610000000 1.0
C      1  0.4613840000000  0.4288690000000  0.4756920000000 1.0
C      1  0.5512130000000  0.5858530000000  0.4702200000000 1.0
C      1  0.5478580000000  0.4451630000000  0.5269250000000 1.0
C      1  0.5453580000000  0.5672830000000  0.5182200000000 1.0
C      1  0.5462900000000  0.4338020000000  0.4993740000000 1.0
C      1  0.4660270000000  0.5403420000000  0.4525620000000 1.0
C      1  0.4191270000000  0.5003500000000  0.4811590000000 1.0
C      1  0.5299850000000  0.5199620000000  0.4264840000000 1.0
C      1  0.4531630000000  0.5738860000000  0.5271300000000 1.0
C      1  0.4435710000000  0.5624210000000  0.5018540000000 1.0
C      1  0.5261690000000  0.5017950000000  0.4859710000000 1.0
C      1  0.4730660000000  0.5463170000000  0.5655650000000 1.0
C      1  0.5663630000000  0.4622240000000  0.5410980000000 1.0
C      1  0.4580160000000  0.4457600000000  0.4512340000000 1.0
C      1  0.5404500000000  0.5638930000000  0.4548870000000 1.0
C      1  0.4635620000000  0.4422640000000  0.5249100000000 1.0
C      1  0.4946230000000  0.4785250000000  0.5714690000000 1.0
C      1  0.4734120000000  0.5696620000000  0.5492520000000 1.0
C      1  0.5744190000000  0.5838150000000  0.4853150000000 1.0
C      1  0.4151010000000  0.4710510000000  0.5189560000000 1.0
C      1  0.5796420000000  0.4670180000000  0.4901860000000 1.0
C      1  0.4773030000000  0.5302500000000  0.4781250000000 1.0
C      1  0.5319380000000  0.5153880000000  0.5060040000000 1.0
C      1  0.4923980000000  0.5429140000000  0.4411890000000 1.0
C      1  0.5228850000000  0.4897030000000  0.5689220000000 1.0
C      1  0.5012640000000  0.4689970000000  0.4310370000000 1.0
C      1  0.4923740000000  0.4777300000000  0.4712060000000 1.0
C      1  0.5383180000000  0.4984080000000  0.5269280000000 1.0
C      1  0.5276950000000  0.4581580000000  0.4396180000000 1.0
C      1  0.4854440000000  0.4932820000000  0.4301780000000 1.0
C      1  0.4694500000000  0.4940310000000  0.5705450000000 1.0
C      1  0.4885890000000  0.4575240000000  0.4913990000000 1.0
C      1  0.4417690000000  0.4693660000000  0.4462980000000 1.0
C      1  0.5206460000000  0.4887810000000  0.4667910000000 1.0
C      1  0.4626700000000  0.4403280000000  0.5662990000000 1.0
C      1  0.5806580000000  0.4766080000000  0.5188210000000 1.0
C      1  0.5777830000000  0.5363960000000  0.4724500000000 1.0
C      1  0.5144200000000  0.5441370000000  0.5623660000000 1.0
C      1  0.4238110000000  0.4608170000000  0.4688220000000 1.0
C      1  0.4742930000000  0.4998100000000  0.4802300000000 1.0
C      1  0.5037960000000  0.4637170000000  0.5271350000000 1.0
C      1  0.5519250000000  0.5129900000000  0.5486040000000 1.0
C      1  0.4960310000000  0.4255770000000  0.4535850000000 1.0
C      1  0.5834140000000  0.5046560000000  0.5137060000000 1.0
C      1  0.4242990000000  0.4524800000000  0.4976450000000 1.0
C      1  0.5297120000000  0.5199980000000  0.5667610000000 1.0
C      1  0.4859280000000  0.4852730000000  0.5247460000000 1.0
C      1  0.5527360000000  0.5230040000000  0.4279450000000 1.0
C      1  0.5591450000000  0.4499290000000  0.4781780000000 1.0
C      1  0.4192240000000  0.5221130000000  0.5168920000000 1.0
C      1  0.5248310000000  0.4314170000000  0.4531180000000 1.0
END
