TITL C-884130-5973-177 63.6000752297335 125000 -25367.3419831686 0 0 173 (C1) n - 1
REM
REM in /home/nfs/bkarasulu/CARBON/AIRSS/Generating-Clusters/ReaxFF-fromJPCA2015/Units_Real/with-SteepDescent/Only-C1/SD-CG/Try1-3A/FIRE-CG
REM
REM
REM
REM
REM
REM ./C.cell (11c1c37f851c82e70ff6c80c92926a4b)
REM
REM compiler GCC version 9.2.1 20190827 (Red Hat 9.2.1-1)
REM options -cpp -mtune=generic -march=x86-64 -g -O0 -fpre-include=/usr/include/finclude/math-vector-fortran.h
REM seed 725024558 -1626548757 44020709 1811702007 1423977415 -333545901 730166229 461711788 -2031362414 1115434289 -1833362400 -169041235 1351368478 -1393540103 1091200750 1332932885 637653925 -2049266792 1051298099 -1510064143 -1104765664 -188192086 -670491392 -2052878254 379902688 756298327 1637555100 1715539934 -219975348 1213079246 -373855417 93252405 2131581637
REM
CELL 1.54180   50.00000   50.00000   50.00000   90.00000   90.00000   90.00000
LATT -1
SFAC C  
C      1  0.5132060000000  0.3891110000000  0.5026670000000 1.0
C      1  0.5325750000000  0.4084460000000  0.4315720000000 1.0
C      1  0.5589030000000  0.4892410000000  0.4199250000000 1.0
C      1  0.4295690000000  0.5055050000000  0.4273050000000 1.0
C      1  0.4970320000000  0.5863620000000  0.5832090000000 1.0
C      1  0.4011690000000  0.4399520000000  0.5280120000000 1.0
C      1  0.5598330000000  0.5142880000000  0.5975550000000 1.0
C      1  0.4542010000000  0.5623680000000  0.5766980000000 1.0
C      1  0.5038620000000  0.5588890000000  0.4633900000000 1.0
C      1  0.5710860000000  0.4173240000000  0.5445920000000 1.0
C      1  0.4949570000000  0.5280390000000  0.4490480000000 1.0
C      1  0.4569470000000  0.5346190000000  0.4134990000000 1.0
C      1  0.4432300000000  0.4707880000000  0.5576620000000 1.0
C      1  0.5465650000000  0.4087110000000  0.5555450000000 1.0
C      1  0.4767630000000  0.5940190000000  0.4693600000000 1.0
C      1  0.5110200000000  0.4224530000000  0.4468080000000 1.0
C      1  0.4633600000000  0.4079210000000  0.5004090000000 1.0
C      1  0.5355660000000  0.4053760000000  0.4812460000000 1.0
C      1  0.4957120000000  0.4200930000000  0.5651320000000 1.0
C      1  0.5553180000000  0.5923850000000  0.4679790000000 1.0
C      1  0.4175580000000  0.5593170000000  0.4793900000000 1.0
C      1  0.5421790000000  0.5347130000000  0.4755130000000 1.0
C      1  0.4354310000000  0.4149450000000  0.5081570000000 1.0
C      1  0.4590870000000  0.4588330000000  0.4124410000000 1.0
C      1  0.4966620000000  0.5630440000000  0.4238870000000 1.0
C      1  0.5063330000000  0.4021240000000  0.5269980000000 1.0
C      1  0.4807950000000  0.4904140000000  0.4877890000000 1.0
C      1  0.5735270000000  0.4664320000000  0.5609120000000 1.0
C      1  0.5738390000000  0.5109770000000  0.4630000000000 1.0
C      1  0.4604180000000  0.5281390000000  0.6124270000000 1.0
C      1  0.4821750000000  0.5398450000000  0.5025930000000 1.0
C      1  0.4377080000000  0.5445220000000  0.5565980000000 1.0
C      1  0.5207550000000  0.5019090000000  0.3850190000000 1.0
C      1  0.5121800000000  0.5996930000000  0.5636530000000 1.0
C      1  0.4487630000000  0.4971180000000  0.5741260000000 1.0
C      1  0.5855460000000  0.5560600000000  0.4486170000000 1.0
C      1  0.5022940000000  0.5311620000000  0.5601410000000 1.0
C      1  0.5547630000000  0.4895470000000  0.4666950000000 1.0
C      1  0.5828300000000  0.4550410000000  0.4481820000000 1.0
C      1  0.5865670000000  0.4353840000000  0.5261560000000 1.0
C      1  0.4336320000000  0.4518020000000  0.4353390000000 1.0
C      1  0.4993190000000  0.5608500000000  0.5982610000000 1.0
C      1  0.5491950000000  0.5410490000000  0.5914250000000 1.0
C      1  0.6101550000000  0.5235970000000  0.5134290000000 1.0
C      1  0.5595030000000  0.5193910000000  0.4149850000000 1.0
C      1  0.5051990000000  0.4426170000000  0.5012370000000 1.0
C      1  0.5594860000000  0.4913000000000  0.5562600000000 1.0
C      1  0.5224790000000  0.5703520000000  0.5090720000000 1.0
C      1  0.5830230000000  0.5610770000000  0.5389890000000 1.0
C      1  0.5093420000000  0.4858300000000  0.4202530000000 1.0
C      1  0.4722050000000  0.5822190000000  0.5668330000000 1.0
C      1  0.4473750000000  0.4724300000000  0.5275410000000 1.0
C      1  0.4740790000000  0.5112980000000  0.4653960000000 1.0
C      1  0.4326040000000  0.4338160000000  0.4579470000000 1.0
C      1  0.4608790000000  0.4845840000000  0.3972490000000 1.0
C      1  0.4159420000000  0.5286300000000  0.4393290000000 1.0
C      1  0.4507920000000  0.5835170000000  0.4758860000000 1.0
C      1  0.5976450000000  0.4966770000000  0.4531220000000 1.0
C      1  0.5424950000000  0.5256480000000  0.5416560000000 1.0
C      1  0.3928040000000  0.4755360000000  0.4937010000000 1.0
C      1  0.5098330000000  0.5261940000000  0.3936610000000 1.0
C      1  0.4345260000000  0.4940870000000  0.4740130000000 1.0
C      1  0.5908970000000  0.4619990000000  0.5378280000000 1.0
C      1  0.4259120000000  0.4376310000000  0.4901170000000 1.0
C      1  0.5382640000000  0.4344740000000  0.4192810000000 1.0
C      1  0.6142430000000  0.4973220000000  0.5026980000000 1.0
C      1  0.4840950000000  0.4215230000000  0.5187780000000 1.0
C      1  0.5582040000000  0.4790890000000  0.4910710000000 1.0
C      1  0.5245780000000  0.5536930000000  0.4262330000000 1.0
C      1  0.4569790000000  0.4463240000000  0.5715510000000 1.0
C      1  0.5310950000000  0.4734710000000  0.5327500000000 1.0
C      1  0.4251670000000  0.4235870000000  0.5338300000000 1.0
C      1  0.5983000000000  0.4564930000000  0.4748000000000 1.0
C      1  0.4307220000000  0.5200620000000  0.5739040000000 1.0
C      1  0.5340690000000  0.4671550000000  0.5914350000000 1.0
C      1  0.4920740000000  0.4870770000000  0.5722430000000 1.0
C      1  0.4875280000000  0.5362530000000  0.4163060000000 1.0
C      1  0.5522550000000  0.5699480000000  0.5115670000000 1.0
C      1  0.5009520000000  0.5117750000000  0.5809060000000 1.0
C      1  0.5495060000000  0.4322160000000  0.4741950000000 1.0
C      1  0.5095180000000  0.4201220000000  0.4752740000000 1.0
C      1  0.5505150000000  0.4514020000000  0.4951530000000 1.0
C      1  0.6099200000000  0.4840460000000  0.4763300000000 1.0
C      1  0.5727120000000  0.5130820000000  0.5712380000000 1.0
C      1  0.4690280000000  0.4763730000000  0.4352310000000 1.0
C      1  0.5591060000000  0.5380250000000  0.5625870000000 1.0
C      1  0.5976050000000  0.5427620000000  0.5263210000000 1.0
C      1  0.4909800000000  0.4368100000000  0.4337930000000 1.0
C      1  0.4119480000000  0.4991720000000  0.5351200000000 1.0
C      1  0.4460690000000  0.5928390000000  0.5034170000000 1.0
C      1  0.4465580000000  0.4253950000000  0.5548230000000 1.0
C      1  0.5618750000000  0.4259990000000  0.5698390000000 1.0
C      1  0.5748100000000  0.5373190000000  0.4300850000000 1.0
C      1  0.5697380000000  0.4989000000000  0.5086660000000 1.0
C      1  0.4987820000000  0.4716660000000  0.4997930000000 1.0
C      1  0.4737700000000  0.4184890000000  0.5466060000000 1.0
C      1  0.4146310000000  0.5566050000000  0.5353530000000 1.0
C      1  0.4870580000000  0.4598170000000  0.4512130000000 1.0
C      1  0.5052190000000  0.4642950000000  0.5850880000000 1.0
C      1  0.4403620000000  0.5168330000000  0.4928950000000 1.0
C      1  0.4843460000000  0.4901820000000  0.5448460000000 1.0
C      1  0.3993290000000  0.4483050000000  0.5000360000000 1.0
C      1  0.5020540000000  0.5582560000000  0.4924580000000 1.0
C      1  0.5152890000000  0.4813050000000  0.4480000000000 1.0
C      1  0.5548560000000  0.4444470000000  0.4466800000000 1.0
C      1  0.4586660000000  0.4711540000000  0.4853100000000 1.0
C      1  0.4046000000000  0.4892280000000  0.4683480000000 1.0
C      1  0.3945620000000  0.5426060000000  0.4817110000000 1.0
C      1  0.4910030000000  0.3933090000000  0.4676800000000 1.0
C      1  0.5703460000000  0.5285280000000  0.4868780000000 1.0
C      1  0.4544850000000  0.5562000000000  0.4594910000000 1.0
C      1  0.5176180000000  0.4488580000000  0.4046870000000 1.0
C      1  0.4826910000000  0.4919270000000  0.4145890000000 1.0
C      1  0.5206010000000  0.5171020000000  0.4863120000000 1.0
C      1  0.4001630000000  0.5212230000000  0.4623910000000 1.0
C      1  0.4279260000000  0.5781180000000  0.5215460000000 1.0
C      1  0.4482430000000  0.4545290000000  0.5057310000000 1.0
C      1  0.4331610000000  0.5221470000000  0.6034720000000 1.0
C      1  0.4501990000000  0.4976930000000  0.4490930000000 1.0
C      1  0.5471610000000  0.6066060000000  0.5442600000000 1.0
C      1  0.4579920000000  0.4221900000000  0.4681720000000 1.0
C      1  0.5461290000000  0.3945640000000  0.4539550000000 1.0
C      1  0.5303530000000  0.4502810000000  0.5157530000000 1.0
C      1  0.5615940000000  0.5797720000000  0.5374310000000 1.0
C      1  0.4789850000000  0.5713810000000  0.4491290000000 1.0
C      1  0.5139660000000  0.5089170000000  0.4586430000000 1.0
C      1  0.5219870000000  0.5427790000000  0.6027120000000 1.0
C      1  0.4119480000000  0.4790720000000  0.5555350000000 1.0
C      1  0.5271810000000  0.6037470000000  0.4695930000000 1.0
C      1  0.5938550000000  0.4868980000000  0.5213810000000 1.0
C      1  0.5181500000000  0.6115670000000  0.5396030000000 1.0
C      1  0.4297640000000  0.5435230000000  0.5007440000000 1.0
C      1  0.4804600000000  0.5466300000000  0.5515990000000 1.0
C      1  0.4999470000000  0.6050360000000  0.4850340000000 1.0
C      1  0.5164330000000  0.5336220000000  0.5360310000000 1.0
C      1  0.5841080000000  0.5537430000000  0.4781150000000 1.0
C      1  0.5413480000000  0.5501010000000  0.4507490000000 1.0
C      1  0.4709460000000  0.4488280000000  0.4721360000000 1.0
C      1  0.4129660000000  0.4678650000000  0.4456750000000 1.0
C      1  0.4856020000000  0.4433900000000  0.5791260000000 1.0
C      1  0.4696010000000  0.6084590000000  0.5155600000000 1.0
C      1  0.4403220000000  0.5456900000000  0.4350220000000 1.0
C      1  0.5441640000000  0.4760500000000  0.4449620000000 1.0
C      1  0.5189610000000  0.4111360000000  0.5509460000000 1.0
C      1  0.4457390000000  0.5092370000000  0.4033240000000 1.0
C      1  0.3896880000000  0.4863110000000  0.5207820000000 1.0
C      1  0.4854190000000  0.3858710000000  0.4955670000000 1.0
C      1  0.5563080000000  0.4525010000000  0.5782830000000 1.0
C      1  0.5921070000000  0.4437970000000  0.4995510000000 1.0
C      1  0.4540760000000  0.5007400000000  0.6026540000000 1.0
C      1  0.5345560000000  0.5349040000000  0.4054820000000 1.0
C      1  0.4856880000000  0.5738950000000  0.5421720000000 1.0
C      1  0.4683530000000  0.5094650000000  0.5302970000000 1.0
C      1  0.4979390000000  0.6122510000000  0.5133340000000 1.0
C      1  0.4587490000000  0.5356090000000  0.5363840000000 1.0
C      1  0.5386300000000  0.4937740000000  0.6030640000000 1.0
C      1  0.5306980000000  0.4787700000000  0.3998830000000 1.0
C      1  0.5603570000000  0.5721560000000  0.4469490000000 1.0
C      1  0.4691350000000  0.3981150000000  0.4497080000000 1.0
C      1  0.5695150000000  0.5764310000000  0.4883200000000 1.0
C      1  0.4887280000000  0.4448240000000  0.4069270000000 1.0
C      1  0.4033150000000  0.5412360000000  0.5132150000000 1.0
C      1  0.5114390000000  0.5639840000000  0.5348050000000 1.0
C      1  0.5475640000000  0.4987650000000  0.5310730000000 1.0
C      1  0.3910850000000  0.4640350000000  0.5417880000000 1.0
C      1  0.5841450000000  0.4791870000000  0.4327680000000 1.0
C      1  0.4410840000000  0.5003060000000  0.5208680000000 1.0
C      1  0.5172380000000  0.5137220000000  0.6049810000000 1.0
C      1  0.4710740000000  0.5513770000000  0.5980180000000 1.0
C      1  0.5174460000000  0.5836700000000  0.4530600000000 1.0
C      1  0.5035680000000  0.4790900000000  0.5277020000000 1.0
C      1  0.4627080000000  0.5319640000000  0.4810880000000 1.0
C      1  0.5017410000000  0.5193950000000  0.5090200000000 1.0
END
