TITL C-884136-4169-66 -9.95957431424506 125000 -8173.04405841793 0 0 57 (C1) n - 1
REM
REM in /home/nfs/bkarasulu/CARBON/AIRSS/Generating-Clusters/ReaxFF-fromJPCA2015/Units_Real/with-SteepDescent/Only-C1/SD-CG/Try1-3A/FIRE-CG
REM
REM
REM
REM
REM
REM ./C.cell (11c1c37f851c82e70ff6c80c92926a4b)
REM
REM compiler GCC version 9.2.1 20190827 (Red Hat 9.2.1-1)
REM options -cpp -mtune=generic -march=x86-64 -g -O0 -fpre-include=/usr/include/finclude/math-vector-fortran.h
REM seed 1699910755 403175548 -77144283 -1588203226 329323079 2091352280 2026171510 1306317166 -1895535981 1285867772 1200774198 486712242 1640272129 -72408402 1901936368 1360300819 695183938 1658489961 1345649489 -1326122403 -256057521 -1359220304 331885114 571860765 -1090427277 2009021638 1239817087 -1213941013 935819290 -1997439212 1920078786 1010853646 -416175325
REM
CELL 1.54180   50.00000   50.00000   50.00000   90.00000   90.00000   90.00000
LATT -1
SFAC C  
C      1  0.4812990000000  0.4771580000000  0.5199320000000 1.0
C      1  0.5011810000000  0.5300940000000  0.5627330000000 1.0
C      1  0.5316950000000  0.5682250000000  0.5379060000000 1.0
C      1  0.4905600000000  0.5287600000000  0.4338670000000 1.0
C      1  0.4793270000000  0.4499570000000  0.5034370000000 1.0
C      1  0.5746490000000  0.5484930000000  0.4846100000000 1.0
C      1  0.5600300000000  0.5294620000000  0.5392910000000 1.0
C      1  0.4782270000000  0.4365330000000  0.5303020000000 1.0
C      1  0.5280050000000  0.5055290000000  0.5146250000000 1.0
C      1  0.5436260000000  0.5323750000000  0.4461270000000 1.0
C      1  0.4501380000000  0.4996090000000  0.4664410000000 1.0
C      1  0.4570820000000  0.4475670000000  0.4794620000000 1.0
C      1  0.5600740000000  0.5575300000000  0.5372820000000 1.0
C      1  0.5061430000000  0.4401490000000  0.4994680000000 1.0
C      1  0.5023340000000  0.4956180000000  0.5260640000000 1.0
C      1  0.5294830000000  0.5248980000000  0.4931290000000 1.0
C      1  0.5134390000000  0.4577370000000  0.5689860000000 1.0
C      1  0.4244620000000  0.5410170000000  0.4426200000000 1.0
C      1  0.4568730000000  0.5382200000000  0.5122070000000 1.0
C      1  0.4265760000000  0.4669240000000  0.5180920000000 1.0
C      1  0.4687550000000  0.4554880000000  0.4542060000000 1.0
C      1  0.4461650000000  0.4628090000000  0.5378860000000 1.0
C      1  0.5193440000000  0.4610170000000  0.4814410000000 1.0
C      1  0.5218320000000  0.4379180000000  0.5504220000000 1.0
C      1  0.5398330000000  0.4561570000000  0.5591620000000 1.0
C      1  0.5717940000000  0.5561770000000  0.5114610000000 1.0
C      1  0.4477540000000  0.5542030000000  0.4616040000000 1.0
C      1  0.5501010000000  0.5048880000000  0.5344650000000 1.0
C      1  0.5098070000000  0.5628040000000  0.5212850000000 1.0
C      1  0.4359120000000  0.5192560000000  0.5163110000000 1.0
C      1  0.5344270000000  0.4831930000000  0.4434460000000 1.0
C      1  0.4816320000000  0.5276270000000  0.4984150000000 1.0
C      1  0.5071190000000  0.4319260000000  0.5270620000000 1.0
C      1  0.5159540000000  0.5429040000000  0.4427760000000 1.0
C      1  0.5007020000000  0.4851890000000  0.4808570000000 1.0
C      1  0.4979200000000  0.5016300000000  0.5548270000000 1.0
C      1  0.4724320000000  0.4632750000000  0.5446350000000 1.0
C      1  0.5620420000000  0.4645540000000  0.5150690000000 1.0
C      1  0.4326300000000  0.4801010000000  0.4716370000000 1.0
C      1  0.4278620000000  0.4947800000000  0.5203520000000 1.0
C      1  0.4310490000000  0.4582990000000  0.4889450000000 1.0
C      1  0.4879980000000  0.5002260000000  0.4347740000000 1.0
C      1  0.4798100000000  0.5040380000000  0.4813490000000 1.0
C      1  0.4908550000000  0.4751670000000  0.5650970000000 1.0
C      1  0.5461150000000  0.5049370000000  0.4419590000000 1.0
C      1  0.5062500000000  0.5561060000000  0.5499880000000 1.0
C      1  0.4320590000000  0.5158550000000  0.4526810000000 1.0
C      1  0.5061600000000  0.5450730000000  0.4944610000000 1.0
C      1  0.4898090000000  0.4712080000000  0.4398360000000 1.0
C      1  0.5173220000000  0.4630030000000  0.4497400000000 1.0
C      1  0.5597110000000  0.4740580000000  0.5436900000000 1.0
C      1  0.5519140000000  0.4607400000000  0.4914500000000 1.0
C      1  0.4755760000000  0.5506320000000  0.4514480000000 1.0
C      1  0.4448440000000  0.5470440000000  0.4885790000000 1.0
C      1  0.5888060000000  0.4672050000000  0.5437810000000 1.0
C      1  0.5008900000000  0.5557670000000  0.4640050000000 1.0
C      1  0.5516110000000  0.5288890000000  0.4743170000000 1.0
END
