TITL C-883740-3686-43 -721511.925236267 125000 -6384.21673931591 0 0 44 (C1) n - 1
REM
REM in /home/nfs/bkarasulu/CARBON/AIRSS/Generating-Clusters/ReaxFF-fromJPCA2015/Units_Real/with-SteepDescent/Only-C1/SD-CG/Try1-3A/FIRE-CG
REM
REM
REM
REM
REM
REM ./C.cell (11c1c37f851c82e70ff6c80c92926a4b)
REM
REM compiler GCC version 9.2.1 20190827 (Red Hat 9.2.1-1)
REM options -cpp -mtune=generic -march=x86-64 -g -O0 -fpre-include=/usr/include/finclude/math-vector-fortran.h
REM seed 845887135 -1912569724 568829323 250377060 356745809 -1945088976 -621722839 1832241821 1015461946 1281283634 753593604 -978633727 -201405437 1874178036 -925604217 960073632 360805068 1349919448 -1978602131 471184514 1542049142 -1786671010 2017299781 -1224172020 -608805417 800415138 829665230 897149156 -362191020 1102326065 541699627 -709629677 -1563858471
REM
CELL 1.54180   50.00000   50.00000   50.00000   90.00000   90.00000   90.00000
LATT -1
SFAC C  
C      1  0.4772690000000  0.5251640000000  0.5309960000000 1.0
C      1  0.4493580000000  0.5301890000000  0.5178830000000 1.0
C      1  0.5335630000000  0.4919880000000  0.4851280000000 1.0
C      1  0.4553370000000  0.4574090000000  0.4889380000000 1.0
C      1  0.4368460000000  0.4679800000000  0.5412230000000 1.0
C      1  0.4785280000000  0.5095230000000  0.4152400000000 1.0
C      1  0.4864640000000  0.4866480000000  0.4858790000000 1.0
C      1  0.5700680000000  0.4970540000000  0.5046630000000 1.0
C      1  0.5176640000000  0.5035570000000  0.5607940000000 1.0
C      1  0.5318330000000  0.4979900000000  0.4549190000000 1.0
C      1  0.5553890000000  0.4747680000000  0.4967520000000 1.0
C      1  0.4716710000000  0.5038070000000  0.5480210000000 1.0
C      1  0.5040030000000  0.5258400000000  0.5164070000000 1.0
C      1  0.5418180000000  0.4879100000000  0.5533160000000 1.0
C      1  0.4939780000000  0.4945950000000  0.4248430000000 1.0
C      1  0.4506240000000  0.5108690000000  0.4686000000000 1.0
C      1  0.5019250000000  0.4621830000000  0.5437740000000 1.0
C      1  0.4372670000000  0.5529660000000  0.5118780000000 1.0
C      1  0.5077940000000  0.4992010000000  0.4982520000000 1.0
C      1  0.4777380000000  0.4423760000000  0.4993060000000 1.0
C      1  0.5103380000000  0.4802320000000  0.4427510000000 1.0
C      1  0.5307430000000  0.4636910000000  0.5405980000000 1.0
C      1  0.5047600000000  0.5472000000000  0.4934230000000 1.0
C      1  0.4615570000000  0.5346000000000  0.4586150000000 1.0
C      1  0.5676900000000  0.5377460000000  0.5019610000000 1.0
C      1  0.4956540000000  0.4678900000000  0.4649900000000 1.0
C      1  0.4394020000000  0.5003300000000  0.5160590000000 1.0
C      1  0.4838350000000  0.5538860000000  0.4739230000000 1.0
C      1  0.5272630000000  0.5506550000000  0.4730550000000 1.0
C      1  0.5023720000000  0.4433330000000  0.4808500000000 1.0
C      1  0.5249960000000  0.5233370000000  0.5403630000000 1.0
C      1  0.4812040000000  0.4459870000000  0.5297100000000 1.0
C      1  0.4530250000000  0.4888700000000  0.4917310000000 1.0
C      1  0.4660960000000  0.5242390000000  0.4320320000000 1.0
C      1  0.5574450000000  0.5574450000000  0.4874040000000 1.0
C      1  0.5244400000000  0.4465230000000  0.4969040000000 1.0
C      1  0.5434970000000  0.4536880000000  0.5154140000000 1.0
C      1  0.4557190000000  0.4549990000000  0.5373820000000 1.0
C      1  0.5296520000000  0.5248890000000  0.4601160000000 1.0
C      1  0.5014480000000  0.5706250000000  0.4592960000000 1.0
C      1  0.4429130000000  0.4931270000000  0.5413860000000 1.0
C      1  0.4936000000000  0.4870280000000  0.5573500000000 1.0
C      1  0.5717490000000  0.5154760000000  0.5190190000000 1.0
C      1  0.5514650000000  0.5121840000000  0.5388570000000 1.0
END
