TITL C-884131-4643-399 2.95682422044443 125000 -4644.38103007853 0 0 33 (C1) n - 1
REM
REM in /home/nfs/bkarasulu/CARBON/AIRSS/Generating-Clusters/ReaxFF-fromJPCA2015/Units_Real/with-SteepDescent/Only-C1/SD-CG/Try1-3A/FIRE-CG
REM
REM
REM
REM
REM
REM ./C.cell (11c1c37f851c82e70ff6c80c92926a4b)
REM
REM compiler GCC version 9.2.1 20190827 (Red Hat 9.2.1-1)
REM options -cpp -mtune=generic -march=x86-64 -g -O0 -fpre-include=/usr/include/finclude/math-vector-fortran.h
REM seed -919594250 -1667022494 372568208 517461843 -1672926016 6647729 1267984855 475698589 690778520 962688107 -2023190174 1631349871 -227364456 -8795057 1592378754 827862915 1115247088 -1410798373 1836219676 1609449938 -1473574359 1841530805 1892366774 2065678556 368228703 1107085927 -58043035 319451310 1894592298 990308647 659977740 1069183688 -1326725908
REM
CELL 1.54180   50.00000   50.00000   50.00000   90.00000   90.00000   90.00000
LATT -1
SFAC C  
C      1  0.5011430000000  0.4721120000000  0.5371490000000 1.0
C      1  0.4451040000000  0.4979450000000  0.4699410000000 1.0
C      1  0.5523710000000  0.4940390000000  0.4916390000000 1.0
C      1  0.5400230000000  0.5303990000000  0.5195940000000 1.0
C      1  0.5228540000000  0.5519660000000  0.5219340000000 1.0
C      1  0.5369130000000  0.4721890000000  0.4551330000000 1.0
C      1  0.4320790000000  0.4833370000000  0.4922820000000 1.0
C      1  0.5545880000000  0.4946450000000  0.4619530000000 1.0
C      1  0.4918460000000  0.5519750000000  0.4943510000000 1.0
C      1  0.5272050000000  0.4777820000000  0.5305960000000 1.0
C      1  0.4743670000000  0.4709360000000  0.5443760000000 1.0
C      1  0.4630680000000  0.4996290000000  0.5487450000000 1.0
C      1  0.5326950000000  0.5130440000000  0.4987850000000 1.0
C      1  0.4979940000000  0.5068490000000  0.4586160000000 1.0
C      1  0.5423410000000  0.4702970000000  0.5059160000000 1.0
C      1  0.4568240000000  0.4426560000000  0.5053080000000 1.0
C      1  0.4341570000000  0.4609040000000  0.5108770000000 1.0
C      1  0.5032090000000  0.4720920000000  0.4894080000000 1.0
C      1  0.4865060000000  0.5321210000000  0.5351570000000 1.0
C      1  0.5184770000000  0.4911440000000  0.4415790000000 1.0
C      1  0.4810440000000  0.4540270000000  0.4924810000000 1.0
C      1  0.5380710000000  0.5127200000000  0.4450280000000 1.0
C      1  0.5051940000000  0.5053300000000  0.4919030000000 1.0
C      1  0.4974020000000  0.5614480000000  0.5223340000000 1.0
C      1  0.5318410000000  0.5080640000000  0.5392540000000 1.0
C      1  0.5103230000000  0.5538650000000  0.4698820000000 1.0
C      1  0.5292860000000  0.4606130000000  0.4815690000000 1.0
C      1  0.5155660000000  0.5322510000000  0.4514230000000 1.0
C      1  0.4679600000000  0.5058810000000  0.4540620000000 1.0
C      1  0.4872550000000  0.5250820000000  0.5051720000000 1.0
C      1  0.4593880000000  0.5216100000000  0.5490360000000 1.0
C      1  0.4536970000000  0.4540220000000  0.5317610000000 1.0
C      1  0.5092080000000  0.5190270000000  0.5527560000000 1.0
END
