TITL C-883727-9645-97 21.3552607441652 125000 -19112.3727126361 0 0 127 (C1) n - 1
REM
REM in /home/nfs/bkarasulu/CARBON/AIRSS/Generating-Clusters/ReaxFF-fromJPCA2015/Units_Real/with-SteepDescent/Only-C1/SD-CG/Try1-3A/FIRE-CG
REM
REM
REM
REM
REM
REM ./C.cell (11c1c37f851c82e70ff6c80c92926a4b)
REM
REM compiler GCC version 9.2.1 20190827 (Red Hat 9.2.1-1)
REM options -cpp -mtune=generic -march=x86-64 -g -O0 -fpre-include=/usr/include/finclude/math-vector-fortran.h
REM seed 1249221904 -563592145 -739815901 -175836669 -2077819744 -1847938178 124675292 -702851294 -189016715 -320027453 2011282601 -1133703990 -951895197 -1522603256 -1680411847 -813026559 -247768581 -826610454 91369090 -305182299 292293683 -22694737 -1862143330 1556367213 726257883 1656178696 -843385209 -1677995899 -573335639 -516235897 1485297078 -1307470161 -2050105318
REM
CELL 1.54180   50.00000   50.00000   50.00000   90.00000   90.00000   90.00000
LATT -1
SFAC C  
C      1  0.4773920000000  0.5641240000000  0.4354000000000 1.0
C      1  0.4082090000000  0.4779910000000  0.5336650000000 1.0
C      1  0.5103740000000  0.5198000000000  0.5959850000000 1.0
C      1  0.5065100000000  0.4844550000000  0.5392650000000 1.0
C      1  0.4990150000000  0.4047340000000  0.4693680000000 1.0
C      1  0.5383550000000  0.5142310000000  0.4599270000000 1.0
C      1  0.4632210000000  0.5248760000000  0.4791940000000 1.0
C      1  0.5090540000000  0.5244240000000  0.4591120000000 1.0
C      1  0.4469300000000  0.4197340000000  0.5278610000000 1.0
C      1  0.5081270000000  0.4442340000000  0.4203540000000 1.0
C      1  0.5427430000000  0.4261640000000  0.4530550000000 1.0
C      1  0.4704380000000  0.5810430000000  0.4597010000000 1.0
C      1  0.4940980000000  0.5637280000000  0.5810980000000 1.0
C      1  0.5638630000000  0.5528370000000  0.5566920000000 1.0
C      1  0.4913070000000  0.4098560000000  0.4418600000000 1.0
C      1  0.4585050000000  0.4895760000000  0.5399470000000 1.0
C      1  0.4819350000000  0.5383900000000  0.5468480000000 1.0
C      1  0.5580470000000  0.5133250000000  0.4911270000000 1.0
C      1  0.4670060000000  0.4264060000000  0.4396860000000 1.0
C      1  0.4796220000000  0.4493630000000  0.4274940000000 1.0
C      1  0.5073280000000  0.4726180000000  0.5138730000000 1.0
C      1  0.4904120000000  0.5899930000000  0.5397130000000 1.0
C      1  0.5176960000000  0.4217080000000  0.4363440000000 1.0
C      1  0.5281250000000  0.4676620000000  0.5988240000000 1.0
C      1  0.4480920000000  0.4297210000000  0.4625600000000 1.0
C      1  0.5042230000000  0.4556880000000  0.4763900000000 1.0
C      1  0.4381940000000  0.5310930000000  0.5662370000000 1.0
C      1  0.5154830000000  0.4890990000000  0.4294590000000 1.0
C      1  0.4888080000000  0.4354060000000  0.5447590000000 1.0
C      1  0.4876380000000  0.5098270000000  0.4728810000000 1.0
C      1  0.5791750000000  0.5231910000000  0.4465740000000 1.0
C      1  0.5762590000000  0.4709600000000  0.4379310000000 1.0
C      1  0.4602920000000  0.4256650000000  0.4887090000000 1.0
C      1  0.5299680000000  0.6024070000000  0.5111660000000 1.0
C      1  0.5334750000000  0.5703520000000  0.4865230000000 1.0
C      1  0.4847700000000  0.5568990000000  0.4991780000000 1.0
C      1  0.5141090000000  0.5369880000000  0.4115670000000 1.0
C      1  0.5256950000000  0.4325080000000  0.5767540000000 1.0
C      1  0.4713270000000  0.5157270000000  0.4230250000000 1.0
C      1  0.5430810000000  0.5384120000000  0.4168100000000 1.0
C      1  0.4098070000000  0.5095950000000  0.4449320000000 1.0
C      1  0.5098030000000  0.5228940000000  0.5036070000000 1.0
C      1  0.4611750000000  0.5408590000000  0.4333260000000 1.0
C      1  0.5626400000000  0.5686110000000  0.5326960000000 1.0
C      1  0.4893980000000  0.4725360000000  0.5833760000000 1.0
C      1  0.4825380000000  0.4813520000000  0.5557810000000 1.0
C      1  0.4168240000000  0.4503280000000  0.4963400000000 1.0
C      1  0.5508870000000  0.5598760000000  0.4354140000000 1.0
C      1  0.4322170000000  0.4795620000000  0.5485120000000 1.0
C      1  0.4073610000000  0.5233280000000  0.4905630000000 1.0
C      1  0.5368480000000  0.5296070000000  0.5879530000000 1.0
C      1  0.5825700000000  0.4946670000000  0.4535200000000 1.0
C      1  0.4620770000000  0.4793780000000  0.4945810000000 1.0
C      1  0.5451750000000  0.4198870000000  0.5096780000000 1.0
C      1  0.4435400000000  0.5746170000000  0.4642480000000 1.0
C      1  0.5724830000000  0.4880530000000  0.4834610000000 1.0
C      1  0.4859180000000  0.5842840000000  0.4887130000000 1.0
C      1  0.5834360000000  0.4804240000000  0.5313150000000 1.0
C      1  0.5614760000000  0.5622920000000  0.4819050000000 1.0
C      1  0.4186550000000  0.4549230000000  0.5437430000000 1.0
C      1  0.5104090000000  0.5496870000000  0.4896650000000 1.0
C      1  0.4138340000000  0.5368590000000  0.5156460000000 1.0
C      1  0.5556590000000  0.4601320000000  0.4197370000000 1.0
C      1  0.3977470000000  0.4958740000000  0.4876910000000 1.0
C      1  0.5657840000000  0.4355420000000  0.5233640000000 1.0
C      1  0.5260760000000  0.4717170000000  0.4840390000000 1.0
C      1  0.5349010000000  0.4917390000000  0.5539540000000 1.0
C      1  0.4865930000000  0.4528720000000  0.5206960000000 1.0
C      1  0.4162600000000  0.5298150000000  0.5436280000000 1.0
C      1  0.5236260000000  0.5691880000000  0.4416280000000 1.0
C      1  0.5427720000000  0.5560760000000  0.5770040000000 1.0
C      1  0.5435510000000  0.5919880000000  0.5335060000000 1.0
C      1  0.5272230000000  0.4878730000000  0.4561690000000 1.0
C      1  0.5457540000000  0.4541320000000  0.5778870000000 1.0
C      1  0.5167120000000  0.5937130000000  0.4881160000000 1.0
C      1  0.5183160000000  0.5912180000000  0.5497230000000 1.0
C      1  0.5066020000000  0.4491070000000  0.5916190000000 1.0
C      1  0.4504200000000  0.5822690000000  0.5168100000000 1.0
C      1  0.4668900000000  0.5266250000000  0.5693670000000 1.0
C      1  0.4441970000000  0.5419360000000  0.4587650000000 1.0
C      1  0.5103250000000  0.4285440000000  0.4806210000000 1.0
C      1  0.4241370000000  0.4357320000000  0.5218000000000 1.0
C      1  0.5084710000000  0.4906180000000  0.5969730000000 1.0
C      1  0.4621260000000  0.4514630000000  0.5041700000000 1.0
C      1  0.4645210000000  0.5363680000000  0.5059610000000 1.0
C      1  0.4308940000000  0.5533880000000  0.5499200000000 1.0
C      1  0.4817460000000  0.4773150000000  0.4700830000000 1.0
C      1  0.5204500000000  0.5743950000000  0.5738110000000 1.0
C      1  0.3977690000000  0.4887840000000  0.4605560000000 1.0
C      1  0.4869750000000  0.5364440000000  0.5893840000000 1.0
C      1  0.5824960000000  0.5100570000000  0.5331670000000 1.0
C      1  0.4258830000000  0.4478190000000  0.4688730000000 1.0
C      1  0.5319400000000  0.5166720000000  0.5370110000000 1.0
C      1  0.5691410000000  0.5503920000000  0.4561320000000 1.0
C      1  0.5046240000000  0.5260430000000  0.5322980000000 1.0
C      1  0.5776470000000  0.5265460000000  0.5092840000000 1.0
C      1  0.5354500000000  0.5121260000000  0.5090630000000 1.0
C      1  0.4567000000000  0.4923130000000  0.4300640000000 1.0
C      1  0.4807820000000  0.4039610000000  0.4925340000000 1.0
C      1  0.5545330000000  0.5171740000000  0.4328600000000 1.0
C      1  0.5428620000000  0.4633750000000  0.5520150000000 1.0
C      1  0.5734360000000  0.4483250000000  0.4986580000000 1.0
C      1  0.5896470000000  0.4723300000000  0.5044720000000 1.0
C      1  0.5033360000000  0.5632380000000  0.4211680000000 1.0
C      1  0.5215560000000  0.4123390000000  0.5257970000000 1.0
C      1  0.4811280000000  0.5672580000000  0.5551670000000 1.0
C      1  0.4619380000000  0.5013960000000  0.5131100000000 1.0
C      1  0.5678040000000  0.4575320000000  0.5434970000000 1.0
C      1  0.4719490000000  0.4730810000000  0.4425690000000 1.0
C      1  0.5374380000000  0.4228120000000  0.4812150000000 1.0
C      1  0.4739110000000  0.5965790000000  0.5154050000000 1.0
C      1  0.4169540000000  0.5302850000000  0.4639390000000 1.0
C      1  0.5723950000000  0.5551120000000  0.5085490000000 1.0
C      1  0.5637480000000  0.4425590000000  0.4412370000000 1.0
C      1  0.4046090000000  0.4746290000000  0.5056080000000 1.0
C      1  0.4727360000000  0.4116030000000  0.5371260000000 1.0
C      1  0.5267640000000  0.4659010000000  0.4152120000000 1.0
C      1  0.5726490000000  0.5245490000000  0.5567060000000 1.0
C      1  0.4947260000000  0.4023360000000  0.5184280000000 1.0
C      1  0.4160350000000  0.4689170000000  0.4508560000000 1.0
C      1  0.5538400000000  0.4655910000000  0.4850960000000 1.0
C      1  0.5519640000000  0.5105790000000  0.5717650000000 1.0
C      1  0.4293690000000  0.4896650000000  0.4347430000000 1.0
C      1  0.5183030000000  0.4321650000000  0.5477760000000 1.0
C      1  0.4390670000000  0.5560560000000  0.5181640000000 1.0
C      1  0.5081700000000  0.5524330000000  0.4598130000000 1.0
C      1  0.4999950000000  0.5125500000000  0.4177500000000 1.0
END
