TITL C-884127-5181-310 103.671514792954 125000 -18849.7438596698 0 0 128 (C1) n - 1
REM
REM in /home/nfs/bkarasulu/CARBON/AIRSS/Generating-Clusters/ReaxFF-fromJPCA2015/Units_Real/with-SteepDescent/Only-C1/SD-CG/Try1-3A/FIRE-CG
REM
REM
REM
REM
REM
REM ./C.cell (11c1c37f851c82e70ff6c80c92926a4b)
REM
REM compiler GCC version 9.2.1 20190827 (Red Hat 9.2.1-1)
REM options -cpp -mtune=generic -march=x86-64 -g -O0 -fpre-include=/usr/include/finclude/math-vector-fortran.h
REM seed 113831854 1483141475 -1305290912 -164375640 1668876748 1133980873 -144719925 -1107420414 669867415 827673188 -1487385371 1617838516 -651361926 -2124624609 626746169 -994809306 -946792753 -712873037 766654127 1494599082 1973295287 462213958 -35144833 -270907062 65287981 1418485995 842237514 -945549660 78119013 -1829614728 -639998421 -6661786 2051317340
REM
CELL 1.54180   50.00000   50.00000   50.00000   90.00000   90.00000   90.00000
LATT -1
SFAC C  
C      1  0.5175810000000  0.5315090000000  0.5114800000000 1.0
C      1  0.4846410000000  0.5612010000000  0.5687450000000 1.0
C      1  0.5911790000000  0.4612650000000  0.5245130000000 1.0
C      1  0.5656050000000  0.5617070000000  0.4719950000000 1.0
C      1  0.5289820000000  0.4426470000000  0.5625370000000 1.0
C      1  0.4377770000000  0.4222360000000  0.5053400000000 1.0
C      1  0.5495930000000  0.4120660000000  0.4731040000000 1.0
C      1  0.5408470000000  0.4949630000000  0.5314870000000 1.0
C      1  0.5132210000000  0.5660510000000  0.5537600000000 1.0
C      1  0.4071310000000  0.4902700000000  0.5187000000000 1.0
C      1  0.4929360000000  0.5503220000000  0.4248570000000 1.0
C      1  0.4636690000000  0.4451430000000  0.5766500000000 1.0
C      1  0.5719570000000  0.5323130000000  0.5465900000000 1.0
C      1  0.5511740000000  0.4852140000000  0.5589340000000 1.0
C      1  0.5540740000000  0.5768620000000  0.5213190000000 1.0
C      1  0.4853510000000  0.5791120000000  0.4638660000000 1.0
C      1  0.4558070000000  0.5001280000000  0.4795900000000 1.0
C      1  0.4391200000000  0.4968100000000  0.5887360000000 1.0
C      1  0.4608760000000  0.5201960000000  0.5536760000000 1.0
C      1  0.4131670000000  0.4720770000000  0.4964940000000 1.0
C      1  0.4753900000000  0.5336270000000  0.4054910000000 1.0
C      1  0.5704810000000  0.4438580000000  0.5370440000000 1.0
C      1  0.4912490000000  0.4387410000000  0.5004800000000 1.0
C      1  0.5194370000000  0.6002140000000  0.5179150000000 1.0
C      1  0.4139640000000  0.4800700000000  0.5752170000000 1.0
C      1  0.4805920000000  0.4655450000000  0.4038870000000 1.0
C      1  0.4599720000000  0.5685090000000  0.5544730000000 1.0
C      1  0.5262780000000  0.4754560000000  0.4870100000000 1.0
C      1  0.5693800000000  0.5207270000000  0.4235800000000 1.0
C      1  0.5342410000000  0.4706520000000  0.4393570000000 1.0
C      1  0.4482190000000  0.4194220000000  0.4800270000000 1.0
C      1  0.4818450000000  0.5331770000000  0.5748280000000 1.0
C      1  0.5291020000000  0.5459590000000  0.4309820000000 1.0
C      1  0.4638720000000  0.5042760000000  0.5992240000000 1.0
C      1  0.5625070000000  0.5483920000000  0.5241230000000 1.0
C      1  0.5167780000000  0.5383780000000  0.4589220000000 1.0
C      1  0.4917160000000  0.4928270000000  0.4537840000000 1.0
C      1  0.4350090000000  0.4605130000000  0.4553160000000 1.0
C      1  0.5442650000000  0.4963290000000  0.4792920000000 1.0
C      1  0.5148390000000  0.4630200000000  0.4646300000000 1.0
C      1  0.4283610000000  0.4506010000000  0.5095340000000 1.0
C      1  0.5219770000000  0.4016450000000  0.4762640000000 1.0
C      1  0.5197280000000  0.4186100000000  0.5502700000000 1.0
C      1  0.5538830000000  0.4559660000000  0.5573560000000 1.0
C      1  0.5151280000000  0.4977700000000  0.5946940000000 1.0
C      1  0.4834180000000  0.4494100000000  0.4261830000000 1.0
C      1  0.4184880000000  0.5098090000000  0.4606570000000 1.0
C      1  0.5566170000000  0.5083500000000  0.5029690000000 1.0
C      1  0.5454330000000  0.5337460000000  0.5041650000000 1.0
C      1  0.4924410000000  0.4138210000000  0.5148000000000 1.0
C      1  0.5320090000000  0.5871930000000  0.5380780000000 1.0
C      1  0.4165990000000  0.4794590000000  0.4679490000000 1.0
C      1  0.5511300000000  0.5271820000000  0.5677910000000 1.0
C      1  0.5606270000000  0.4204350000000  0.5229440000000 1.0
C      1  0.5604580000000  0.4595490000000  0.4460080000000 1.0
C      1  0.4243780000000  0.5421150000000  0.5302630000000 1.0
C      1  0.4699860000000  0.5404530000000  0.5088410000000 1.0
C      1  0.5281620000000  0.5884570000000  0.4782210000000 1.0
C      1  0.5005300000000  0.4169760000000  0.4608250000000 1.0
C      1  0.4499220000000  0.4944850000000  0.5619740000000 1.0
C      1  0.4849770000000  0.5054140000000  0.4788720000000 1.0
C      1  0.4903650000000  0.5313720000000  0.4485830000000 1.0
C      1  0.5929860000000  0.4601560000000  0.4945280000000 1.0
C      1  0.4864300000000  0.4893300000000  0.5026280000000 1.0
C      1  0.4289210000000  0.5537400000000  0.4495380000000 1.0
C      1  0.5692970000000  0.4143260000000  0.4953980000000 1.0
C      1  0.4446650000000  0.5541110000000  0.5123260000000 1.0
C      1  0.4997370000000  0.4792310000000  0.5250120000000 1.0
C      1  0.4669930000000  0.4222620000000  0.5574840000000 1.0
C      1  0.4147340000000  0.5288520000000  0.4817280000000 1.0
C      1  0.5842110000000  0.4353460000000  0.4808620000000 1.0
C      1  0.4405150000000  0.4506310000000  0.5359820000000 1.0
C      1  0.4420200000000  0.5453010000000  0.5520780000000 1.0
C      1  0.4170790000000  0.5184360000000  0.5111670000000 1.0
C      1  0.4801530000000  0.5991230000000  0.4851110000000 1.0
C      1  0.5535110000000  0.5789240000000  0.4918430000000 1.0
C      1  0.5209610000000  0.5183570000000  0.5365570000000 1.0
C      1  0.4974840000000  0.5515430000000  0.5062290000000 1.0
C      1  0.5655240000000  0.5239460000000  0.4541630000000 1.0
C      1  0.4611410000000  0.4678800000000  0.5550130000000 1.0
C      1  0.4493480000000  0.5632680000000  0.4301780000000 1.0
C      1  0.5685810000000  0.4818990000000  0.4624570000000 1.0
C      1  0.4456910000000  0.5044090000000  0.5067740000000 1.0
C      1  0.5075480000000  0.5640400000000  0.4761640000000 1.0
C      1  0.4897990000000  0.4691320000000  0.5493490000000 1.0
C      1  0.5892650000000  0.5155240000000  0.5292390000000 1.0
C      1  0.5057530000000  0.4842720000000  0.3993890000000 1.0
C      1  0.4806710000000  0.4630630000000  0.5103420000000 1.0
C      1  0.4656540000000  0.5166540000000  0.5235120000000 1.0
C      1  0.4907550000000  0.5149640000000  0.5963050000000 1.0
C      1  0.5262150000000  0.5377810000000  0.5566220000000 1.0
C      1  0.5093730000000  0.4615300000000  0.5677470000000 1.0
C      1  0.4089580000000  0.4836270000000  0.5472440000000 1.0
C      1  0.5166310000000  0.4006310000000  0.5052670000000 1.0
C      1  0.5344530000000  0.4087080000000  0.5274110000000 1.0
C      1  0.5376840000000  0.5916970000000  0.4470300000000 1.0
C      1  0.4594430000000  0.5910040000000  0.5041290000000 1.0
C      1  0.4845660000000  0.5078530000000  0.4345920000000 1.0
C      1  0.5400970000000  0.5195120000000  0.4197140000000 1.0
C      1  0.5039070000000  0.4543480000000  0.4057980000000 1.0
C      1  0.4485780000000  0.5369420000000  0.4169220000000 1.0
C      1  0.5481860000000  0.5654160000000  0.4445320000000 1.0
C      1  0.4827580000000  0.5056720000000  0.4057210000000 1.0
C      1  0.5389210000000  0.5212410000000  0.4663040000000 1.0
C      1  0.4702320000000  0.5837450000000  0.5310600000000 1.0
C      1  0.5260810000000  0.4748160000000  0.5153680000000 1.0
C      1  0.4354270000000  0.5764080000000  0.4957150000000 1.0
C      1  0.4297060000000  0.5267310000000  0.4388910000000 1.0
C      1  0.5913690000000  0.4885910000000  0.5304100000000 1.0
C      1  0.4914600000000  0.4141520000000  0.5443230000000 1.0
C      1  0.4813330000000  0.4557540000000  0.5956600000000 1.0
C      1  0.5091640000000  0.4399220000000  0.4782470000000 1.0
C      1  0.4573790000000  0.4741370000000  0.4642070000000 1.0
C      1  0.4846610000000  0.4664470000000  0.4521100000000 1.0
C      1  0.5075770000000  0.6064470000000  0.4937890000000 1.0
C      1  0.4766120000000  0.5722250000000  0.4368850000000 1.0
C      1  0.5058680000000  0.4698100000000  0.5966760000000 1.0
C      1  0.5409300000000  0.5019240000000  0.5804250000000 1.0
C      1  0.4478170000000  0.4306080000000  0.4554330000000 1.0
C      1  0.5808870000000  0.5370190000000  0.4752740000000 1.0
C      1  0.5845080000000  0.5138690000000  0.4957940000000 1.0
C      1  0.5282610000000  0.4913980000000  0.4200200000000 1.0
C      1  0.4232650000000  0.5563790000000  0.4776370000000 1.0
C      1  0.4947880000000  0.5690680000000  0.5302430000000 1.0
C      1  0.5891530000000  0.4859050000000  0.4817510000000 1.0
C      1  0.4466210000000  0.4233990000000  0.5364680000000 1.0
C      1  0.4739200000000  0.4192720000000  0.4498090000000 1.0
C      1  0.5653410000000  0.4326890000000  0.4582180000000 1.0
END
