TITL C-884135-4325-450 -0.981306834562217 125000 -3543.01358970811 0 0 25 (C1) n - 1
REM
REM in /home/nfs/bkarasulu/CARBON/AIRSS/Generating-Clusters/ReaxFF-fromJPCA2015/Units_Real/with-SteepDescent/Only-C1/SD-CG/Try1-3A/FIRE-CG
REM
REM
REM
REM
REM
REM ./C.cell (11c1c37f851c82e70ff6c80c92926a4b)
REM
REM compiler GCC version 9.2.1 20190827 (Red Hat 9.2.1-1)
REM options -cpp -mtune=generic -march=x86-64 -g -O0 -fpre-include=/usr/include/finclude/math-vector-fortran.h
REM seed 1802129458 476754861 -1303914667 999269319 1636169149 1717165503 -499844324 -1720404695 716924369 1920321111 21178100 -857953736 -917092185 666817337 -739680391 -760977828 -319020498 -486371591 256070913 1339138206 -653873244 223477035 -1556432776 -341022802 1055614648 1626523004 -532015504 80440254 1510993335 -395791012 -157263474 -611911899 796010411
REM
CELL 1.54180   50.00000   50.00000   50.00000   90.00000   90.00000   90.00000
LATT -1
SFAC C  
C      1  0.4546030000000  0.4771650000000  0.5105120000000 1.0
C      1  0.4544380000000  0.5278460000000  0.4847100000000 1.0
C      1  0.5036140000000  0.4680090000000  0.5412560000000 1.0
C      1  0.5385630000000  0.5171310000000  0.4970990000000 1.0
C      1  0.4703480000000  0.5143000000000  0.4634120000000 1.0
C      1  0.4955820000000  0.5542770000000  0.5642220000000 1.0
C      1  0.4943430000000  0.5377620000000  0.5118260000000 1.0
C      1  0.4955740000000  0.4544620000000  0.4902770000000 1.0
C      1  0.5299850000000  0.4709810000000  0.5269090000000 1.0
C      1  0.5111770000000  0.5310190000000  0.4904540000000 1.0
C      1  0.5134910000000  0.4639480000000  0.4717570000000 1.0
C      1  0.4680460000000  0.4666420000000  0.4860160000000 1.0
C      1  0.5047410000000  0.5401330000000  0.5423170000000 1.0
C      1  0.4646850000000  0.4997000000000  0.5270080000000 1.0
C      1  0.5381330000000  0.4932090000000  0.5120770000000 1.0
C      1  0.5508140000000  0.5035150000000  0.4751810000000 1.0
C      1  0.5071630000000  0.4529760000000  0.5173970000000 1.0
C      1  0.4651950000000  0.4850510000000  0.4626200000000 1.0
C      1  0.5186450000000  0.5138430000000  0.4438140000000 1.0
C      1  0.5446300000000  0.4978150000000  0.4480370000000 1.0
C      1  0.4680550000000  0.5256710000000  0.5115200000000 1.0
C      1  0.4999680000000  0.5239220000000  0.4640370000000 1.0
C      1  0.4845830000000  0.4903300000000  0.5478220000000 1.0
C      1  0.4937890000000  0.5159330000000  0.5538830000000 1.0
C      1  0.5298380000000  0.4743600000000  0.4558370000000 1.0
END
