TITL C-884138-6203-250 -23.9941741023532 125000 -20023.8416540152 0 0 133 (C1) n - 1
REM
REM in /home/nfs/bkarasulu/CARBON/AIRSS/Generating-Clusters/ReaxFF-fromJPCA2015/Units_Real/with-SteepDescent/Only-C1/SD-CG/Try1-3A/FIRE-CG
REM
REM
REM
REM
REM
REM ./C.cell (11c1c37f851c82e70ff6c80c92926a4b)
REM
REM compiler GCC version 9.2.1 20190827 (Red Hat 9.2.1-1)
REM options -cpp -mtune=generic -march=x86-64 -g -O0 -fpre-include=/usr/include/finclude/math-vector-fortran.h
REM seed 1720284018 426199967 15091022 -516088458 1968105011 -1981207649 1631035826 481289193 -866743839 208473015 264898646 -286234901 -92828 -941728602 -763257597 2106579909 125704229 -1659081098 1680809658 384632116 -133382974 1140385452 -2013149069 992404449 -1290135272 -2048965640 201970397 1862076351 -925215694 -106495478 -1350283181 -1897146911 65951910
REM
CELL 1.54180   50.00000   50.00000   50.00000   90.00000   90.00000   90.00000
LATT -1
SFAC C  
C      1  0.4608510000000  0.4262380000000  0.4354380000000 1.0
C      1  0.4770950000000  0.4541790000000  0.5704680000000 1.0
C      1  0.4820690000000  0.4993290000000  0.6018720000000 1.0
C      1  0.5728650000000  0.4662720000000  0.5495500000000 1.0
C      1  0.5341440000000  0.5875680000000  0.5453760000000 1.0
C      1  0.4784600000000  0.4637880000000  0.5103760000000 1.0
C      1  0.5019400000000  0.4787480000000  0.5987810000000 1.0
C      1  0.5245430000000  0.4663440000000  0.5272820000000 1.0
C      1  0.5426570000000  0.4790200000000  0.4883430000000 1.0
C      1  0.4074170000000  0.4889590000000  0.4964610000000 1.0
C      1  0.5210570000000  0.5418630000000  0.4825190000000 1.0
C      1  0.5659250000000  0.4244140000000  0.5171220000000 1.0
C      1  0.4536040000000  0.4736740000000  0.4709430000000 1.0
C      1  0.5343660000000  0.4541540000000  0.5028440000000 1.0
C      1  0.4988950000000  0.4652690000000  0.4463250000000 1.0
C      1  0.5299540000000  0.5567040000000  0.5101150000000 1.0
C      1  0.5541050000000  0.4877340000000  0.4406980000000 1.0
C      1  0.4737050000000  0.4065860000000  0.4794180000000 1.0
C      1  0.4870770000000  0.4389140000000  0.4298080000000 1.0
C      1  0.4827510000000  0.5683920000000  0.4346780000000 1.0
C      1  0.4111820000000  0.5254650000000  0.5308090000000 1.0
C      1  0.5978250000000  0.5133830000000  0.4942390000000 1.0
C      1  0.5382270000000  0.4887420000000  0.5390730000000 1.0
C      1  0.4352230000000  0.4956990000000  0.4341120000000 1.0
C      1  0.5143320000000  0.5799120000000  0.5658270000000 1.0
C      1  0.5918410000000  0.4622370000000  0.5028810000000 1.0
C      1  0.4884350000000  0.4819460000000  0.5536510000000 1.0
C      1  0.5378260000000  0.5295440000000  0.4177960000000 1.0
C      1  0.5579370000000  0.4998440000000  0.5006410000000 1.0
C      1  0.5331800000000  0.4214040000000  0.4438200000000 1.0
C      1  0.4589130000000  0.5549540000000  0.4382910000000 1.0
C      1  0.4978990000000  0.6000570000000  0.5152640000000 1.0
C      1  0.5874140000000  0.5102530000000  0.4659740000000 1.0
C      1  0.4304800000000  0.4669450000000  0.4367020000000 1.0
C      1  0.4325530000000  0.4533050000000  0.5352770000000 1.0
C      1  0.4292280000000  0.4553370000000  0.4660190000000 1.0
C      1  0.4205890000000  0.4973420000000  0.5261500000000 1.0
C      1  0.5329550000000  0.5698570000000  0.4297560000000 1.0
C      1  0.5273160000000  0.4175070000000  0.5547460000000 1.0
C      1  0.4497350000000  0.5378420000000  0.5111870000000 1.0
C      1  0.5445060000000  0.4165500000000  0.5324700000000 1.0
C      1  0.4920460000000  0.5277630000000  0.5421730000000 1.0
C      1  0.4600130000000  0.4516610000000  0.5283890000000 1.0
C      1  0.4542430000000  0.4138830000000  0.4590920000000 1.0
C      1  0.5083970000000  0.5656810000000  0.4170380000000 1.0
C      1  0.5424090000000  0.5402660000000  0.5295530000000 1.0
C      1  0.4686640000000  0.5082180000000  0.5454000000000 1.0
C      1  0.5448950000000  0.5722800000000  0.4556770000000 1.0
C      1  0.5056090000000  0.4109200000000  0.5382030000000 1.0
C      1  0.5907780000000  0.5359330000000  0.5117560000000 1.0
C      1  0.4895010000000  0.5779810000000  0.5530060000000 1.0
C      1  0.5017820000000  0.4657440000000  0.4760300000000 1.0
C      1  0.5179550000000  0.5173110000000  0.4647190000000 1.0
C      1  0.4730970000000  0.4807270000000  0.4507900000000 1.0
C      1  0.4254660000000  0.5159170000000  0.4533210000000 1.0
C      1  0.4942940000000  0.4950620000000  0.3824100000000 1.0
C      1  0.4776920000000  0.5522190000000  0.5073700000000 1.0
C      1  0.5148010000000  0.4392660000000  0.4859300000000 1.0
C      1  0.4737740000000  0.5742570000000  0.4854230000000 1.0
C      1  0.4850190000000  0.6013700000000  0.5401700000000 1.0
C      1  0.4464590000000  0.4478080000000  0.4213620000000 1.0
C      1  0.4714490000000  0.4813530000000  0.3981730000000 1.0
C      1  0.4230230000000  0.4776440000000  0.5487030000000 1.0
C      1  0.4820090000000  0.5178100000000  0.4208570000000 1.0
C      1  0.4673460000000  0.4354120000000  0.5482280000000 1.0
C      1  0.5791900000000  0.4500670000000  0.5265590000000 1.0
C      1  0.4968760000000  0.5210680000000  0.3956810000000 1.0
C      1  0.5371540000000  0.4868600000000  0.5668850000000 1.0
C      1  0.4098720000000  0.5110140000000  0.4780840000000 1.0
C      1  0.5875270000000  0.5199720000000  0.5350610000000 1.0
C      1  0.4975550000000  0.4711750000000  0.5296320000000 1.0
C      1  0.4455590000000  0.5808410000000  0.4867580000000 1.0
C      1  0.4974390000000  0.5369480000000  0.5910900000000 1.0
C      1  0.5270230000000  0.5368530000000  0.5938210000000 1.0
C      1  0.5777390000000  0.4838930000000  0.4572490000000 1.0
C      1  0.5650310000000  0.4202420000000  0.4865070000000 1.0
C      1  0.4288710000000  0.5605940000000  0.4739010000000 1.0
C      1  0.5575790000000  0.5483070000000  0.5525720000000 1.0
C      1  0.4783780000000  0.5090840000000  0.4854540000000 1.0
C      1  0.5191870000000  0.5420890000000  0.4017170000000 1.0
C      1  0.4457090000000  0.5829610000000  0.5163980000000 1.0
C      1  0.4913130000000  0.5764610000000  0.4622980000000 1.0
C      1  0.4367970000000  0.4887840000000  0.5717670000000 1.0
C      1  0.5509450000000  0.4609290000000  0.5685940000000 1.0
C      1  0.4627070000000  0.4103000000000  0.5058930000000 1.0
C      1  0.4428550000000  0.5586020000000  0.5335410000000 1.0
C      1  0.5841840000000  0.4898450000000  0.5062910000000 1.0
C      1  0.4862510000000  0.5553660000000  0.5362670000000 1.0
C      1  0.4767660000000  0.5077080000000  0.4588300000000 1.0
C      1  0.5366990000000  0.5119420000000  0.5226310000000 1.0
C      1  0.4707160000000  0.5224820000000  0.5898660000000 1.0
C      1  0.4107470000000  0.4614710000000  0.4909490000000 1.0
C      1  0.4508800000000  0.5071100000000  0.5204320000000 1.0
C      1  0.4946700000000  0.5285350000000  0.4984070000000 1.0
C      1  0.5304850000000  0.4707400000000  0.4351350000000 1.0
C      1  0.5877680000000  0.4603620000000  0.4735590000000 1.0
C      1  0.4630000000000  0.4872100000000  0.4969400000000 1.0
C      1  0.4352530000000  0.5442480000000  0.4497720000000 1.0
C      1  0.5076310000000  0.5172980000000  0.5208420000000 1.0
C      1  0.5751670000000  0.5593470000000  0.4977940000000 1.0
C      1  0.4705500000000  0.4534720000000  0.4061130000000 1.0
C      1  0.5530420000000  0.5342360000000  0.5787970000000 1.0
C      1  0.4686960000000  0.6012620000000  0.5188460000000 1.0
C      1  0.5228550000000  0.5844300000000  0.5179610000000 1.0
C      1  0.4783200000000  0.4131930000000  0.5319550000000 1.0
C      1  0.5188770000000  0.5688620000000  0.4691580000000 1.0
C      1  0.5411500000000  0.4456490000000  0.4258420000000 1.0
C      1  0.5191660000000  0.4902470000000  0.4755820000000 1.0
C      1  0.4300660000000  0.5378240000000  0.5490040000000 1.0
C      1  0.5562330000000  0.5171940000000  0.4337340000000 1.0
C      1  0.5862800000000  0.4308770000000  0.4680470000000 1.0
C      1  0.5671030000000  0.5566930000000  0.4690560000000 1.0
C      1  0.4273930000000  0.5445410000000  0.4952590000000 1.0
C      1  0.4340380000000  0.4260950000000  0.4717420000000 1.0
C      1  0.5640990000000  0.5769680000000  0.5174830000000 1.0
C      1  0.4195480000000  0.4426750000000  0.5109350000000 1.0
C      1  0.4527260000000  0.4681790000000  0.5839130000000 1.0
C      1  0.5402540000000  0.4257030000000  0.4721710000000 1.0
C      1  0.5824680000000  0.4967870000000  0.5521680000000 1.0
C      1  0.4584050000000  0.5008570000000  0.4161780000000 1.0
C      1  0.5037920000000  0.4515690000000  0.5863540000000 1.0
C      1  0.4360920000000  0.4208770000000  0.4997610000000 1.0
C      1  0.5134120000000  0.5618840000000  0.5886360000000 1.0
C      1  0.5615160000000  0.5770530000000  0.5460640000000 1.0
C      1  0.4961030000000  0.5220130000000  0.4461970000000 1.0
C      1  0.4063830000000  0.5296110000000  0.5016060000000 1.0
C      1  0.5094220000000  0.4910450000000  0.5729100000000 1.0
C      1  0.4491330000000  0.5183560000000  0.5675080000000 1.0
C      1  0.5047620000000  0.4171220000000  0.4423110000000 1.0
C      1  0.5729430000000  0.5323750000000  0.4549300000000 1.0
C      1  0.5694400000000  0.5128170000000  0.5712070000000 1.0
C      1  0.5002920000000  0.4133160000000  0.4705610000000 1.0
C      1  0.5281220000000  0.4427530000000  0.5739590000000 1.0
END
