TITL C-883731-9874-380 8.65683501073876 125000 -25450.8585278007 0 0 168 (C1) n - 1
REM
REM in /home/nfs/bkarasulu/CARBON/AIRSS/Generating-Clusters/ReaxFF-fromJPCA2015/Units_Real/with-SteepDescent/Only-C1/SD-CG/Try1-3A/FIRE-CG
REM
REM
REM
REM
REM
REM ./C.cell (11c1c37f851c82e70ff6c80c92926a4b)
REM
REM compiler GCC version 9.2.1 20190827 (Red Hat 9.2.1-1)
REM options -cpp -mtune=generic -march=x86-64 -g -O0 -fpre-include=/usr/include/finclude/math-vector-fortran.h
REM seed -767549012 -1520063892 225282418 1387080988 -1697173438 1725971027 1764948288 -2004307861 -1224098841 -447141307 -2077600326 -2068542845 1439511170 329454730 203741905 1019481618 476620903 -1588050259 543171009 2074069845 -407738722 -147206117 707355265 402644603 1059566450 1654346216 1911101788 53814034 -1545432205 -1872270401 -1735129667 -1678410703 702151136
REM
CELL 1.54180   50.00000   50.00000   50.00000   90.00000   90.00000   90.00000
LATT -1
SFAC C  
C      1  0.5469410000000  0.4934850000000  0.5116930000000 1.0
C      1  0.5546430000000  0.5391220000000  0.5838200000000 1.0
C      1  0.5413590000000  0.5319520000000  0.4210790000000 1.0
C      1  0.5101450000000  0.6189660000000  0.5680910000000 1.0
C      1  0.4915820000000  0.5349970000000  0.4150190000000 1.0
C      1  0.5526240000000  0.4092400000000  0.4724350000000 1.0
C      1  0.4648740000000  0.5616620000000  0.5865010000000 1.0
C      1  0.5128830000000  0.4721690000000  0.5438670000000 1.0
C      1  0.5210340000000  0.4464960000000  0.5424420000000 1.0
C      1  0.4979210000000  0.5968550000000  0.4616450000000 1.0
C      1  0.5770140000000  0.5772860000000  0.4689770000000 1.0
C      1  0.4899370000000  0.4578190000000  0.4742300000000 1.0
C      1  0.5143720000000  0.5707910000000  0.5854450000000 1.0
C      1  0.5427440000000  0.4725170000000  0.4878580000000 1.0
C      1  0.4078250000000  0.5462880000000  0.4924780000000 1.0
C      1  0.4943900000000  0.5312120000000  0.5143840000000 1.0
C      1  0.4462820000000  0.5474850000000  0.5286300000000 1.0
C      1  0.4714660000000  0.4447440000000  0.5833930000000 1.0
C      1  0.3936020000000  0.5087650000000  0.5473250000000 1.0
C      1  0.4284280000000  0.5389560000000  0.5910280000000 1.0
C      1  0.5224700000000  0.4953440000000  0.6089750000000 1.0
C      1  0.4316580000000  0.4515280000000  0.5164180000000 1.0
C      1  0.5012850000000  0.4977980000000  0.4827270000000 1.0
C      1  0.5360440000000  0.5438150000000  0.5383790000000 1.0
C      1  0.5100280000000  0.5009420000000  0.3988000000000 1.0
C      1  0.4871670000000  0.4168210000000  0.4405180000000 1.0
C      1  0.5263380000000  0.5972510000000  0.5826530000000 1.0
C      1  0.5945700000000  0.5554910000000  0.4608180000000 1.0
C      1  0.4631780000000  0.4032540000000  0.4896450000000 1.0
C      1  0.4632830000000  0.4760630000000  0.5385520000000 1.0
C      1  0.5822990000000  0.5463920000000  0.4363800000000 1.0
C      1  0.5576990000000  0.4842850000000  0.4043510000000 1.0
C      1  0.5828170000000  0.5559450000000  0.5410560000000 1.0
C      1  0.4819740000000  0.5227300000000  0.4438300000000 1.0
C      1  0.5162080000000  0.4233340000000  0.5882010000000 1.0
C      1  0.5440480000000  0.4064680000000  0.5253680000000 1.0
C      1  0.4847270000000  0.5561970000000  0.4079250000000 1.0
C      1  0.6087240000000  0.5299460000000  0.5053850000000 1.0
C      1  0.5189780000000  0.4400870000000  0.4991230000000 1.0
C      1  0.5640860000000  0.5099630000000  0.4160220000000 1.0
C      1  0.5503440000000  0.5114480000000  0.4679760000000 1.0
C      1  0.4883900000000  0.4682260000000  0.5831760000000 1.0
C      1  0.4860940000000  0.5212960000000  0.5875300000000 1.0
C      1  0.5619710000000  0.4846870000000  0.4688830000000 1.0
C      1  0.4803990000000  0.4333450000000  0.5227180000000 1.0
C      1  0.3899550000000  0.4768150000000  0.5011900000000 1.0
C      1  0.4877730000000  0.4634150000000  0.3872580000000 1.0
C      1  0.6050770000000  0.5310360000000  0.4747710000000 1.0
C      1  0.5769100000000  0.4880920000000  0.5177630000000 1.0
C      1  0.4501450000000  0.4363870000000  0.4178660000000 1.0
C      1  0.5189570000000  0.5666400000000  0.4986700000000 1.0
C      1  0.4533450000000  0.5121980000000  0.4935810000000 1.0
C      1  0.4202290000000  0.5502710000000  0.4660580000000 1.0
C      1  0.5266360000000  0.5919490000000  0.4599250000000 1.0
C      1  0.4326270000000  0.5464790000000  0.4207410000000 1.0
C      1  0.5975800000000  0.5151660000000  0.5530490000000 1.0
C      1  0.4698860000000  0.5341670000000  0.4993850000000 1.0
C      1  0.4195200000000  0.5553980000000  0.5183210000000 1.0
C      1  0.4753180000000  0.4437400000000  0.4047230000000 1.0
C      1  0.4679270000000  0.5377090000000  0.6032760000000 1.0
C      1  0.5511670000000  0.5777310000000  0.4521630000000 1.0
C      1  0.5050560000000  0.4043640000000  0.4585060000000 1.0
C      1  0.5320330000000  0.4813750000000  0.3906030000000 1.0
C      1  0.4910410000000  0.4246240000000  0.5737410000000 1.0
C      1  0.4843160000000  0.6021980000000  0.5120610000000 1.0
C      1  0.4656070000000  0.4996780000000  0.4507320000000 1.0
C      1  0.5101630000000  0.5492330000000  0.4778190000000 1.0
C      1  0.5938490000000  0.4697730000000  0.5031540000000 1.0
C      1  0.4582260000000  0.4190560000000  0.4419970000000 1.0
C      1  0.4534500000000  0.4388480000000  0.5298560000000 1.0
C      1  0.5017370000000  0.5795900000000  0.5190980000000 1.0
C      1  0.4402590000000  0.4673350000000  0.4940640000000 1.0
C      1  0.5939530000000  0.4456200000000  0.5190210000000 1.0
C      1  0.4979010000000  0.4417820000000  0.4256300000000 1.0
C      1  0.5478650000000  0.4371510000000  0.5323180000000 1.0
C      1  0.4431110000000  0.5954730000000  0.5453460000000 1.0
C      1  0.4234500000000  0.5310560000000  0.4442280000000 1.0
C      1  0.5054560000000  0.5356340000000  0.5413640000000 1.0
C      1  0.4815920000000  0.4909710000000  0.3913070000000 1.0
C      1  0.4916270000000  0.3964820000000  0.4835900000000 1.0
C      1  0.4009470000000  0.4986890000000  0.4877990000000 1.0
C      1  0.5928530000000  0.4226180000000  0.4993370000000 1.0
C      1  0.5861300000000  0.5163740000000  0.4342120000000 1.0
C      1  0.4428000000000  0.4975020000000  0.5443210000000 1.0
C      1  0.5427480000000  0.5507930000000  0.5108010000000 1.0
C      1  0.5130170000000  0.4742230000000  0.4716940000000 1.0
C      1  0.5559710000000  0.5569770000000  0.4321690000000 1.0
C      1  0.4365040000000  0.4748560000000  0.5893570000000 1.0
C      1  0.5325060000000  0.5144990000000  0.4449470000000 1.0
C      1  0.5741590000000  0.4602360000000  0.4091640000000 1.0
C      1  0.4305370000000  0.4973490000000  0.4818740000000 1.0
C      1  0.5128100000000  0.5223480000000  0.6006550000000 1.0
C      1  0.5134930000000  0.5210510000000  0.4931430000000 1.0
C      1  0.4647110000000  0.6106060000000  0.5346220000000 1.0
C      1  0.4414080000000  0.5234350000000  0.6101710000000 1.0
C      1  0.3795410000000  0.5227180000000  0.5255890000000 1.0
C      1  0.5463730000000  0.5004230000000  0.5599480000000 1.0
C      1  0.5213010000000  0.4348940000000  0.4077220000000 1.0
C      1  0.5910150000000  0.4758420000000  0.4719860000000 1.0
C      1  0.4819270000000  0.5164490000000  0.5584020000000 1.0
C      1  0.4118380000000  0.4594280000000  0.5370160000000 1.0
C      1  0.4342850000000  0.4878140000000  0.4201940000000 1.0
C      1  0.5176210000000  0.4568000000000  0.3886360000000 1.0
C      1  0.3839630000000  0.4561720000000  0.5181600000000 1.0
C      1  0.5103830000000  0.4694050000000  0.4414680000000 1.0
C      1  0.4393010000000  0.5719310000000  0.4603350000000 1.0
C      1  0.4553980000000  0.5790580000000  0.4838320000000 1.0
C      1  0.4682930000000  0.4696830000000  0.4601270000000 1.0
C      1  0.5869400000000  0.4959140000000  0.5694410000000 1.0
C      1  0.5002220000000  0.4250240000000  0.5425750000000 1.0
C      1  0.5782270000000  0.4647400000000  0.5653230000000 1.0
C      1  0.4243510000000  0.4364440000000  0.5572870000000 1.0
C      1  0.4458380000000  0.5706000000000  0.4321710000000 1.0
C      1  0.5411740000000  0.4239120000000  0.4253330000000 1.0
C      1  0.4234560000000  0.5799480000000  0.5569950000000 1.0
C      1  0.5291620000000  0.5463020000000  0.5945610000000 1.0
C      1  0.4919110000000  0.4373640000000  0.4961590000000 1.0
C      1  0.4499760000000  0.4216290000000  0.4696620000000 1.0
C      1  0.3888800000000  0.5385160000000  0.5482460000000 1.0
C      1  0.4716590000000  0.5755770000000  0.4219590000000 1.0
C      1  0.5874540000000  0.4493230000000  0.4586610000000 1.0
C      1  0.5325010000000  0.4915760000000  0.5383210000000 1.0
C      1  0.5165090000000  0.3999890000000  0.5302340000000 1.0
C      1  0.5789790000000  0.4255680000000  0.4735470000000 1.0
C      1  0.4151660000000  0.4894540000000  0.5440890000000 1.0
C      1  0.4907450000000  0.5478780000000  0.4571640000000 1.0
C      1  0.3901820000000  0.5240250000000  0.4980640000000 1.0
C      1  0.4354480000000  0.5036170000000  0.4487150000000 1.0
C      1  0.4040880000000  0.5625230000000  0.5416740000000 1.0
C      1  0.5343450000000  0.4472680000000  0.5938430000000 1.0
C      1  0.5128570000000  0.3899330000000  0.5029060000000 1.0
C      1  0.4879450000000  0.4826090000000  0.5556720000000 1.0
C      1  0.5615110000000  0.5097780000000  0.5806120000000 1.0
C      1  0.5337670000000  0.4111530000000  0.4512890000000 1.0
C      1  0.5673860000000  0.4337740000000  0.4167590000000 1.0
C      1  0.4772390000000  0.5983410000000  0.4840200000000 1.0
C      1  0.4488850000000  0.4019140000000  0.5160060000000 1.0
C      1  0.4870760000000  0.6163250000000  0.5513030000000 1.0
C      1  0.4886330000000  0.5748590000000  0.4442400000000 1.0
C      1  0.4761760000000  0.4947330000000  0.4945400000000 1.0
C      1  0.5567830000000  0.4549980000000  0.5792350000000 1.0
C      1  0.4451510000000  0.5254530000000  0.4067740000000 1.0
C      1  0.4557770000000  0.5236970000000  0.5454610000000 1.0
C      1  0.4337140000000  0.4991120000000  0.5981440000000 1.0
C      1  0.4410160000000  0.4144130000000  0.5412660000000 1.0
C      1  0.5757670000000  0.4470840000000  0.5426500000000 1.0
C      1  0.5884180000000  0.5115020000000  0.5072410000000 1.0
C      1  0.4357490000000  0.5632210000000  0.5801120000000 1.0
C      1  0.6047980000000  0.5368320000000  0.5359030000000 1.0
C      1  0.5573490000000  0.5500050000000  0.5563060000000 1.0
C      1  0.5868930000000  0.4478880000000  0.4308550000000 1.0
C      1  0.4545260000000  0.5007030000000  0.3992780000000 1.0
C      1  0.5440450000000  0.4450490000000  0.5008570000000 1.0
C      1  0.5419650000000  0.3972410000000  0.4972270000000 1.0
C      1  0.5148120000000  0.5300440000000  0.4032470000000 1.0
C      1  0.4886500000000  0.5696660000000  0.5704080000000 1.0
C      1  0.5686240000000  0.5678730000000  0.5186440000000 1.0
C      1  0.5792090000000  0.5859950000000  0.4974380000000 1.0
C      1  0.5176070000000  0.4934510000000  0.4310250000000 1.0
C      1  0.4651780000000  0.4734720000000  0.5094670000000 1.0
C      1  0.4587200000000  0.5579700000000  0.5045750000000 1.0
C      1  0.4477640000000  0.4508880000000  0.4689580000000 1.0
C      1  0.4926570000000  0.5629400000000  0.5418580000000 1.0
C      1  0.5132480000000  0.4690900000000  0.5990060000000 1.0
C      1  0.5964790000000  0.5071480000000  0.4599000000000 1.0
C      1  0.4403460000000  0.4618270000000  0.4199310000000 1.0
C      1  0.5434400000000  0.5190450000000  0.4960460000000 1.0
C      1  0.4421990000000  0.4497130000000  0.5802140000000 1.0
END
