TITL C-883734-4173-11 -305211.490188144 125000 -6174.23728599927 0 0 42 (C1) n - 1
REM
REM in /home/nfs/bkarasulu/CARBON/AIRSS/Generating-Clusters/ReaxFF-fromJPCA2015/Units_Real/with-SteepDescent/Only-C1/SD-CG/Try1-3A/FIRE-CG
REM
REM
REM
REM
REM
REM ./C.cell (11c1c37f851c82e70ff6c80c92926a4b)
REM
REM compiler GCC version 9.2.1 20190827 (Red Hat 9.2.1-1)
REM options -cpp -mtune=generic -march=x86-64 -g -O0 -fpre-include=/usr/include/finclude/math-vector-fortran.h
REM seed -620357433 966013782 -265798712 415023215 1833461415 -1506290842 1047840216 150885184 1685633962 882686627 1384850348 -1292579729 -1284205193 -1288705097 487992290 1008534983 224725111 1575903897 1919667469 400087467 1442859571 -1385350030 -1826023127 -404511557 1100462136 -206055162 -1939695257 -1660113876 -472632160 -571314704 -501074300 -1654666300 -959638452
REM
CELL 1.54180   50.00000   50.00000   50.00000   90.00000   90.00000   90.00000
LATT -1
SFAC C  
C      1  0.4874120000000  0.4775860000000  0.4414430000000 1.0
C      1  0.5099140000000  0.4478590000000  0.5539190000000 1.0
C      1  0.5377340000000  0.5620660000000  0.5078380000000 1.0
C      1  0.4544890000000  0.5318260000000  0.4637750000000 1.0
C      1  0.4650790000000  0.4684640000000  0.4330160000000 1.0
C      1  0.5323660000000  0.4832950000000  0.4539710000000 1.0
C      1  0.4693690000000  0.5613560000000  0.5036080000000 1.0
C      1  0.5119280000000  0.4625860000000  0.4501330000000 1.0
C      1  0.4387530000000  0.5061160000000  0.4923610000000 1.0
C      1  0.5272080000000  0.5362360000000  0.4661790000000 1.0
C      1  0.4500290000000  0.4915270000000  0.5388060000000 1.0
C      1  0.5652310000000  0.4764910000000  0.5164170000000 1.0
C      1  0.5517860000000  0.5151560000000  0.5066740000000 1.0
C      1  0.5519680000000  0.4704860000000  0.5370270000000 1.0
C      1  0.5203660000000  0.4973080000000  0.5484820000000 1.0
C      1  0.4755520000000  0.4414750000000  0.5139920000000 1.0
C      1  0.4952020000000  0.4764810000000  0.4957240000000 1.0
C      1  0.5232520000000  0.5111790000000  0.4519740000000 1.0
C      1  0.5110510000000  0.4420740000000  0.4724180000000 1.0
C      1  0.4934660000000  0.5687620000000  0.4883960000000 1.0
C      1  0.5454380000000  0.4749820000000  0.4790320000000 1.0
C      1  0.5094990000000  0.5673240000000  0.5140380000000 1.0
C      1  0.4920350000000  0.5019610000000  0.5545830000000 1.0
C      1  0.4891680000000  0.5441970000000  0.5231100000000 1.0
C      1  0.4939070000000  0.5079210000000  0.4561690000000 1.0
C      1  0.4347240000000  0.5241450000000  0.4758970000000 1.0
C      1  0.4501250000000  0.5206670000000  0.5482560000000 1.0
C      1  0.4936080000000  0.5042050000000  0.4878750000000 1.0
C      1  0.5275770000000  0.5114000000000  0.5235620000000 1.0
C      1  0.5018540000000  0.5510370000000  0.4657420000000 1.0
C      1  0.4676530000000  0.4663490000000  0.5005400000000 1.0
C      1  0.4788430000000  0.5275770000000  0.5480820000000 1.0
C      1  0.4837660000000  0.4523090000000  0.5423870000000 1.0
C      1  0.5449840000000  0.5386950000000  0.4900030000000 1.0
C      1  0.4805350000000  0.5352570000000  0.4536230000000 1.0
C      1  0.5648420000000  0.4920980000000  0.4933880000000 1.0
C      1  0.5040450000000  0.5211820000000  0.5087440000000 1.0
C      1  0.4467030000000  0.4855160000000  0.5100960000000 1.0
C      1  0.4738290000000  0.4793760000000  0.5501360000000 1.0
C      1  0.4917510000000  0.4335040000000  0.4918740000000 1.0
C      1  0.5309890000000  0.4702920000000  0.5550630000000 1.0
C      1  0.5219690000000  0.4616770000000  0.4916440000000 1.0
END
