TITL C-884130-5973-52 -307109.785717384 125000 -6174.24616070088 0 0 42 (C1) n - 1
REM
REM in /home/nfs/bkarasulu/CARBON/AIRSS/Generating-Clusters/ReaxFF-fromJPCA2015/Units_Real/with-SteepDescent/Only-C1/SD-CG/Try1-3A/FIRE-CG
REM
REM
REM
REM
REM
REM ./C.cell (11c1c37f851c82e70ff6c80c92926a4b)
REM
REM compiler GCC version 9.2.1 20190827 (Red Hat 9.2.1-1)
REM options -cpp -mtune=generic -march=x86-64 -g -O0 -fpre-include=/usr/include/finclude/math-vector-fortran.h
REM seed -814166727 1548028592 500734081 -1901166383 -267401732 1162139992 -247569872 -712062786 2079882565 -942104825 -1622699431 -1383102865 94060224 -1946547557 -1730730021 369987120 -1497647029 2104946446 -511252314 -1538112493 535228461 -1994357411 1688736538 -1915363812 675988205 -2019956283 818251477 252461490 2051703547 1305979501 -612174645 -1972950830 -1048866133
REM
CELL 1.54180   50.00000   50.00000   50.00000   90.00000   90.00000   90.00000
LATT -1
SFAC C  
C      1  0.4736670000000  0.5145040000000  0.5570320000000 1.0
C      1  0.5040310000000  0.5542640000000  0.5442360000000 1.0
C      1  0.5032780000000  0.5622840000000  0.4925380000000 1.0
C      1  0.5157880000000  0.5140170000000  0.4372780000000 1.0
C      1  0.4814470000000  0.5392830000000  0.4985110000000 1.0
C      1  0.4583150000000  0.5259580000000  0.4829710000000 1.0
C      1  0.4428430000000  0.4676680000000  0.4798600000000 1.0
C      1  0.5131260000000  0.5132420000000  0.4785050000000 1.0
C      1  0.5499500000000  0.4458080000000  0.4867240000000 1.0
C      1  0.5162060000000  0.5648100000000  0.5190550000000 1.0
C      1  0.4869410000000  0.4523820000000  0.5339380000000 1.0
C      1  0.4762460000000  0.4727340000000  0.5517510000000 1.0
C      1  0.4403090000000  0.4971590000000  0.5226130000000 1.0
C      1  0.5104130000000  0.4635320000000  0.5164880000000 1.0
C      1  0.5524870000000  0.5314560000000  0.5023360000000 1.0
C      1  0.4665380000000  0.5076710000000  0.4618430000000 1.0
C      1  0.5394380000000  0.4830040000000  0.4513720000000 1.0
C      1  0.5162300000000  0.4634030000000  0.4521500000000 1.0
C      1  0.4652540000000  0.4788080000000  0.4647130000000 1.0
C      1  0.5345800000000  0.4422080000000  0.4616480000000 1.0
C      1  0.5225430000000  0.5589740000000  0.4716970000000 1.0
C      1  0.4457700000000  0.4505870000000  0.5017840000000 1.0
C      1  0.4958350000000  0.4951940000000  0.5520120000000 1.0
C      1  0.5007500000000  0.5134080000000  0.5045810000000 1.0
C      1  0.4545790000000  0.4932870000000  0.5480910000000 1.0
C      1  0.5384940000000  0.5317140000000  0.4744360000000 1.0
C      1  0.5412500000000  0.4581940000000  0.5115320000000 1.0
C      1  0.4943960000000  0.5165270000000  0.4549800000000 1.0
C      1  0.4616850000000  0.5431010000000  0.5211860000000 1.0
C      1  0.5410520000000  0.5493620000000  0.5232540000000 1.0
C      1  0.4768740000000  0.5413770000000  0.5459380000000 1.0
C      1  0.5055870000000  0.4940000000000  0.5241800000000 1.0
C      1  0.5308560000000  0.5415350000000  0.5511960000000 1.0
C      1  0.5570830000000  0.5056810000000  0.5107570000000 1.0
C      1  0.4444080000000  0.5225880000000  0.5087540000000 1.0
C      1  0.5417820000000  0.5124930000000  0.4479230000000 1.0
C      1  0.4939680000000  0.4511640000000  0.4929640000000 1.0
C      1  0.4906690000000  0.4636330000000  0.4668580000000 1.0
C      1  0.4324300000000  0.4746080000000  0.5058040000000 1.0
C      1  0.5567890000000  0.4614970000000  0.4623830000000 1.0
C      1  0.5539600000000  0.4828490000000  0.5137320000000 1.0
C      1  0.4721530000000  0.4440310000000  0.5103980000000 1.0
END
