TITL C-884129-4740-366 8.31173084530071 125000 -12164.4867698893 0 0 82 (C1) n - 1
REM
REM in /home/nfs/bkarasulu/CARBON/AIRSS/Generating-Clusters/ReaxFF-fromJPCA2015/Units_Real/with-SteepDescent/Only-C1/SD-CG/Try1-3A/FIRE-CG
REM
REM
REM
REM
REM
REM ./C.cell (11c1c37f851c82e70ff6c80c92926a4b)
REM
REM compiler GCC version 9.2.1 20190827 (Red Hat 9.2.1-1)
REM options -cpp -mtune=generic -march=x86-64 -g -O0 -fpre-include=/usr/include/finclude/math-vector-fortran.h
REM seed 52997169 -1567205120 -1069841162 1911990341 1864282630 -1832140 1871926058 2039854316 37236749 354998802 1383588828 697180551 71135088 -1761928674 1430519578 53202738 107587993 -868246240 -461917383 866794821 -1823878070 -1256982107 -1449780413 -252791485 1105143277 -637403725 1702442518 -296373581 181852591 16243094 510914699 -1706718715 -1086037023
REM
CELL 1.54180   50.00000   50.00000   50.00000   90.00000   90.00000   90.00000
LATT -1
SFAC C  
C      1  0.4501740000000  0.4265120000000  0.4961680000000 1.0
C      1  0.4240340000000  0.4770510000000  0.5436470000000 1.0
C      1  0.4649620000000  0.4434160000000  0.5387460000000 1.0
C      1  0.5350290000000  0.5708120000000  0.5158020000000 1.0
C      1  0.4381590000000  0.4553520000000  0.5316450000000 1.0
C      1  0.5296500000000  0.4275020000000  0.5341400000000 1.0
C      1  0.5072580000000  0.4764500000000  0.4663460000000 1.0
C      1  0.5325450000000  0.5187320000000  0.5250530000000 1.0
C      1  0.4453680000000  0.5633310000000  0.4825030000000 1.0
C      1  0.4870330000000  0.4537780000000  0.5537650000000 1.0
C      1  0.4907960000000  0.5054670000000  0.4351840000000 1.0
C      1  0.4668660000000  0.5396770000000  0.4462690000000 1.0
C      1  0.5326680000000  0.4132210000000  0.5086330000000 1.0
C      1  0.4371890000000  0.5319970000000  0.5461760000000 1.0
C      1  0.5005600000000  0.5681890000000  0.4722510000000 1.0
C      1  0.5815290000000  0.4744600000000  0.5099830000000 1.0
C      1  0.5038160000000  0.5229720000000  0.5252390000000 1.0
C      1  0.4580860000000  0.5199510000000  0.4693730000000 1.0
C      1  0.4118610000000  0.4907130000000  0.4824120000000 1.0
C      1  0.4944280000000  0.5342170000000  0.4372960000000 1.0
C      1  0.5551120000000  0.4276780000000  0.5200520000000 1.0
C      1  0.5350660000000  0.5104570000000  0.4971170000000 1.0
C      1  0.4854830000000  0.5369600000000  0.5645760000000 1.0
C      1  0.5066050000000  0.4759630000000  0.5119940000000 1.0
C      1  0.5162540000000  0.4500250000000  0.5482840000000 1.0
C      1  0.5142110000000  0.5525940000000  0.4495780000000 1.0
C      1  0.4409630000000  0.5056480000000  0.4234320000000 1.0
C      1  0.4897640000000  0.4548130000000  0.4997670000000 1.0
C      1  0.4602550000000  0.5748970000000  0.5277050000000 1.0
C      1  0.4623570000000  0.4981030000000  0.5503170000000 1.0
C      1  0.4588890000000  0.5241260000000  0.5631520000000 1.0
C      1  0.4242480000000  0.5067480000000  0.5305840000000 1.0
C      1  0.5109650000000  0.5232710000000  0.5689310000000 1.0
C      1  0.5117260000000  0.4058490000000  0.4610290000000 1.0
C      1  0.5427250000000  0.4394520000000  0.4643910000000 1.0
C      1  0.5724380000000  0.4847480000000  0.5371910000000 1.0
C      1  0.5682960000000  0.4491480000000  0.5034760000000 1.0
C      1  0.5115130000000  0.5614070000000  0.4998480000000 1.0
C      1  0.4106320000000  0.5208930000000  0.4807380000000 1.0
C      1  0.4527170000000  0.4990060000000  0.5215110000000 1.0
C      1  0.5539890000000  0.5294500000000  0.5424530000000 1.0
C      1  0.5225880000000  0.4766740000000  0.5439420000000 1.0
C      1  0.4339750000000  0.5365980000000  0.4734290000000 1.0
C      1  0.5198090000000  0.4293210000000  0.4293700000000 1.0
C      1  0.5858610000000  0.4969630000000  0.4917510000000 1.0
C      1  0.4341830000000  0.4488930000000  0.5005670000000 1.0
C      1  0.4395880000000  0.5720250000000  0.5101110000000 1.0
C      1  0.4619060000000  0.4963470000000  0.4451260000000 1.0
C      1  0.5371590000000  0.5382530000000  0.4605930000000 1.0
C      1  0.5775970000000  0.5138500000000  0.5351630000000 1.0
C      1  0.5307330000000  0.5671910000000  0.5471170000000 1.0
C      1  0.5093850000000  0.4947990000000  0.5643120000000 1.0
C      1  0.4823920000000  0.4628130000000  0.4726940000000 1.0
C      1  0.5475430000000  0.4762330000000  0.5429040000000 1.0
C      1  0.4330080000000  0.4701720000000  0.4793380000000 1.0
C      1  0.4929590000000  0.5026620000000  0.5084280000000 1.0
C      1  0.5864150000000  0.5204550000000  0.5079150000000 1.0
C      1  0.5284070000000  0.4813710000000  0.4885960000000 1.0
C      1  0.4665640000000  0.5087780000000  0.4986040000000 1.0
C      1  0.5228050000000  0.5337770000000  0.4858540000000 1.0
C      1  0.5119370000000  0.4862720000000  0.4393570000000 1.0
C      1  0.5513870000000  0.4601090000000  0.4829280000000 1.0
C      1  0.5404770000000  0.4783250000000  0.4315440000000 1.0
C      1  0.5389670000000  0.4482100000000  0.4365350000000 1.0
C      1  0.4465850000000  0.5342880000000  0.4234630000000 1.0
C      1  0.5074770000000  0.5835550000000  0.5473160000000 1.0
C      1  0.5613370000000  0.5653340000000  0.5044210000000 1.0
C      1  0.4564450000000  0.4727660000000  0.4625840000000 1.0
C      1  0.5279340000000  0.4172010000000  0.4793390000000 1.0
C      1  0.5754290000000  0.5056620000000  0.4639750000000 1.0
C      1  0.4732170000000  0.4328620000000  0.5122210000000 1.0
C      1  0.4839370000000  0.4815110000000  0.5619700000000 1.0
C      1  0.5340890000000  0.5399920000000  0.5609360000000 1.0
C      1  0.4062160000000  0.5068560000000  0.5056060000000 1.0
C      1  0.4881180000000  0.5673710000000  0.5260550000000 1.0
C      1  0.5586340000000  0.4914480000000  0.4470260000000 1.0
C      1  0.5058190000000  0.4092910000000  0.4368590000000 1.0
C      1  0.4723710000000  0.5679530000000  0.4751320000000 1.0
C      1  0.4897150000000  0.5426220000000  0.5379970000000 1.0
C      1  0.5764980000000  0.5434170000000  0.4909920000000 1.0
C      1  0.4381530000000  0.5588680000000  0.5357080000000 1.0
C      1  0.5661610000000  0.5338780000000  0.4654680000000 1.0
END
