TITL C-883727-9645-240 -1.23312738303746 125000 -14232.6362179459 0 0 96 (C1) n - 1
REM
REM in /home/nfs/bkarasulu/CARBON/AIRSS/Generating-Clusters/ReaxFF-fromJPCA2015/Units_Real/with-SteepDescent/Only-C1/SD-CG/Try1-3A/FIRE-CG
REM
REM
REM
REM
REM
REM ./C.cell (11c1c37f851c82e70ff6c80c92926a4b)
REM
REM compiler GCC version 9.2.1 20190827 (Red Hat 9.2.1-1)
REM options -cpp -mtune=generic -march=x86-64 -g -O0 -fpre-include=/usr/include/finclude/math-vector-fortran.h
REM seed -1948121391 -2054706206 -1754951049 180141315 49730916 -1091016167 1137719889 1835612907 175426456 -277614621 -506193837 -179392625 1142438236 -594566942 -1385431821 1134034924 -1939606775 -726289109 -204644781 -472012220 -2119511670 -407238797 -618251305 325147938 195851011 -424260176 -762982670 -385635740 1657985990 -1156244867 1080968194 -1257903455 -1481586948
REM
CELL 1.54180   50.00000   50.00000   50.00000   90.00000   90.00000   90.00000
LATT -1
SFAC C  
C      1  0.5611990000000  0.5711880000000  0.4919060000000 1.0
C      1  0.5366170000000  0.4423780000000  0.4258350000000 1.0
C      1  0.4845500000000  0.4206360000000  0.5504050000000 1.0
C      1  0.5345190000000  0.5016550000000  0.4371860000000 1.0
C      1  0.4814790000000  0.5045440000000  0.5302070000000 1.0
C      1  0.5693280000000  0.4394480000000  0.5238110000000 1.0
C      1  0.5241960000000  0.4368720000000  0.5504620000000 1.0
C      1  0.4876770000000  0.4774790000000  0.5211400000000 1.0
C      1  0.5146050000000  0.4635280000000  0.4687190000000 1.0
C      1  0.4456510000000  0.4920270000000  0.4359500000000 1.0
C      1  0.5741300000000  0.4717530000000  0.4824220000000 1.0
C      1  0.4547430000000  0.5624160000000  0.5277250000000 1.0
C      1  0.5091540000000  0.4571880000000  0.5672000000000 1.0
C      1  0.4676760000000  0.4523890000000  0.4824570000000 1.0
C      1  0.4226800000000  0.4679800000000  0.4970070000000 1.0
C      1  0.4336740000000  0.5521370000000  0.5096420000000 1.0
C      1  0.5609390000000  0.5357570000000  0.5355540000000 1.0
C      1  0.4508430000000  0.5147530000000  0.4170120000000 1.0
C      1  0.5532820000000  0.4898570000000  0.4936530000000 1.0
C      1  0.5362140000000  0.4156420000000  0.5015510000000 1.0
C      1  0.4996150000000  0.6041110000000  0.5139420000000 1.0
C      1  0.4567870000000  0.4614610000000  0.5674080000000 1.0
C      1  0.5272960000000  0.4744890000000  0.4923750000000 1.0
C      1  0.4714910000000  0.4823240000000  0.4438540000000 1.0
C      1  0.5062810000000  0.5698420000000  0.5556770000000 1.0
C      1  0.4887640000000  0.4110660000000  0.4816270000000 1.0
C      1  0.4573010000000  0.5499470000000  0.5543480000000 1.0
C      1  0.5236850000000  0.5299210000000  0.5071390000000 1.0
C      1  0.5597100000000  0.5520870000000  0.4398670000000 1.0
C      1  0.5129890000000  0.4580350000000  0.4185370000000 1.0
C      1  0.4354910000000  0.4654400000000  0.5481820000000 1.0
C      1  0.4900830000000  0.5507530000000  0.4222480000000 1.0
C      1  0.5424010000000  0.4975670000000  0.5578040000000 1.0
C      1  0.5325490000000  0.4444550000000  0.4552330000000 1.0
C      1  0.5755280000000  0.4692250000000  0.4524980000000 1.0
C      1  0.5008290000000  0.5059490000000  0.5793360000000 1.0
C      1  0.4955000000000  0.4356960000000  0.4313040000000 1.0
C      1  0.4473470000000  0.4237070000000  0.5114070000000 1.0
C      1  0.4977880000000  0.5413090000000  0.5035320000000 1.0
C      1  0.5040280000000  0.5227930000000  0.5251460000000 1.0
C      1  0.4608900000000  0.5118470000000  0.5056530000000 1.0
C      1  0.4784270000000  0.5251770000000  0.4143450000000 1.0
C      1  0.4824040000000  0.4469680000000  0.5659020000000 1.0
C      1  0.4919860000000  0.4215030000000  0.4561320000000 1.0
C      1  0.5791140000000  0.5397670000000  0.4575990000000 1.0
C      1  0.4347260000000  0.5226210000000  0.5116760000000 1.0
C      1  0.4206140000000  0.5668360000000  0.4856090000000 1.0
C      1  0.4892230000000  0.5021490000000  0.4328050000000 1.0
C      1  0.4923600000000  0.5228370000000  0.4601900000000 1.0
C      1  0.5357190000000  0.4774250000000  0.5358620000000 1.0
C      1  0.4823260000000  0.5887150000000  0.4935240000000 1.0
C      1  0.4794510000000  0.5672510000000  0.5128660000000 1.0
C      1  0.5672090000000  0.5395420000000  0.4865830000000 1.0
C      1  0.4834010000000  0.5545270000000  0.5673430000000 1.0
C      1  0.5566460000000  0.4871030000000  0.4434280000000 1.0
C      1  0.4583420000000  0.4890920000000  0.5787370000000 1.0
C      1  0.5769900000000  0.5295020000000  0.5141090000000 1.0
C      1  0.5135870000000  0.4864360000000  0.4240920000000 1.0
C      1  0.5252840000000  0.5496190000000  0.5676870000000 1.0
C      1  0.4836700000000  0.5720750000000  0.4705950000000 1.0
C      1  0.4777520000000  0.5026310000000  0.5623980000000 1.0
C      1  0.4851820000000  0.4663360000000  0.4634000000000 1.0
C      1  0.4162010000000  0.5413390000000  0.4717890000000 1.0
C      1  0.4625610000000  0.4230030000000  0.4856410000000 1.0
C      1  0.5094650000000  0.4173930000000  0.5342960000000 1.0
C      1  0.4784900000000  0.5219420000000  0.4857500000000 1.0
C      1  0.5028750000000  0.5358580000000  0.5803610000000 1.0
C      1  0.5596960000000  0.4450990000000  0.4444480000000 1.0
C      1  0.4369600000000  0.4545360000000  0.5193740000000 1.0
C      1  0.4836200000000  0.5523540000000  0.4509850000000 1.0
C      1  0.4219470000000  0.4906870000000  0.5534450000000 1.0
C      1  0.4338100000000  0.5054350000000  0.5764530000000 1.0
C      1  0.5147820000000  0.4754370000000  0.5167180000000 1.0
C      1  0.5734540000000  0.5002050000000  0.5191780000000 1.0
C      1  0.5457640000000  0.5880870000000  0.5052460000000 1.0
C      1  0.5249600000000  0.5230450000000  0.4600280000000 1.0
C      1  0.5288800000000  0.6041450000000  0.5191110000000 1.0
C      1  0.4359810000000  0.5302880000000  0.5602960000000 1.0
C      1  0.5404870000000  0.5202430000000  0.4864900000000 1.0
C      1  0.4160490000000  0.4803920000000  0.4761940000000 1.0
C      1  0.4639530000000  0.4195870000000  0.5315850000000 1.0
C      1  0.5201470000000  0.4841940000000  0.5734980000000 1.0
C      1  0.5730510000000  0.4912930000000  0.5466720000000 1.0
C      1  0.4225700000000  0.5162660000000  0.5379730000000 1.0
C      1  0.5480440000000  0.4507260000000  0.5404680000000 1.0
C      1  0.5195990000000  0.5570600000000  0.4228110000000 1.0
C      1  0.4664520000000  0.4621850000000  0.5095070000000 1.0
C      1  0.5085730000000  0.5943220000000  0.5396620000000 1.0
C      1  0.5790120000000  0.4476870000000  0.4977230000000 1.0
C      1  0.4140040000000  0.5183510000000  0.4611940000000 1.0
C      1  0.5461220000000  0.5528240000000  0.4101770000000 1.0
C      1  0.5103850000000  0.4113880000000  0.5048880000000 1.0
C      1  0.5318090000000  0.5502690000000  0.4490710000000 1.0
C      1  0.4193700000000  0.4928040000000  0.4513360000000 1.0
C      1  0.5438770000000  0.5304350000000  0.5550060000000 1.0
C      1  0.5631320000000  0.4213540000000  0.5007820000000 1.0
END
