TITL C-883730-8503-8 410365.949972694 125000 -28624.3635879054 0 0 190 (C1) n - 1
REM
REM in /home/nfs/bkarasulu/CARBON/AIRSS/Generating-Clusters/ReaxFF-fromJPCA2015/Units_Real/with-SteepDescent/Only-C1/SD-CG/Try1-3A/FIRE-CG
REM
REM
REM
REM
REM
REM ./C.cell (11c1c37f851c82e70ff6c80c92926a4b)
REM
REM compiler GCC version 9.2.1 20190827 (Red Hat 9.2.1-1)
REM options -cpp -mtune=generic -march=x86-64 -g -O0 -fpre-include=/usr/include/finclude/math-vector-fortran.h
REM seed 19622655 -712930716 531860147 145522660 -1910446344 -912943062 -49090597 -2297375 -518644172 -756893789 1891281058 604208672 -1921756480 -226550746 1958068444 -856371939 -1719121091 -2026646047 -592807190 -267545436 -1364280538 -1315872444 20229930 -1359462019 962222923 -2108179535 490297374 -289187305 947075122 20347474 1271228187 1655510385 1095378198
REM
CELL 1.54180   50.00000   50.00000   50.00000   90.00000   90.00000   90.00000
LATT -1
SFAC C  
C      1  0.6079550000000  0.4939540000000  0.5356030000000 1.0
C      1  0.5360750000000  0.5443020000000  0.4449910000000 1.0
C      1  0.5457680000000  0.4050410000000  0.4520630000000 1.0
C      1  0.4743150000000  0.6048550000000  0.5601650000000 1.0
C      1  0.5776940000000  0.5604910000000  0.4746830000000 1.0
C      1  0.4750080000000  0.4539810000000  0.5653830000000 1.0
C      1  0.4319830000000  0.4863870000000  0.5047110000000 1.0
C      1  0.4696380000000  0.5996920000000  0.5320310000000 1.0
C      1  0.4656790000000  0.4425060000000  0.4766960000000 1.0
C      1  0.4433660000000  0.4198520000000  0.5467460000000 1.0
C      1  0.4630400000000  0.5964750000000  0.4711590000000 1.0
C      1  0.4885420000000  0.5459490000000  0.5997320000000 1.0
C      1  0.5269510000000  0.3957180000000  0.4723150000000 1.0
C      1  0.5484400000000  0.4976200000000  0.5482100000000 1.0
C      1  0.5073960000000  0.5981130000000  0.5045560000000 1.0
C      1  0.4323670000000  0.5091020000000  0.3690230000000 1.0
C      1  0.5249680000000  0.4976570000000  0.4537980000000 1.0
C      1  0.5590270000000  0.5172360000000  0.4125920000000 1.0
C      1  0.4486200000000  0.5841890000000  0.5166170000000 1.0
C      1  0.4849490000000  0.5474750000000  0.5213500000000 1.0
C      1  0.4278600000000  0.5685530000000  0.5321630000000 1.0
C      1  0.5358210000000  0.5140350000000  0.3947270000000 1.0
C      1  0.5750180000000  0.4517430000000  0.4505270000000 1.0
C      1  0.3968170000000  0.5006940000000  0.5454620000000 1.0
C      1  0.4701410000000  0.5821150000000  0.5778400000000 1.0
C      1  0.5833090000000  0.4576050000000  0.5618830000000 1.0
C      1  0.3897100000000  0.4939060000000  0.5181450000000 1.0
C      1  0.5216220000000  0.4897230000000  0.3868320000000 1.0
C      1  0.5857490000000  0.5626240000000  0.5279880000000 1.0
C      1  0.4322730000000  0.5080260000000  0.4213100000000 1.0
C      1  0.4915110000000  0.5743800000000  0.5957930000000 1.0
C      1  0.5357630000000  0.5021410000000  0.5001720000000 1.0
C      1  0.5702930000000  0.5652730000000  0.4434680000000 1.0
C      1  0.4600010000000  0.4773420000000  0.5526620000000 1.0
C      1  0.5352050000000  0.4861310000000  0.5257160000000 1.0
C      1  0.4465380000000  0.4977410000000  0.5403760000000 1.0
C      1  0.5292500000000  0.5549430000000  0.4032130000000 1.0
C      1  0.4813050000000  0.3985700000000  0.5061030000000 1.0
C      1  0.4403050000000  0.3950840000000  0.5276040000000 1.0
C      1  0.5487500000000  0.5821310000000  0.4490310000000 1.0
C      1  0.5963620000000  0.5139350000000  0.5530280000000 1.0
C      1  0.5445050000000  0.5182980000000  0.4539940000000 1.0
C      1  0.4097920000000  0.4844860000000  0.5665620000000 1.0
C      1  0.5683250000000  0.5135550000000  0.4718660000000 1.0
C      1  0.4590530000000  0.4631530000000  0.4123730000000 1.0
C      1  0.4537040000000  0.4688060000000  0.5128600000000 1.0
C      1  0.5351390000000  0.5988460000000  0.4993910000000 1.0
C      1  0.4860570000000  0.4107210000000  0.4273200000000 1.0
C      1  0.5081390000000  0.5471210000000  0.4425200000000 1.0
C      1  0.5682760000000  0.4911110000000  0.4212480000000 1.0
C      1  0.4528820000000  0.4013030000000  0.4519150000000 1.0
C      1  0.5577190000000  0.4900070000000  0.4857420000000 1.0
C      1  0.5750800000000  0.5264680000000  0.5001630000000 1.0
C      1  0.4207330000000  0.4808490000000  0.4378180000000 1.0
C      1  0.4241430000000  0.5605350000000  0.4321300000000 1.0
C      1  0.5141900000000  0.5908470000000  0.5858250000000 1.0
C      1  0.5026140000000  0.6118550000000  0.5689190000000 1.0
C      1  0.5138830000000  0.4457390000000  0.5013890000000 1.0
C      1  0.5241280000000  0.4691830000000  0.4584460000000 1.0
C      1  0.4924230000000  0.5144820000000  0.4780350000000 1.0
C      1  0.4388540000000  0.4115480000000  0.4759120000000 1.0
C      1  0.5278020000000  0.4566730000000  0.5816990000000 1.0
C      1  0.5850450000000  0.4787030000000  0.4429330000000 1.0
C      1  0.5539350000000  0.4669810000000  0.4121690000000 1.0
C      1  0.5255340000000  0.6126360000000  0.5524690000000 1.0
C      1  0.5304300000000  0.4929840000000  0.6097170000000 1.0
C      1  0.5696400000000  0.4667440000000  0.4984270000000 1.0
C      1  0.4888450000000  0.5143190000000  0.5705740000000 1.0
C      1  0.4235450000000  0.5848200000000  0.4464190000000 1.0
C      1  0.4574800000000  0.5150160000000  0.5188840000000 1.0
C      1  0.5740450000000  0.4759300000000  0.5825950000000 1.0
C      1  0.4951920000000  0.4354760000000  0.4797280000000 1.0
C      1  0.5946180000000  0.4294350000000  0.4672900000000 1.0
C      1  0.5376450000000  0.5519240000000  0.5685010000000 1.0
C      1  0.4290900000000  0.4951410000000  0.5864370000000 1.0
C      1  0.5512100000000  0.4029410000000  0.5389110000000 1.0
C      1  0.4996780000000  0.4549750000000  0.4575510000000 1.0
C      1  0.3916140000000  0.5106720000000  0.4711910000000 1.0
C      1  0.5786420000000  0.5776140000000  0.5053910000000 1.0
C      1  0.4843110000000  0.5205550000000  0.5252010000000 1.0
C      1  0.4857910000000  0.5171110000000  0.4033590000000 1.0
C      1  0.5369590000000  0.4225720000000  0.4305440000000 1.0
C      1  0.4072240000000  0.5341520000000  0.4610190000000 1.0
C      1  0.5245300000000  0.5523120000000  0.4956660000000 1.0
C      1  0.5570390000000  0.4437580000000  0.4285820000000 1.0
C      1  0.4676410000000  0.5336460000000  0.5807480000000 1.0
C      1  0.3928670000000  0.5442930000000  0.5030160000000 1.0
C      1  0.5434130000000  0.3969320000000  0.4959200000000 1.0
C      1  0.4253060000000  0.4375210000000  0.4722610000000 1.0
C      1  0.4688070000000  0.4247240000000  0.5235890000000 1.0
C      1  0.4629830000000  0.5189300000000  0.4217980000000 1.0
C      1  0.5804060000000  0.5039390000000  0.5755020000000 1.0
C      1  0.4538630000000  0.4337810000000  0.5716240000000 1.0
C      1  0.4529500000000  0.5883680000000  0.4447250000000 1.0
C      1  0.5190420000000  0.5444360000000  0.5462320000000 1.0
C      1  0.5078550000000  0.4485010000000  0.4017130000000 1.0
C      1  0.5023690000000  0.3912210000000  0.5261550000000 1.0
C      1  0.4792810000000  0.4815200000000  0.5088080000000 1.0
C      1  0.4156950000000  0.4348850000000  0.5466440000000 1.0
C      1  0.5606410000000  0.4473860000000  0.5433340000000 1.0
C      1  0.4504100000000  0.5337750000000  0.4975150000000 1.0
C      1  0.4307100000000  0.5296810000000  0.5582340000000 1.0
C      1  0.4568550000000  0.4418310000000  0.5040300000000 1.0
C      1  0.6121610000000  0.4791370000000  0.4878940000000 1.0
C      1  0.4263760000000  0.4535500000000  0.4443500000000 1.0
C      1  0.4355160000000  0.4500650000000  0.5866620000000 1.0
C      1  0.4676300000000  0.5581510000000  0.5004100000000 1.0
C      1  0.5597990000000  0.4447920000000  0.4819230000000 1.0
C      1  0.5309530000000  0.4130100000000  0.5568950000000 1.0
C      1  0.5136420000000  0.6036120000000  0.4557310000000 1.0
C      1  0.4990620000000  0.4785390000000  0.6088170000000 1.0
C      1  0.5099590000000  0.4519390000000  0.5302020000000 1.0
C      1  0.5606110000000  0.5300920000000  0.5237200000000 1.0
C      1  0.4018120000000  0.5582580000000  0.4794560000000 1.0
C      1  0.5423670000000  0.5437410000000  0.5954780000000 1.0
C      1  0.4888160000000  0.4342670000000  0.5417020000000 1.0
C      1  0.4959400000000  0.5641480000000  0.5425420000000 1.0
C      1  0.4138080000000  0.4558010000000  0.5678680000000 1.0
C      1  0.5322540000000  0.3888210000000  0.5219430000000 1.0
C      1  0.6058000000000  0.4896590000000  0.4607440000000 1.0
C      1  0.5315280000000  0.5373800000000  0.5208270000000 1.0
C      1  0.5336250000000  0.4575520000000  0.4837470000000 1.0
C      1  0.5464320000000  0.5959690000000  0.5475830000000 1.0
C      1  0.5004410000000  0.5073420000000  0.5450840000000 1.0
C      1  0.4668530000000  0.5581910000000  0.5631500000000 1.0
C      1  0.4066540000000  0.4473720000000  0.4942240000000 1.0
C      1  0.5168140000000  0.5058880000000  0.4792750000000 1.0
C      1  0.5066280000000  0.5275770000000  0.5870640000000 1.0
C      1  0.4738980000000  0.4679700000000  0.4619000000000 1.0
C      1  0.5392050000000  0.6016490000000  0.4687190000000 1.0
C      1  0.5977310000000  0.4438710000000  0.5233930000000 1.0
C      1  0.5622630000000  0.4193140000000  0.4984580000000 1.0
C      1  0.4405210000000  0.5206570000000  0.5826140000000 1.0
C      1  0.4996530000000  0.4814840000000  0.5301900000000 1.0
C      1  0.4166340000000  0.5827190000000  0.4752600000000 1.0
C      1  0.5551300000000  0.5459480000000  0.4226740000000 1.0
C      1  0.4045780000000  0.5283500000000  0.5470980000000 1.0
C      1  0.5305180000000  0.4652020000000  0.3960630000000 1.0
C      1  0.4719560000000  0.4719240000000  0.4351360000000 1.0
C      1  0.4955430000000  0.5604160000000  0.4841980000000 1.0
C      1  0.6137960000000  0.5002750000000  0.5079220000000 1.0
C      1  0.6010520000000  0.4526880000000  0.4958780000000 1.0
C      1  0.5520020000000  0.5127610000000  0.5702630000000 1.0
C      1  0.5722050000000  0.4214940000000  0.5261300000000 1.0
C      1  0.5558860000000  0.5909040000000  0.5179710000000 1.0
C      1  0.5327410000000  0.4434270000000  0.5546200000000 1.0
C      1  0.4837340000000  0.4645040000000  0.3959720000000 1.0
C      1  0.4563250000000  0.4159220000000  0.4263300000000 1.0
C      1  0.4089630000000  0.4878630000000  0.4630580000000 1.0
C      1  0.6025430000000  0.5402190000000  0.4732370000000 1.0
C      1  0.4979030000000  0.4018850000000  0.4766540000000 1.0
C      1  0.4052650000000  0.5503830000000  0.5282930000000 1.0
C      1  0.5258080000000  0.5072620000000  0.5844690000000 1.0
C      1  0.5123690000000  0.5789510000000  0.4051040000000 1.0
C      1  0.5475110000000  0.4726280000000  0.5959820000000 1.0
C      1  0.6040790000000  0.5274390000000  0.4995130000000 1.0
C      1  0.4778860000000  0.4904240000000  0.4818860000000 1.0
C      1  0.4820900000000  0.3954990000000  0.4521960000000 1.0
C      1  0.5502030000000  0.5558990000000  0.4845210000000 1.0
C      1  0.4070650000000  0.4372750000000  0.5202630000000 1.0
C      1  0.5125720000000  0.5312920000000  0.3985440000000 1.0
C      1  0.4447670000000  0.4749110000000  0.6012160000000 1.0
C      1  0.4415320000000  0.5553040000000  0.5523380000000 1.0
C      1  0.6038000000000  0.4643990000000  0.5425450000000 1.0
C      1  0.5399060000000  0.5804670000000  0.5736260000000 1.0
C      1  0.5034080000000  0.4082390000000  0.5487970000000 1.0
C      1  0.4944280000000  0.5664050000000  0.4271610000000 1.0
C      1  0.5000470000000  0.4600310000000  0.5874940000000 1.0
C      1  0.4930690000000  0.4918130000000  0.3905760000000 1.0
C      1  0.5101170000000  0.4255470000000  0.4189100000000 1.0
C      1  0.5823270000000  0.5388470000000  0.5426060000000 1.0
C      1  0.4323220000000  0.5085940000000  0.3930120000000 1.0
C      1  0.4067860000000  0.4747540000000  0.5060690000000 1.0
C      1  0.4332410000000  0.4981290000000  0.4779620000000 1.0
C      1  0.5746260000000  0.4081320000000  0.4604770000000 1.0
C      1  0.4949300000000  0.5908230000000  0.5281960000000 1.0
C      1  0.5966810000000  0.5168780000000  0.4574320000000 1.0
C      1  0.4409150000000  0.5930130000000  0.4887140000000 1.0
C      1  0.4420470000000  0.4411930000000  0.4227590000000 1.0
C      1  0.4928270000000  0.5911270000000  0.4783410000000 1.0
C      1  0.4614380000000  0.5368140000000  0.4450080000000 1.0
C      1  0.4897540000000  0.5387200000000  0.4627920000000 1.0
C      1  0.4163520000000  0.5340110000000  0.4320190000000 1.0
C      1  0.4406050000000  0.5256100000000  0.4712260000000 1.0
C      1  0.5563330000000  0.4669760000000  0.5234000000000 1.0
C      1  0.4654140000000  0.5644390000000  0.4323270000000 1.0
C      1  0.4717690000000  0.4799780000000  0.6090580000000 1.0
C      1  0.4511500000000  0.3956410000000  0.5011930000000 1.0
C      1  0.5424170000000  0.5254290000000  0.6161060000000 1.0
C      1  0.3859210000000  0.5154060000000  0.4988360000000 1.0
END
