TITL C-884136-4169-334 -6.80007101584919 125000 -28281.2991177016 0 0 190 (C1) n - 1
REM
REM in /home/nfs/bkarasulu/CARBON/AIRSS/Generating-Clusters/ReaxFF-fromJPCA2015/Units_Real/with-SteepDescent/Only-C1/SD-CG/Try1-3A/FIRE-CG
REM
REM
REM
REM
REM
REM ./C.cell (11c1c37f851c82e70ff6c80c92926a4b)
REM
REM compiler GCC version 9.2.1 20190827 (Red Hat 9.2.1-1)
REM options -cpp -mtune=generic -march=x86-64 -g -O0 -fpre-include=/usr/include/finclude/math-vector-fortran.h
REM seed 820752312 1143381756 -1727405894 -1380380557 -1968761834 -1562001920 40031964 716546857 895642389 -700966260 2003755110 1118887328 -59749752 1484880072 203398898 -305238647 993696439 1107705630 -2047339251 341601486 921916174 -1046777656 93093773 -1614644615 816685663 -520096749 -491855306 904553368 -1409872760 1793018728 -429219918 -1482729838 -70870448
REM
CELL 1.54180   50.00000   50.00000   50.00000   90.00000   90.00000   90.00000
LATT -1
SFAC C  
C      1  0.4920170000000  0.3884010000000  0.5549280000000 1.0
C      1  0.4924430000000  0.4937710000000  0.4959880000000 1.0
C      1  0.4981100000000  0.5717420000000  0.5855870000000 1.0
C      1  0.4469420000000  0.5680600000000  0.5036560000000 1.0
C      1  0.4276850000000  0.5560980000000  0.5197170000000 1.0
C      1  0.4889480000000  0.4737510000000  0.5421810000000 1.0
C      1  0.4752380000000  0.4722020000000  0.4563740000000 1.0
C      1  0.4729510000000  0.5778020000000  0.4221360000000 1.0
C      1  0.4111560000000  0.4487860000000  0.4589360000000 1.0
C      1  0.5957640000000  0.4238730000000  0.5168750000000 1.0
C      1  0.3864600000000  0.4839940000000  0.4813470000000 1.0
C      1  0.5136420000000  0.3870690000000  0.5725200000000 1.0
C      1  0.5984970000000  0.5110950000000  0.5281260000000 1.0
C      1  0.4017240000000  0.5058910000000  0.5234510000000 1.0
C      1  0.4386240000000  0.4077640000000  0.5039470000000 1.0
C      1  0.4334400000000  0.5703010000000  0.4491550000000 1.0
C      1  0.6012780000000  0.5222210000000  0.4389400000000 1.0
C      1  0.4655080000000  0.4771770000000  0.5287820000000 1.0
C      1  0.5875800000000  0.4424200000000  0.5392780000000 1.0
C      1  0.4648880000000  0.4575330000000  0.5810440000000 1.0
C      1  0.5091560000000  0.4925990000000  0.4307180000000 1.0
C      1  0.4421960000000  0.4558690000000  0.4931510000000 1.0
C      1  0.4977030000000  0.6023580000000  0.4981220000000 1.0
C      1  0.5783080000000  0.5571260000000  0.4374330000000 1.0
C      1  0.3939410000000  0.5572910000000  0.4796400000000 1.0
C      1  0.4732180000000  0.5567580000000  0.4951690000000 1.0
C      1  0.5680640000000  0.4353270000000  0.5604140000000 1.0
C      1  0.5616840000000  0.4838010000000  0.4348970000000 1.0
C      1  0.4939990000000  0.5414380000000  0.5877360000000 1.0
C      1  0.4591900000000  0.5200590000000  0.5795250000000 1.0
C      1  0.4115400000000  0.5534030000000  0.4591860000000 1.0
C      1  0.4603820000000  0.6040650000000  0.5159390000000 1.0
C      1  0.5269500000000  0.6001910000000  0.4647340000000 1.0
C      1  0.4979830000000  0.5360050000000  0.4519060000000 1.0
C      1  0.4161180000000  0.4484120000000  0.5618020000000 1.0
C      1  0.5915790000000  0.4142180000000  0.4888120000000 1.0
C      1  0.5373810000000  0.5113190000000  0.4684810000000 1.0
C      1  0.5527340000000  0.4961070000000  0.5237310000000 1.0
C      1  0.4196620000000  0.5673950000000  0.5450810000000 1.0
C      1  0.4297030000000  0.5028070000000  0.5065200000000 1.0
C      1  0.5357130000000  0.5452550000000  0.4244340000000 1.0
C      1  0.4722820000000  0.4006010000000  0.4631610000000 1.0
C      1  0.4594800000000  0.4340900000000  0.5638560000000 1.0
C      1  0.5470750000000  0.4376810000000  0.5112660000000 1.0
C      1  0.5273540000000  0.5347910000000  0.3979080000000 1.0
C      1  0.5919300000000  0.4707030000000  0.4413580000000 1.0
C      1  0.5692940000000  0.5783020000000  0.4567730000000 1.0
C      1  0.4964090000000  0.4987610000000  0.5448620000000 1.0
C      1  0.4575400000000  0.5320940000000  0.5320350000000 1.0
C      1  0.5804070000000  0.4889720000000  0.5151130000000 1.0
C      1  0.4450660000000  0.5920370000000  0.4639680000000 1.0
C      1  0.4860220000000  0.5397860000000  0.5216970000000 1.0
C      1  0.5561100000000  0.5648290000000  0.4187090000000 1.0
C      1  0.5370650000000  0.4011800000000  0.5789640000000 1.0
C      1  0.5854650000000  0.5602440000000  0.5199660000000 1.0
C      1  0.5140060000000  0.5574850000000  0.4408500000000 1.0
C      1  0.3791900000000  0.5448200000000  0.5022690000000 1.0
C      1  0.5026500000000  0.3952320000000  0.4657600000000 1.0
C      1  0.5149230000000  0.5723160000000  0.4681300000000 1.0
C      1  0.4293080000000  0.5732280000000  0.5720030000000 1.0
C      1  0.5089540000000  0.4383260000000  0.3991310000000 1.0
C      1  0.6064180000000  0.5256820000000  0.4897930000000 1.0
C      1  0.5161490000000  0.5116060000000  0.4511380000000 1.0
C      1  0.5118460000000  0.5541240000000  0.5191260000000 1.0
C      1  0.5234840000000  0.5833430000000  0.5762070000000 1.0
C      1  0.5440620000000  0.5889860000000  0.5329660000000 1.0
C      1  0.5017110000000  0.5119090000000  0.5183750000000 1.0
C      1  0.5967800000000  0.4956700000000  0.5529740000000 1.0
C      1  0.5148640000000  0.4517600000000  0.4591410000000 1.0
C      1  0.5808320000000  0.4204450000000  0.4606430000000 1.0
C      1  0.5617270000000  0.4390960000000  0.4168350000000 1.0
C      1  0.4601010000000  0.4396100000000  0.4236980000000 1.0
C      1  0.5626890000000  0.5643330000000  0.5400330000000 1.0
C      1  0.4022180000000  0.4594170000000  0.5386200000000 1.0
C      1  0.5603730000000  0.5094360000000  0.4201770000000 1.0
C      1  0.4478150000000  0.4871340000000  0.5792370000000 1.0
C      1  0.5499170000000  0.4859120000000  0.4671260000000 1.0
C      1  0.5410060000000  0.5082280000000  0.3988150000000 1.0
C      1  0.5093210000000  0.3787010000000  0.5344510000000 1.0
C      1  0.3982530000000  0.5297160000000  0.4501190000000 1.0
C      1  0.4666350000000  0.6008700000000  0.4429970000000 1.0
C      1  0.4719430000000  0.4464750000000  0.4675520000000 1.0
C      1  0.4758890000000  0.4273830000000  0.5217130000000 1.0
C      1  0.5372610000000  0.4945130000000  0.6115980000000 1.0
C      1  0.5967020000000  0.4810130000000  0.4683040000000 1.0
C      1  0.5600820000000  0.4818850000000  0.5859670000000 1.0
C      1  0.4890730000000  0.4558130000000  0.5970220000000 1.0
C      1  0.4770390000000  0.5838670000000  0.5706050000000 1.0
C      1  0.5125270000000  0.4999130000000  0.5692160000000 1.0
C      1  0.4617500000000  0.5207990000000  0.4557430000000 1.0
C      1  0.5358130000000  0.5183430000000  0.5171370000000 1.0
C      1  0.5485180000000  0.4091380000000  0.5229970000000 1.0
C      1  0.5769260000000  0.4032480000000  0.5112420000000 1.0
C      1  0.5448510000000  0.5632370000000  0.5805460000000 1.0
C      1  0.4859020000000  0.5057360000000  0.6161460000000 1.0
C      1  0.5073490000000  0.4694970000000  0.4979270000000 1.0
C      1  0.4978330000000  0.4997550000000  0.4063740000000 1.0
C      1  0.5321390000000  0.5431260000000  0.5628700000000 1.0
C      1  0.4579800000000  0.4257120000000  0.4528010000000 1.0
C      1  0.4788020000000  0.6243740000000  0.4431540000000 1.0
C      1  0.4208650000000  0.4918410000000  0.5686850000000 1.0
C      1  0.5686420000000  0.5287610000000  0.5825370000000 1.0
C      1  0.5276980000000  0.4687400000000  0.4766450000000 1.0
C      1  0.5352640000000  0.5433450000000  0.5346650000000 1.0
C      1  0.5018640000000  0.5477550000000  0.3976600000000 1.0
C      1  0.5739680000000  0.4739910000000  0.4853440000000 1.0
C      1  0.5687640000000  0.4517840000000  0.5853570000000 1.0
C      1  0.5076730000000  0.4364310000000  0.5860310000000 1.0
C      1  0.5349920000000  0.4598440000000  0.5266480000000 1.0
C      1  0.4901150000000  0.5955760000000  0.5452940000000 1.0
C      1  0.6064790000000  0.5102370000000  0.4677490000000 1.0
C      1  0.4491070000000  0.5624480000000  0.4247620000000 1.0
C      1  0.3782400000000  0.4955210000000  0.5062810000000 1.0
C      1  0.4218850000000  0.4656970000000  0.4375370000000 1.0
C      1  0.3967580000000  0.5024170000000  0.4617160000000 1.0
C      1  0.5477750000000  0.5960780000000  0.4449620000000 1.0
C      1  0.5358860000000  0.5850790000000  0.4208940000000 1.0
C      1  0.4057300000000  0.4459540000000  0.5123700000000 1.0
C      1  0.4595950000000  0.4519000000000  0.5154430000000 1.0
C      1  0.4796440000000  0.5332140000000  0.6112800000000 1.0
C      1  0.5281770000000  0.4204290000000  0.6008210000000 1.0
C      1  0.4473670000000  0.5309470000000  0.5576890000000 1.0
C      1  0.4257580000000  0.4687780000000  0.5815740000000 1.0
C      1  0.4368240000000  0.5118030000000  0.4435300000000 1.0
C      1  0.4034190000000  0.5600460000000  0.5055860000000 1.0
C      1  0.5272360000000  0.3878700000000  0.5150230000000 1.0
C      1  0.5079110000000  0.4538040000000  0.5358140000000 1.0
C      1  0.5038440000000  0.4824780000000  0.6118150000000 1.0
C      1  0.4042750000000  0.4869960000000  0.5460900000000 1.0
C      1  0.5517830000000  0.4260640000000  0.4656540000000 1.0
C      1  0.4242500000000  0.5457610000000  0.5633480000000 1.0
C      1  0.5378680000000  0.5290170000000  0.4904270000000 1.0
C      1  0.5048300000000  0.3929970000000  0.4956660000000 1.0
C      1  0.4907880000000  0.5779370000000  0.4842200000000 1.0
C      1  0.5599490000000  0.4454220000000  0.4874750000000 1.0
C      1  0.4237570000000  0.4241740000000  0.5218030000000 1.0
C      1  0.5466130000000  0.4785630000000  0.5425180000000 1.0
C      1  0.5082220000000  0.4661680000000  0.3875600000000 1.0
C      1  0.4433990000000  0.4629650000000  0.4185670000000 1.0
C      1  0.4446020000000  0.5954430000000  0.4933100000000 1.0
C      1  0.4527070000000  0.5139280000000  0.3995760000000 1.0
C      1  0.4825420000000  0.5240470000000  0.4058170000000 1.0
C      1  0.3991620000000  0.4571920000000  0.4854340000000 1.0
C      1  0.5356670000000  0.4278530000000  0.4079010000000 1.0
C      1  0.5833970000000  0.5659380000000  0.4940340000000 1.0
C      1  0.5194880000000  0.5272100000000  0.5799430000000 1.0
C      1  0.5678570000000  0.5839670000000  0.4852200000000 1.0
C      1  0.4963900000000  0.4436810000000  0.4807950000000 1.0
C      1  0.4551390000000  0.5416940000000  0.5985070000000 1.0
C      1  0.5931430000000  0.4706640000000  0.5367550000000 1.0
C      1  0.4880040000000  0.4422080000000  0.4190310000000 1.0
C      1  0.4525760000000  0.5041180000000  0.5230670000000 1.0
C      1  0.5758220000000  0.5297360000000  0.4331840000000 1.0
C      1  0.4741620000000  0.5425120000000  0.4711130000000 1.0
C      1  0.5437090000000  0.4187920000000  0.5545990000000 1.0
C      1  0.4226400000000  0.4906930000000  0.4557920000000 1.0
C      1  0.5375740000000  0.4837940000000  0.5672170000000 1.0
C      1  0.4938000000000  0.4197860000000  0.5012940000000 1.0
C      1  0.5258470000000  0.6103380000000  0.4916970000000 1.0
C      1  0.4557380000000  0.4852080000000  0.4005410000000 1.0
C      1  0.5018540000000  0.5715940000000  0.4146920000000 1.0
C      1  0.5198140000000  0.5935910000000  0.5495480000000 1.0
C      1  0.4786500000000  0.5277980000000  0.4339950000000 1.0
C      1  0.4705470000000  0.4941540000000  0.4748440000000 1.0
C      1  0.5821750000000  0.4394990000000  0.4386280000000 1.0
C      1  0.4335670000000  0.4367880000000  0.4724340000000 1.0
C      1  0.5798780000000  0.5029250000000  0.5760070000000 1.0
C      1  0.4546050000000  0.3998780000000  0.4843500000000 1.0
C      1  0.4821910000000  0.4189900000000  0.5501130000000 1.0
C      1  0.4377600000000  0.5364470000000  0.4111360000000 1.0
C      1  0.4554910000000  0.5690720000000  0.5838540000000 1.0
C      1  0.4985720000000  0.4659480000000  0.4393540000000 1.0
C      1  0.4168760000000  0.5247120000000  0.4275930000000 1.0
C      1  0.6053250000000  0.5374750000000  0.5152520000000 1.0
C      1  0.4941440000000  0.4949530000000  0.5914880000000 1.0
C      1  0.5122200000000  0.4330270000000  0.5568260000000 1.0
C      1  0.4837000000000  0.4814890000000  0.3916980000000 1.0
C      1  0.5337580000000  0.4802820000000  0.3937330000000 1.0
C      1  0.5471960000000  0.5976870000000  0.5064140000000 1.0
C      1  0.6069560000000  0.4956320000000  0.4279960000000 1.0
C      1  0.5698540000000  0.5555170000000  0.5682970000000 1.0
C      1  0.4337410000000  0.4295250000000  0.5504590000000 1.0
C      1  0.5521530000000  0.4346760000000  0.5992890000000 1.0
C      1  0.5444950000000  0.5201700000000  0.5992110000000 1.0
C      1  0.3777060000000  0.5204660000000  0.5153710000000 1.0
C      1  0.5229890000000  0.5530800000000  0.4925610000000 1.0
C      1  0.5517990000000  0.4668180000000  0.4124300000000 1.0
C      1  0.4826560000000  0.6086880000000  0.5218390000000 1.0
C      1  0.4393560000000  0.4853340000000  0.4853120000000 1.0
C      1  0.5275890000000  0.4091100000000  0.4638550000000 1.0
END
