TITL C-884138-6203-153 17.3924034848051 125000 -12051.7654430043 0 0 82 (C1) n - 1
REM
REM in /home/nfs/bkarasulu/CARBON/AIRSS/Generating-Clusters/ReaxFF-fromJPCA2015/Units_Real/with-SteepDescent/Only-C1/SD-CG/Try1-3A/FIRE-CG
REM
REM
REM
REM
REM
REM ./C.cell (11c1c37f851c82e70ff6c80c92926a4b)
REM
REM compiler GCC version 9.2.1 20190827 (Red Hat 9.2.1-1)
REM options -cpp -mtune=generic -march=x86-64 -g -O0 -fpre-include=/usr/include/finclude/math-vector-fortran.h
REM seed 1585823072 1617268714 -1035487397 -695900692 1303669030 2121290033 1568506569 1429630182 2026678915 -129544526 -1155789159 -534855767 -1464899259 66613124 322783775 2107894580 1346010323 1439579932 2124251292 1091241154 919884761 -1013698703 1861997866 -843222667 -1446565323 312754330 -402108645 118752144 -144051202 1179312116 1593181022 817815326 695924092
REM
CELL 1.54180   50.00000   50.00000   50.00000   90.00000   90.00000   90.00000
LATT -1
SFAC C  
C      1  0.5021550000000  0.4903490000000  0.4624930000000 1.0
C      1  0.4848630000000  0.4695870000000  0.5687810000000 1.0
C      1  0.4760130000000  0.4796310000000  0.4700760000000 1.0
C      1  0.5501110000000  0.4765230000000  0.5699810000000 1.0
C      1  0.5418250000000  0.4853400000000  0.4311370000000 1.0
C      1  0.4901140000000  0.4182000000000  0.4818820000000 1.0
C      1  0.4997380000000  0.4428910000000  0.4880440000000 1.0
C      1  0.4583770000000  0.4357100000000  0.4543010000000 1.0
C      1  0.5663710000000  0.4861630000000  0.4462020000000 1.0
C      1  0.5692000000000  0.4661700000000  0.5178560000000 1.0
C      1  0.4733830000000  0.4960970000000  0.5584380000000 1.0
C      1  0.5724990000000  0.5417230000000  0.5371610000000 1.0
C      1  0.4172960000000  0.4772930000000  0.4834890000000 1.0
C      1  0.5346420000000  0.5562110000000  0.4986110000000 1.0
C      1  0.4765740000000  0.4240510000000  0.5205360000000 1.0
C      1  0.4613950000000  0.4642440000000  0.4481750000000 1.0
C      1  0.5489900000000  0.5536100000000  0.5236410000000 1.0
C      1  0.5235300000000  0.4803760000000  0.4791210000000 1.0
C      1  0.5693940000000  0.4612680000000  0.4620660000000 1.0
C      1  0.5865890000000  0.5214520000000  0.4958730000000 1.0
C      1  0.4217620000000  0.4952940000000  0.4632000000000 1.0
C      1  0.4288340000000  0.5270300000000  0.5072560000000 1.0
C      1  0.4404750000000  0.5279740000000  0.5332560000000 1.0
C      1  0.4796360000000  0.4693520000000  0.4261280000000 1.0
C      1  0.4869280000000  0.5776510000000  0.5186770000000 1.0
C      1  0.4896810000000  0.5193360000000  0.5548900000000 1.0
C      1  0.5699840000000  0.5128980000000  0.4592450000000 1.0
C      1  0.4306760000000  0.4520050000000  0.4920830000000 1.0
C      1  0.4867450000000  0.4285490000000  0.4532840000000 1.0
C      1  0.5625380000000  0.4959560000000  0.5253800000000 1.0
C      1  0.4511980000000  0.5504940000000  0.5461510000000 1.0
C      1  0.4378430000000  0.4846360000000  0.5241650000000 1.0
C      1  0.5215210000000  0.5669920000000  0.5656070000000 1.0
C      1  0.4892010000000  0.5341890000000  0.4954650000000 1.0
C      1  0.4328750000000  0.5155690000000  0.4470420000000 1.0
C      1  0.4645500000000  0.4156800000000  0.4955380000000 1.0
C      1  0.5699260000000  0.5070980000000  0.4874410000000 1.0
C      1  0.4557850000000  0.4388360000000  0.5357010000000 1.0
C      1  0.5218580000000  0.5481030000000  0.5888330000000 1.0
C      1  0.5062770000000  0.5566210000000  0.5108650000000 1.0
C      1  0.5544170000000  0.4494680000000  0.5370710000000 1.0
C      1  0.5349820000000  0.5006630000000  0.5321040000000 1.0
C      1  0.4620850000000  0.5537850000000  0.4503140000000 1.0
C      1  0.5277140000000  0.4592380000000  0.4358980000000 1.0
C      1  0.4733650000000  0.5862100000000  0.4935890000000 1.0
C      1  0.4467120000000  0.4593470000000  0.5146590000000 1.0
C      1  0.4620630000000  0.5094570000000  0.4476310000000 1.0
C      1  0.4746480000000  0.5325640000000  0.4648920000000 1.0
C      1  0.4238360000000  0.4989550000000  0.5041820000000 1.0
C      1  0.5642340000000  0.5016800000000  0.5765680000000 1.0
C      1  0.4783390000000  0.4627770000000  0.4957310000000 1.0
C      1  0.5158340000000  0.4901140000000  0.5096870000000 1.0
C      1  0.5716750000000  0.5279960000000  0.5627740000000 1.0
C      1  0.5201080000000  0.5187020000000  0.5512790000000 1.0
C      1  0.4319960000000  0.5489800000000  0.4863350000000 1.0
C      1  0.4954760000000  0.5854790000000  0.4723240000000 1.0
C      1  0.5008790000000  0.5148630000000  0.5017010000000 1.0
C      1  0.4718720000000  0.5690800000000  0.5417040000000 1.0
C      1  0.4759880000000  0.5449700000000  0.5572190000000 1.0
C      1  0.4798680000000  0.4989570000000  0.4269710000000 1.0
C      1  0.4510750000000  0.5690790000000  0.4908550000000 1.0
C      1  0.4953950000000  0.4687660000000  0.5184200000000 1.0
C      1  0.4904210000000  0.5460840000000  0.4445980000000 1.0
C      1  0.5029070000000  0.5139780000000  0.4392040000000 1.0
C      1  0.5463630000000  0.5300950000000  0.4529160000000 1.0
C      1  0.5425620000000  0.4482480000000  0.4586120000000 1.0
C      1  0.5279850000000  0.5195770000000  0.5829250000000 1.0
C      1  0.5318970000000  0.5130020000000  0.4341560000000 1.0
C      1  0.5364670000000  0.4539300000000  0.5610330000000 1.0
C      1  0.5850720000000  0.5181890000000  0.5239580000000 1.0
C      1  0.4486790000000  0.5019480000000  0.5433240000000 1.0
C      1  0.4442020000000  0.4302230000000  0.4795940000000 1.0
C      1  0.5351950000000  0.5518010000000  0.4694500000000 1.0
C      1  0.5777080000000  0.4596910000000  0.4901000000000 1.0
C      1  0.4363930000000  0.5435290000000  0.4573340000000 1.0
C      1  0.5256850000000  0.4518410000000  0.4825800000000 1.0
C      1  0.5242120000000  0.5505760000000  0.5399680000000 1.0
C      1  0.5066020000000  0.4517890000000  0.5577950000000 1.0
C      1  0.4996890000000  0.4500460000000  0.4361470000000 1.0
C      1  0.4986050000000  0.4433660000000  0.5305960000000 1.0
C      1  0.4650030000000  0.4545800000000  0.5570530000000 1.0
C      1  0.5104390000000  0.5652250000000  0.4586790000000 1.0
END
