TITL C-883731-9874-304 -6.47286893685763 125000 -2894.69423660937 0 0 21 (C1) n - 1
REM
REM in /home/nfs/bkarasulu/CARBON/AIRSS/Generating-Clusters/ReaxFF-fromJPCA2015/Units_Real/with-SteepDescent/Only-C1/SD-CG/Try1-3A/FIRE-CG
REM
REM
REM
REM
REM
REM ./C.cell (11c1c37f851c82e70ff6c80c92926a4b)
REM
REM compiler GCC version 9.2.1 20190827 (Red Hat 9.2.1-1)
REM options -cpp -mtune=generic -march=x86-64 -g -O0 -fpre-include=/usr/include/finclude/math-vector-fortran.h
REM seed 723549100 1686362170 791442795 -1695336230 55436834 -106308799 1422352654 -1185134309 -2036545376 1193481366 -544901177 -1314932906 -199770811 1412576031 -418520869 -1844673813 -1357153854 1728483149 2028357587 -328848262 35318623 -1499516675 1740438831 881213584 -683310447 514862554 -2041447320 118603399 1563630062 -1369369299 -1018300383 -198868333 -1365708931
REM
CELL 1.54180   50.00000   50.00000   50.00000   90.00000   90.00000   90.00000
LATT -1
SFAC C  
C      1  0.4420130000000  0.4909430000000  0.4513170000000 1.0
C      1  0.5087040000000  0.5235370000000  0.4872850000000 1.0
C      1  0.5228280000000  0.4680540000000  0.4972740000000 1.0
C      1  0.5306100000000  0.5147080000000  0.5059430000000 1.0
C      1  0.5021740000000  0.5079910000000  0.4663980000000 1.0
C      1  0.4876380000000  0.5388130000000  0.5051740000000 1.0
C      1  0.5117730000000  0.4604030000000  0.4784380000000 1.0
C      1  0.4924760000000  0.5316730000000  0.5546600000000 1.0
C      1  0.5307310000000  0.5307850000000  0.5293860000000 1.0
C      1  0.5016160000000  0.5393210000000  0.5352620000000 1.0
C      1  0.4443130000000  0.4639410000000  0.4643860000000 1.0
C      1  0.4643270000000  0.5451250000000  0.4992740000000 1.0
C      1  0.4679900000000  0.4848090000000  0.4357530000000 1.0
C      1  0.5341180000000  0.4867330000000  0.5146190000000 1.0
C      1  0.5348150000000  0.4867610000000  0.5449950000000 1.0
C      1  0.5107610000000  0.5157860000000  0.5670000000000 1.0
C      1  0.5118030000000  0.4840470000000  0.5635080000000 1.0
C      1  0.4982970000000  0.4617020000000  0.4538350000000 1.0
C      1  0.4695840000000  0.4580790000000  0.4471620000000 1.0
C      1  0.5373830000000  0.5154740000000  0.5529250000000 1.0
C      1  0.4960450000000  0.4913160000000  0.4454040000000 1.0
END
