TITL C-883731-9874-13 1432029.10247899 125000 -17022.9460618704 0 0 116 (C1) n - 1
REM
REM in /home/nfs/bkarasulu/CARBON/AIRSS/Generating-Clusters/ReaxFF-fromJPCA2015/Units_Real/with-SteepDescent/Only-C1/SD-CG/Try1-3A/FIRE-CG
REM
REM
REM
REM
REM
REM ./C.cell (11c1c37f851c82e70ff6c80c92926a4b)
REM
REM compiler GCC version 9.2.1 20190827 (Red Hat 9.2.1-1)
REM options -cpp -mtune=generic -march=x86-64 -g -O0 -fpre-include=/usr/include/finclude/math-vector-fortran.h
REM seed -1342276416 -1127354202 1769460770 1442757741 -3405283 167124697 -1161089687 1792285820 135540601 -1266325890 -2013989822 1795926366 -676661719 2119256119 2041231816 187011559 1201052486 1256266751 -1876631752 830148820 2081670873 -1769406352 148843845 -1203472659 -987562899 1763658173 -17522731 -581986375 370099732 -1890828312 -2049009847 -678826317 1560294999
REM
CELL 1.54180   50.00000   50.00000   50.00000   90.00000   90.00000   90.00000
LATT -1
SFAC C  
C      1  0.4882150000000  0.4824120000000  0.5347530000000 1.0
C      1  0.4285870000000  0.4749280000000  0.5493250000000 1.0
C      1  0.5262780000000  0.4849310000000  0.5816090000000 1.0
C      1  0.4417370000000  0.5554200000000  0.4550870000000 1.0
C      1  0.5232090000000  0.5682030000000  0.5600260000000 1.0
C      1  0.5634450000000  0.4442210000000  0.4619140000000 1.0
C      1  0.4866890000000  0.5371600000000  0.4139860000000 1.0
C      1  0.4625900000000  0.5635450000000  0.5000030000000 1.0
C      1  0.5076520000000  0.5446770000000  0.5102330000000 1.0
C      1  0.4696470000000  0.5074770000000  0.4739090000000 1.0
C      1  0.5619800000000  0.5121070000000  0.5661530000000 1.0
C      1  0.5537150000000  0.4844690000000  0.5691710000000 1.0
C      1  0.5474860000000  0.5846390000000  0.4899900000000 1.0
C      1  0.4136050000000  0.4733590000000  0.5122620000000 1.0
C      1  0.5836490000000  0.5398980000000  0.5272000000000 1.0
C      1  0.5039130000000  0.5439860000000  0.4566890000000 1.0
C      1  0.5391690000000  0.4990980000000  0.4098980000000 1.0
C      1  0.5489050000000  0.5546330000000  0.4455100000000 1.0
C      1  0.5488170000000  0.4761500000000  0.4911590000000 1.0
C      1  0.4792040000000  0.5029260000000  0.5530200000000 1.0
C      1  0.4844580000000  0.4182370000000  0.5175470000000 1.0
C      1  0.4781140000000  0.5542810000000  0.5810730000000 1.0
C      1  0.4250350000000  0.5279490000000  0.4881560000000 1.0
C      1  0.4999400000000  0.5807210000000  0.5462470000000 1.0
C      1  0.5295750000000  0.4178110000000  0.4624270000000 1.0
C      1  0.5075640000000  0.4228610000000  0.4992100000000 1.0
C      1  0.5714470000000  0.5035920000000  0.4485320000000 1.0
C      1  0.5260260000000  0.5018220000000  0.5375380000000 1.0
C      1  0.5187810000000  0.5401930000000  0.4828090000000 1.0
C      1  0.5806770000000  0.5150650000000  0.5435100000000 1.0
C      1  0.5092090000000  0.5765520000000  0.5192780000000 1.0
C      1  0.5340480000000  0.5189460000000  0.5590950000000 1.0
C      1  0.5146700000000  0.4588760000000  0.5765090000000 1.0
C      1  0.5163290000000  0.4740790000000  0.5330460000000 1.0
C      1  0.4596320000000  0.4718050000000  0.4394000000000 1.0
C      1  0.5240520000000  0.4470710000000  0.5516300000000 1.0
C      1  0.5738050000000  0.4656800000000  0.4805690000000 1.0
C      1  0.4529550000000  0.4867110000000  0.5917790000000 1.0
C      1  0.5641950000000  0.5719750000000  0.5081350000000 1.0
C      1  0.4382500000000  0.5291540000000  0.4427750000000 1.0
C      1  0.5694660000000  0.5647790000000  0.5318780000000 1.0
C      1  0.5055330000000  0.5751550000000  0.4640170000000 1.0
C      1  0.4304590000000  0.5204110000000  0.5173160000000 1.0
C      1  0.5268990000000  0.5870190000000  0.5092640000000 1.0
C      1  0.5707150000000  0.5334590000000  0.4498250000000 1.0
C      1  0.5296840000000  0.4609510000000  0.5053060000000 1.0
C      1  0.4977710000000  0.4726450000000  0.4005360000000 1.0
C      1  0.4698220000000  0.4865530000000  0.5137790000000 1.0
C      1  0.5545780000000  0.4860900000000  0.4315940000000 1.0
C      1  0.4503690000000  0.5513080000000  0.5818580000000 1.0
C      1  0.4358570000000  0.5466640000000  0.5332740000000 1.0
C      1  0.5640640000000  0.4712860000000  0.5432310000000 1.0
C      1  0.5438920000000  0.5266540000000  0.4807630000000 1.0
C      1  0.4939290000000  0.5050110000000  0.4855500000000 1.0
C      1  0.4603980000000  0.5132570000000  0.5082520000000 1.0
C      1  0.5360340000000  0.4953840000000  0.4750750000000 1.0
C      1  0.5849360000000  0.4910010000000  0.4717860000000 1.0
C      1  0.4259720000000  0.5118610000000  0.4632700000000 1.0
C      1  0.4796740000000  0.5264020000000  0.4529260000000 1.0
C      1  0.4416890000000  0.4516090000000  0.5398700000000 1.0
C      1  0.5467050000000  0.5668060000000  0.5460130000000 1.0
C      1  0.4813510000000  0.4811190000000  0.4206640000000 1.0
C      1  0.4989260000000  0.4432590000000  0.4404730000000 1.0
C      1  0.5249170000000  0.5448910000000  0.4328490000000 1.0
C      1  0.5177040000000  0.5216250000000  0.4167100000000 1.0
C      1  0.5885520000000  0.5291210000000  0.5004500000000 1.0
C      1  0.4596030000000  0.4670720000000  0.4944520000000 1.0
C      1  0.4816830000000  0.4225980000000  0.5452920000000 1.0
C      1  0.5804240000000  0.4910210000000  0.5278780000000 1.0
C      1  0.4213430000000  0.4820960000000  0.4645220000000 1.0
C      1  0.4262470000000  0.4472760000000  0.5151510000000 1.0
C      1  0.4706060000000  0.4754620000000  0.4670530000000 1.0
C      1  0.4185650000000  0.4938040000000  0.5321020000000 1.0
C      1  0.4852920000000  0.4569120000000  0.5749460000000 1.0
C      1  0.5034260000000  0.4089810000000  0.4737130000000 1.0
C      1  0.4974440000000  0.5306750000000  0.5860920000000 1.0
C      1  0.5351600000000  0.5741600000000  0.4638870000000 1.0
C      1  0.5161070000000  0.4855900000000  0.4560180000000 1.0
C      1  0.4754710000000  0.4118130000000  0.4646650000000 1.0
C      1  0.4779350000000  0.5362260000000  0.5153400000000 1.0
C      1  0.5495000000000  0.4575940000000  0.4396910000000 1.0
C      1  0.4318240000000  0.4794930000000  0.4911300000000 1.0
C      1  0.4644000000000  0.5235700000000  0.4289850000000 1.0
C      1  0.5885470000000  0.5001860000000  0.4999500000000 1.0
C      1  0.4789670000000  0.5303320000000  0.5448310000000 1.0
C      1  0.4736820000000  0.4288380000000  0.4413770000000 1.0
C      1  0.5048420000000  0.4275620000000  0.5521250000000 1.0
C      1  0.4563620000000  0.5015610000000  0.5700590000000 1.0
C      1  0.5205320000000  0.4815580000000  0.3984580000000 1.0
C      1  0.5141250000000  0.5397390000000  0.5645690000000 1.0
C      1  0.4807820000000  0.5632940000000  0.4244930000000 1.0
C      1  0.5039340000000  0.4971160000000  0.4329150000000 1.0
C      1  0.4789550000000  0.5765760000000  0.4759190000000 1.0
C      1  0.4658690000000  0.5722440000000  0.4502310000000 1.0
C      1  0.5239600000000  0.5205990000000  0.5177190000000 1.0
C      1  0.4283130000000  0.4525880000000  0.4604830000000 1.0
C      1  0.4552320000000  0.5682850000000  0.5297070000000 1.0
C      1  0.4510910000000  0.5382930000000  0.5562440000000 1.0
C      1  0.5456580000000  0.4335330000000  0.5100710000000 1.0
C      1  0.4527390000000  0.4188330000000  0.4836880000000 1.0
C      1  0.4813540000000  0.4800870000000  0.5919000000000 1.0
C      1  0.5504630000000  0.4259170000000  0.4814920000000 1.0
C      1  0.4482940000000  0.4454150000000  0.4400410000000 1.0
C      1  0.4666630000000  0.4444840000000  0.5541740000000 1.0
C      1  0.5709420000000  0.5388260000000  0.4786250000000 1.0
C      1  0.5025080000000  0.5012590000000  0.5894040000000 1.0
C      1  0.4737770000000  0.5716960000000  0.5530920000000 1.0
C      1  0.4317380000000  0.4908420000000  0.5701140000000 1.0
C      1  0.5272490000000  0.4375220000000  0.4394640000000 1.0
C      1  0.5094230000000  0.4501820000000  0.4897880000000 1.0
C      1  0.5000610000000  0.4630220000000  0.4651960000000 1.0
C      1  0.4387110000000  0.5528810000000  0.4838830000000 1.0
C      1  0.4654810000000  0.4350140000000  0.5035050000000 1.0
C      1  0.4288280000000  0.4365640000000  0.4860750000000 1.0
C      1  0.5166810000000  0.5026720000000  0.4964820000000 1.0
C      1  0.5520520000000  0.4461960000000  0.5353240000000 1.0
END
