TITL C-884129-4740-273 -12.0384453673069 125000 -12402.0278785097 0 0 84 (C1) n - 1
REM
REM in /home/nfs/bkarasulu/CARBON/AIRSS/Generating-Clusters/ReaxFF-fromJPCA2015/Units_Real/with-SteepDescent/Only-C1/SD-CG/Try1-3A/FIRE-CG
REM
REM
REM
REM
REM
REM ./C.cell (11c1c37f851c82e70ff6c80c92926a4b)
REM
REM compiler GCC version 9.2.1 20190827 (Red Hat 9.2.1-1)
REM options -cpp -mtune=generic -march=x86-64 -g -O0 -fpre-include=/usr/include/finclude/math-vector-fortran.h
REM seed 1908946472 414982419 102705272 1914025678 -165353322 1484209570 678971530 1840791480 -550842431 1907037729 1190712628 -964051772 1310523421 -139502979 864971393 1069152366 1742918405 1615304845 2123104109 1265633940 1287824431 4378095 41539184 -981499532 -1168086042 -656602597 2138028512 -2102834498 -2034567035 298427775 -880049225 1918520896 -77928448
REM
CELL 1.54180   50.00000   50.00000   50.00000   90.00000   90.00000   90.00000
LATT -1
SFAC C  
C      1  0.5607350000000  0.4644850000000  0.5460300000000 1.0
C      1  0.4830120000000  0.5181340000000  0.4175850000000 1.0
C      1  0.5383160000000  0.4830680000000  0.5500940000000 1.0
C      1  0.5148970000000  0.5209580000000  0.5730760000000 1.0
C      1  0.5142010000000  0.4678140000000  0.5598410000000 1.0
C      1  0.5170660000000  0.5517770000000  0.5070070000000 1.0
C      1  0.4898970000000  0.5105180000000  0.5768360000000 1.0
C      1  0.5173540000000  0.5728700000000  0.4643190000000 1.0
C      1  0.4249890000000  0.4776040000000  0.5083910000000 1.0
C      1  0.4308780000000  0.4727310000000  0.5372690000000 1.0
C      1  0.4885570000000  0.5634710000000  0.4695290000000 1.0
C      1  0.5459840000000  0.4452730000000  0.4453670000000 1.0
C      1  0.5344280000000  0.5326860000000  0.5575600000000 1.0
C      1  0.4859630000000  0.4712960000000  0.4267030000000 1.0
C      1  0.4461200000000  0.4651820000000  0.4930850000000 1.0
C      1  0.5847080000000  0.5201700000000  0.5103450000000 1.0
C      1  0.5343140000000  0.5493850000000  0.4555760000000 1.0
C      1  0.4259990000000  0.5331340000000  0.5417680000000 1.0
C      1  0.4865400000000  0.5400790000000  0.5404470000000 1.0
C      1  0.5653250000000  0.4510400000000  0.5229900000000 1.0
C      1  0.4596960000000  0.4609810000000  0.4375800000000 1.0
C      1  0.4822480000000  0.5629260000000  0.5383980000000 1.0
C      1  0.4795110000000  0.5519120000000  0.4411660000000 1.0
C      1  0.4156700000000  0.5044330000000  0.4962250000000 1.0
C      1  0.5014860000000  0.4209990000000  0.5002220000000 1.0
C      1  0.5702560000000  0.4692790000000  0.4735010000000 1.0
C      1  0.5518890000000  0.5093300000000  0.5614590000000 1.0
C      1  0.4426680000000  0.5636020000000  0.5001960000000 1.0
C      1  0.5333870000000  0.4676660000000  0.4344310000000 1.0
C      1  0.5260500000000  0.5861950000000  0.4884360000000 1.0
C      1  0.4467940000000  0.5090670000000  0.4532830000000 1.0
C      1  0.4450520000000  0.5432490000000  0.4798850000000 1.0
C      1  0.4721670000000  0.5314260000000  0.5630520000000 1.0
C      1  0.4904060000000  0.4810630000000  0.5690310000000 1.0
C      1  0.5785040000000  0.5165150000000  0.5515270000000 1.0
C      1  0.5845700000000  0.4704110000000  0.5324900000000 1.0
C      1  0.5450920000000  0.5653520000000  0.4953520000000 1.0
C      1  0.4150580000000  0.5168920000000  0.5210180000000 1.0
C      1  0.4732000000000  0.5294090000000  0.4902660000000 1.0
C      1  0.5104670000000  0.4428990000000  0.5446600000000 1.0
C      1  0.5233530000000  0.5340710000000  0.5287680000000 1.0
C      1  0.4562840000000  0.4387760000000  0.4846790000000 1.0
C      1  0.4699200000000  0.4840990000000  0.4982520000000 1.0
C      1  0.4628280000000  0.4710700000000  0.5650870000000 1.0
C      1  0.5413080000000  0.4512100000000  0.5061100000000 1.0
C      1  0.5903330000000  0.4989560000000  0.5308420000000 1.0
C      1  0.4454970000000  0.5197550000000  0.5600360000000 1.0
C      1  0.5201810000000  0.4882610000000  0.4732330000000 1.0
C      1  0.5373430000000  0.4961960000000  0.4490270000000 1.0
C      1  0.5101490000000  0.5804420000000  0.5131630000000 1.0
C      1  0.4421140000000  0.4909520000000  0.5585540000000 1.0
C      1  0.4452260000000  0.5449100000000  0.5232480000000 1.0
C      1  0.5615970000000  0.4961740000000  0.4672550000000 1.0
C      1  0.4283580000000  0.5209630000000  0.4741530000000 1.0
C      1  0.4811380000000  0.5821990000000  0.5175320000000 1.0
C      1  0.5210700000000  0.4934710000000  0.5207040000000 1.0
C      1  0.5253890000000  0.5267110000000  0.4402610000000 1.0
C      1  0.4722750000000  0.4242130000000  0.5044480000000 1.0
C      1  0.5284850000000  0.4773120000000  0.4983680000000 1.0
C      1  0.4395970000000  0.4814910000000  0.4415760000000 1.0
C      1  0.5127630000000  0.4227610000000  0.4732860000000 1.0
C      1  0.5541850000000  0.5454910000000  0.4769220000000 1.0
C      1  0.4703800000000  0.5269270000000  0.5196840000000 1.0
C      1  0.4979990000000  0.5051380000000  0.4642490000000 1.0
C      1  0.5589140000000  0.5186720000000  0.4908030000000 1.0
C      1  0.4901840000000  0.4623170000000  0.5058300000000 1.0
C      1  0.5025270000000  0.5390250000000  0.4266350000000 1.0
C      1  0.5610220000000  0.4422250000000  0.4833930000000 1.0
C      1  0.4680250000000  0.4401030000000  0.4578440000000 1.0
C      1  0.4647620000000  0.4313220000000  0.5316650000000 1.0
C      1  0.5416720000000  0.4270110000000  0.4664430000000 1.0
C      1  0.4495610000000  0.4521390000000  0.5460870000000 1.0
C      1  0.4868370000000  0.4478810000000  0.5328130000000 1.0
C      1  0.4619440000000  0.5304230000000  0.4340710000000 1.0
C      1  0.4988990000000  0.5397910000000  0.4848560000000 1.0
C      1  0.5354500000000  0.5162090000000  0.5108350000000 1.0
C      1  0.5831210000000  0.5407260000000  0.5317110000000 1.0
C      1  0.4724310000000  0.5038700000000  0.4757080000000 1.0
C      1  0.4959220000000  0.4345110000000  0.4531800000000 1.0
C      1  0.4867520000000  0.4988900000000  0.5235720000000 1.0
C      1  0.5076020000000  0.4531040000000  0.4320020000000 1.0
C      1  0.4676770000000  0.5758580000000  0.4923790000000 1.0
C      1  0.4953380000000  0.4977110000000  0.4350270000000 1.0
C      1  0.5201360000000  0.4313810000000  0.5197140000000 1.0
END
