TITL C-884139-6216-34 -960835.035293306 125000 -15240.1821537656 0 0 101 (C1) n - 1
REM
REM in /home/nfs/bkarasulu/CARBON/AIRSS/Generating-Clusters/ReaxFF-fromJPCA2015/Units_Real/with-SteepDescent/Only-C1/SD-CG/Try1-3A/FIRE-CG
REM
REM
REM
REM
REM
REM ./C.cell (11c1c37f851c82e70ff6c80c92926a4b)
REM
REM compiler GCC version 9.2.1 20190827 (Red Hat 9.2.1-1)
REM options -cpp -mtune=generic -march=x86-64 -g -O0 -fpre-include=/usr/include/finclude/math-vector-fortran.h
REM seed -829615764 -1138564055 -259605343 1470404307 -578550192 -1481237990 -1733988544 -1962462016 1824554472 -394962532 1198754377 838400272 -1292825642 2049056309 -200834426 1657309838 -1558019351 870425521 447108859 -1727138878 -528156908 1029912004 -1423767586 -1624108567 -92492023 -987580603 413709422 1259843791 984739912 686537966 -1933182812 -407210242 -1484027590
REM
CELL 1.54180   50.00000   50.00000   50.00000   90.00000   90.00000   90.00000
LATT -1
SFAC C  
C      1  0.5460770000000  0.4935190000000  0.4924490000000 1.0
C      1  0.5176710000000  0.5643600000000  0.5023730000000 1.0
C      1  0.4950400000000  0.5172440000000  0.5869580000000 1.0
C      1  0.4436280000000  0.4844430000000  0.5055990000000 1.0
C      1  0.5444330000000  0.5755260000000  0.5054240000000 1.0
C      1  0.4863140000000  0.5690070000000  0.5455270000000 1.0
C      1  0.4682170000000  0.5815330000000  0.4766940000000 1.0
C      1  0.5152460000000  0.5373190000000  0.4898520000000 1.0
C      1  0.5787810000000  0.5195390000000  0.5227900000000 1.0
C      1  0.4258080000000  0.5304690000000  0.4919950000000 1.0
C      1  0.4530230000000  0.5306120000000  0.5653910000000 1.0
C      1  0.5747060000000  0.4986350000000  0.4448000000000 1.0
C      1  0.5035870000000  0.4191130000000  0.5090540000000 1.0
C      1  0.5649070000000  0.4912990000000  0.4191760000000 1.0
C      1  0.5075410000000  0.4877890000000  0.4585460000000 1.0
C      1  0.5726780000000  0.5166410000000  0.5516360000000 1.0
C      1  0.4814090000000  0.4638850000000  0.4879940000000 1.0
C      1  0.4692840000000  0.4737650000000  0.5114440000000 1.0
C      1  0.4810830000000  0.5847190000000  0.5214690000000 1.0
C      1  0.4295150000000  0.4659320000000  0.5387670000000 1.0
C      1  0.4352630000000  0.4411160000000  0.5258360000000 1.0
C      1  0.5161270000000  0.4414940000000  0.4337780000000 1.0
C      1  0.4806080000000  0.4367090000000  0.5518960000000 1.0
C      1  0.4745270000000  0.4222880000000  0.5041280000000 1.0
C      1  0.5238630000000  0.5161550000000  0.5292200000000 1.0
C      1  0.5551600000000  0.5599870000000  0.5276030000000 1.0
C      1  0.4150270000000  0.4836170000000  0.4665530000000 1.0
C      1  0.5261830000000  0.4446820000000  0.5428570000000 1.0
C      1  0.5162610000000  0.4972150000000  0.5858350000000 1.0
C      1  0.4168990000000  0.5631710000000  0.5277870000000 1.0
C      1  0.5735940000000  0.4422520000000  0.5153010000000 1.0
C      1  0.4993050000000  0.4613030000000  0.4193020000000 1.0
C      1  0.4897470000000  0.5257130000000  0.4825680000000 1.0
C      1  0.4726590000000  0.4619230000000  0.4312500000000 1.0
C      1  0.5330970000000  0.4869580000000  0.4459940000000 1.0
C      1  0.4928140000000  0.5117190000000  0.5275820000000 1.0
C      1  0.5392830000000  0.4809620000000  0.4156830000000 1.0
C      1  0.5304400000000  0.4498790000000  0.5711120000000 1.0
C      1  0.4576040000000  0.5847590000000  0.5044090000000 1.0
C      1  0.5415720000000  0.5600640000000  0.4620560000000 1.0
C      1  0.4388560000000  0.5242190000000  0.4430080000000 1.0
C      1  0.4560350000000  0.4827070000000  0.4210860000000 1.0
C      1  0.5569620000000  0.4486690000000  0.4668390000000 1.0
C      1  0.4566510000000  0.4329280000000  0.4831860000000 1.0
C      1  0.4836120000000  0.4605870000000  0.5687580000000 1.0
C      1  0.4838550000000  0.5060390000000  0.4594580000000 1.0
C      1  0.5110350000000  0.5590720000000  0.5582700000000 1.0
C      1  0.5138430000000  0.5707260000000  0.4577960000000 1.0
C      1  0.5077210000000  0.4640990000000  0.4790770000000 1.0
C      1  0.5782560000000  0.4688470000000  0.5163980000000 1.0
C      1  0.5003480000000  0.5119320000000  0.4120670000000 1.0
C      1  0.5278910000000  0.4718370000000  0.4996480000000 1.0
C      1  0.5095210000000  0.4688500000000  0.5797480000000 1.0
C      1  0.4749480000000  0.5225430000000  0.5071250000000 1.0
C      1  0.5100280000000  0.5341810000000  0.4295320000000 1.0
C      1  0.4711830000000  0.5069610000000  0.4127920000000 1.0
C      1  0.5433770000000  0.5075220000000  0.5807180000000 1.0
C      1  0.4365630000000  0.4929770000000  0.4447560000000 1.0
C      1  0.5564960000000  0.4798870000000  0.4635480000000 1.0
C      1  0.4476470000000  0.5121910000000  0.5017140000000 1.0
C      1  0.4417680000000  0.5429950000000  0.4641330000000 1.0
C      1  0.5542490000000  0.4348530000000  0.4925200000000 1.0
C      1  0.5270540000000  0.4169120000000  0.4655570000000 1.0
C      1  0.4651990000000  0.4844160000000  0.5620560000000 1.0
C      1  0.4663770000000  0.5255030000000  0.4345170000000 1.0
C      1  0.4948340000000  0.5537070000000  0.4437150000000 1.0
C      1  0.5604310000000  0.4461480000000  0.5716890000000 1.0
C      1  0.5728350000000  0.4406590000000  0.5452680000000 1.0
C      1  0.4342240000000  0.5744930000000  0.5172030000000 1.0
C      1  0.5742840000000  0.4945590000000  0.5080800000000 1.0
C      1  0.5394240000000  0.5405610000000  0.4398170000000 1.0
C      1  0.5531130000000  0.5323040000000  0.5673240000000 1.0
C      1  0.5117300000000  0.4854520000000  0.4071120000000 1.0
C      1  0.5595200000000  0.5604120000000  0.4857060000000 1.0
C      1  0.4211760000000  0.5357420000000  0.5258760000000 1.0
C      1  0.4623720000000  0.4293170000000  0.5303030000000 1.0
C      1  0.5352580000000  0.5448010000000  0.5462590000000 1.0
C      1  0.4970950000000  0.5877280000000  0.4759910000000 1.0
C      1  0.5722650000000  0.5451310000000  0.5096610000000 1.0
C      1  0.4349550000000  0.4899070000000  0.5517040000000 1.0
C      1  0.4121400000000  0.5074530000000  0.4809370000000 1.0
C      1  0.5059120000000  0.4361520000000  0.4600630000000 1.0
C      1  0.4241880000000  0.4689490000000  0.4904980000000 1.0
C      1  0.4649590000000  0.5591360000000  0.4594710000000 1.0
C      1  0.4326130000000  0.5193580000000  0.5472800000000 1.0
C      1  0.5042210000000  0.4259190000000  0.5374450000000 1.0
C      1  0.4817740000000  0.4864140000000  0.5345430000000 1.0
C      1  0.5351300000000  0.4916030000000  0.5398410000000 1.0
C      1  0.4662480000000  0.4575160000000  0.4644700000000 1.0
C      1  0.5277990000000  0.4682260000000  0.5270590000000 1.0
C      1  0.5326330000000  0.5176970000000  0.5016500000000 1.0
C      1  0.5608910000000  0.5232870000000  0.4425800000000 1.0
C      1  0.5297930000000  0.4182420000000  0.4945120000000 1.0
C      1  0.5436700000000  0.4330030000000  0.4461800000000 1.0
C      1  0.4703250000000  0.5547620000000  0.5663240000000 1.0
C      1  0.4955090000000  0.5462830000000  0.5796840000000 1.0
C      1  0.5021710000000  0.5863430000000  0.5031650000000 1.0
C      1  0.4601880000000  0.4865130000000  0.4621740000000 1.0
C      1  0.4686580000000  0.5098720000000  0.5781500000000 1.0
C      1  0.4321690000000  0.4412260000000  0.4962080000000 1.0
C      1  0.5570350000000  0.4923590000000  0.5590660000000 1.0
END
