TITL C-883741-3679-395 22.1303643605668 125000 -19530.5370749788 0 0 132 (C1) n - 1
REM
REM in /home/nfs/bkarasulu/CARBON/AIRSS/Generating-Clusters/ReaxFF-fromJPCA2015/Units_Real/with-SteepDescent/Only-C1/SD-CG/Try1-3A/FIRE-CG
REM
REM
REM
REM
REM
REM ./C.cell (11c1c37f851c82e70ff6c80c92926a4b)
REM
REM compiler GCC version 9.2.1 20190827 (Red Hat 9.2.1-1)
REM options -cpp -mtune=generic -march=x86-64 -g -O0 -fpre-include=/usr/include/finclude/math-vector-fortran.h
REM seed 229018838 -307349859 -1508038459 -2011240633 1164558818 860288717 2141883203 1299958111 -289386431 -1793061193 -666300283 227616994 1508791327 204739470 -1851839408 -521523538 -281198754 -1663259429 -1973997424 1733050486 791353671 379677457 539367155 902569057 -640860096 -1784660726 -213588695 686307215 1063667930 -1165867508 -913027626 -1394652517 2034018344
REM
CELL 1.54180   50.00000   50.00000   50.00000   90.00000   90.00000   90.00000
LATT -1
SFAC C  
C      1  0.4986850000000  0.5713460000000  0.4469100000000 1.0
C      1  0.5024570000000  0.5520560000000  0.5076440000000 1.0
C      1  0.4809760000000  0.4933780000000  0.4989760000000 1.0
C      1  0.5175790000000  0.4692190000000  0.5211070000000 1.0
C      1  0.4300960000000  0.5032500000000  0.4280350000000 1.0
C      1  0.5524110000000  0.5400800000000  0.4881290000000 1.0
C      1  0.4940640000000  0.5208260000000  0.4380300000000 1.0
C      1  0.4952460000000  0.5079140000000  0.4774900000000 1.0
C      1  0.4826090000000  0.4568250000000  0.4641160000000 1.0
C      1  0.4542440000000  0.5066990000000  0.4952750000000 1.0
C      1  0.4830060000000  0.4782540000000  0.5840010000000 1.0
C      1  0.4678650000000  0.4493850000000  0.5799110000000 1.0
C      1  0.5685650000000  0.4862110000000  0.4687280000000 1.0
C      1  0.5933240000000  0.4590050000000  0.4820140000000 1.0
C      1  0.5322300000000  0.4339270000000  0.5539240000000 1.0
C      1  0.4776170000000  0.5678530000000  0.5808290000000 1.0
C      1  0.5255420000000  0.5111590000000  0.5196520000000 1.0
C      1  0.4060010000000  0.4220960000000  0.4728590000000 1.0
C      1  0.4869680000000  0.4317910000000  0.5701850000000 1.0
C      1  0.5927430000000  0.5171690000000  0.4712280000000 1.0
C      1  0.5487450000000  0.4317120000000  0.5297130000000 1.0
C      1  0.4906460000000  0.4115780000000  0.4831120000000 1.0
C      1  0.5103620000000  0.5867470000000  0.5533490000000 1.0
C      1  0.5523200000000  0.4252290000000  0.4784200000000 1.0
C      1  0.4040980000000  0.4608540000000  0.4877370000000 1.0
C      1  0.5430780000000  0.5956670000000  0.5129750000000 1.0
C      1  0.5317220000000  0.4904360000000  0.4487240000000 1.0
C      1  0.5694530000000  0.4524310000000  0.5298630000000 1.0
C      1  0.5660640000000  0.4781990000000  0.4234640000000 1.0
C      1  0.4467290000000  0.4659930000000  0.4248710000000 1.0
C      1  0.4594240000000  0.5397910000000  0.4149480000000 1.0
C      1  0.4619660000000  0.5129010000000  0.4023810000000 1.0
C      1  0.4601360000000  0.5363260000000  0.4912670000000 1.0
C      1  0.5477380000000  0.5526350000000  0.5641910000000 1.0
C      1  0.4562140000000  0.5494600000000  0.5737930000000 1.0
C      1  0.5746090000000  0.5262620000000  0.4508870000000 1.0
C      1  0.5238060000000  0.5673170000000  0.5716390000000 1.0
C      1  0.4330870000000  0.4947840000000  0.4736990000000 1.0
C      1  0.5569890000000  0.5486900000000  0.4445990000000 1.0
C      1  0.4484550000000  0.5094280000000  0.5262880000000 1.0
C      1  0.5421070000000  0.5214140000000  0.4133040000000 1.0
C      1  0.4320260000000  0.5139610000000  0.5797050000000 1.0
C      1  0.4275390000000  0.5292670000000  0.5345310000000 1.0
C      1  0.5113530000000  0.4098310000000  0.5037720000000 1.0
C      1  0.5715070000000  0.4447070000000  0.4670270000000 1.0
C      1  0.5888520000000  0.5119360000000  0.5359150000000 1.0
C      1  0.5138280000000  0.4699330000000  0.5903990000000 1.0
C      1  0.4988940000000  0.5826940000000  0.5076730000000 1.0
C      1  0.5363860000000  0.4867820000000  0.5339030000000 1.0
C      1  0.5812730000000  0.5350580000000  0.4930950000000 1.0
C      1  0.4190190000000  0.4090710000000  0.4967120000000 1.0
C      1  0.5158250000000  0.5260670000000  0.5554840000000 1.0
C      1  0.5395900000000  0.4204720000000  0.5043500000000 1.0
C      1  0.5893850000000  0.4626240000000  0.5111280000000 1.0
C      1  0.4279400000000  0.4668900000000  0.5307020000000 1.0
C      1  0.4395850000000  0.5115000000000  0.4500910000000 1.0
C      1  0.4961740000000  0.5281950000000  0.5996090000000 1.0
C      1  0.5377680000000  0.5469780000000  0.4214470000000 1.0
C      1  0.5036040000000  0.4111510000000  0.4563100000000 1.0
C      1  0.4587170000000  0.5495670000000  0.4654830000000 1.0
C      1  0.5972890000000  0.4869170000000  0.4709740000000 1.0
C      1  0.4612860000000  0.5782330000000  0.5369010000000 1.0
C      1  0.5097500000000  0.5633500000000  0.4202180000000 1.0
C      1  0.4840760000000  0.4456840000000  0.5151340000000 1.0
C      1  0.4129760000000  0.5280910000000  0.5074360000000 1.0
C      1  0.4756790000000  0.5223160000000  0.5326540000000 1.0
C      1  0.5459890000000  0.4930900000000  0.4084350000000 1.0
C      1  0.4961300000000  0.5071210000000  0.5182500000000 1.0
C      1  0.4080570000000  0.4772070000000  0.5099880000000 1.0
C      1  0.5546950000000  0.5819020000000  0.4899070000000 1.0
C      1  0.4898840000000  0.4694550000000  0.5311440000000 1.0
C      1  0.4186630000000  0.5520870000000  0.4949930000000 1.0
C      1  0.4212980000000  0.5075180000000  0.5554800000000 1.0
C      1  0.4119430000000  0.5016830000000  0.4935490000000 1.0
C      1  0.5794250000000  0.5354270000000  0.5222350000000 1.0
C      1  0.5174140000000  0.5948440000000  0.5261110000000 1.0
C      1  0.4624280000000  0.4234290000000  0.4871490000000 1.0
C      1  0.4894840000000  0.5139860000000  0.5568630000000 1.0
C      1  0.4724380000000  0.5752840000000  0.4602180000000 1.0
C      1  0.5026470000000  0.5560010000000  0.5900800000000 1.0
C      1  0.5586310000000  0.5023580000000  0.5797060000000 1.0
C      1  0.4769500000000  0.5045140000000  0.4539260000000 1.0
C      1  0.4790370000000  0.4304800000000  0.4298450000000 1.0
C      1  0.4967830000000  0.4530390000000  0.4887160000000 1.0
C      1  0.5841390000000  0.4912120000000  0.5141410000000 1.0
C      1  0.4945380000000  0.4196350000000  0.5251710000000 1.0
C      1  0.4715760000000  0.4529720000000  0.4167370000000 1.0
C      1  0.4291050000000  0.5762820000000  0.4851730000000 1.0
C      1  0.4429940000000  0.4876520000000  0.5455510000000 1.0
C      1  0.5342980000000  0.4148500000000  0.4561890000000 1.0
C      1  0.5597250000000  0.4749850000000  0.5433690000000 1.0
C      1  0.5248080000000  0.5391100000000  0.5305390000000 1.0
C      1  0.4706160000000  0.5881170000000  0.5098710000000 1.0
C      1  0.5059950000000  0.4201940000000  0.5532760000000 1.0
C      1  0.5598610000000  0.5762480000000  0.5177010000000 1.0
C      1  0.5243980000000  0.4793880000000  0.4239950000000 1.0
C      1  0.4736600000000  0.5451980000000  0.5151370000000 1.0
C      1  0.5351610000000  0.4551650000000  0.5741880000000 1.0
C      1  0.5033390000000  0.5429840000000  0.4552850000000 1.0
C      1  0.4432890000000  0.4201300000000  0.5093710000000 1.0
C      1  0.5190360000000  0.4687670000000  0.4922690000000 1.0
C      1  0.4773180000000  0.5059350000000  0.5978000000000 1.0
C      1  0.4850880000000  0.5522890000000  0.4126170000000 1.0
C      1  0.4894590000000  0.5093300000000  0.4116010000000 1.0
C      1  0.5018080000000  0.5363810000000  0.4818420000000 1.0
C      1  0.4463850000000  0.5374370000000  0.4425690000000 1.0
C      1  0.4779800000000  0.4861400000000  0.5550100000000 1.0
C      1  0.4429620000000  0.4896780000000  0.4077700000000 1.0
C      1  0.4375320000000  0.4396950000000  0.5332990000000 1.0
C      1  0.4487560000000  0.5532910000000  0.5458780000000 1.0
C      1  0.5222190000000  0.4927550000000  0.4752850000000 1.0
C      1  0.4815850000000  0.5848970000000  0.5574540000000 1.0
C      1  0.4855850000000  0.4787560000000  0.4458290000000 1.0
C      1  0.4495920000000  0.4433950000000  0.5586880000000 1.0
C      1  0.5593870000000  0.4968980000000  0.4453480000000 1.0
C      1  0.4566090000000  0.4458720000000  0.4684370000000 1.0
C      1  0.4945630000000  0.4786800000000  0.4177470000000 1.0
C      1  0.5833130000000  0.5095700000000  0.5652160000000 1.0
C      1  0.5566000000000  0.4740160000000  0.5700500000000 1.0
C      1  0.5390680000000  0.5267930000000  0.5733860000000 1.0
C      1  0.5416720000000  0.4351780000000  0.4383310000000 1.0
C      1  0.5024020000000  0.4300770000000  0.4346520000000 1.0
C      1  0.5556800000000  0.5520040000000  0.5339220000000 1.0
C      1  0.5471150000000  0.5615550000000  0.4699780000000 1.0
C      1  0.4102620000000  0.4505840000000  0.4629920000000 1.0
C      1  0.5637570000000  0.4521830000000  0.4382960000000 1.0
C      1  0.5398860000000  0.5115940000000  0.4924660000000 1.0
C      1  0.5633440000000  0.4946350000000  0.4945760000000 1.0
C      1  0.5322900000000  0.4848810000000  0.6040490000000 1.0
C      1  0.4539900000000  0.5245100000000  0.5926020000000 1.0
C      1  0.4366890000000  0.4639500000000  0.4557040000000 1.0
C      1  0.4583720000000  0.5871620000000  0.4831270000000 1.0
END
