TITL C-883730-8503-415 17.2232758590819 125000 -11076.2130614659 0 0 76 (C1) n - 1
REM
REM in /home/nfs/bkarasulu/CARBON/AIRSS/Generating-Clusters/ReaxFF-fromJPCA2015/Units_Real/with-SteepDescent/Only-C1/SD-CG/Try1-3A/FIRE-CG
REM
REM
REM
REM
REM
REM ./C.cell (11c1c37f851c82e70ff6c80c92926a4b)
REM
REM compiler GCC version 9.2.1 20190827 (Red Hat 9.2.1-1)
REM options -cpp -mtune=generic -march=x86-64 -g -O0 -fpre-include=/usr/include/finclude/math-vector-fortran.h
REM seed -80723068 -1590543056 1017379647 587456171 470579801 2081584289 -1907929405 -1438166584 -1643364793 -696469135 -1022001453 -1381497133 -526916338 1503823561 -2071999508 -512222176 2122074415 1498682394 520662592 459795124 1601996600 932756671 1261042741 225357727 2063131627 -752310228 -363821630 -2022717317 1176148404 874143360 1734825940 -434197916 481090857
REM
CELL 1.54180   50.00000   50.00000   50.00000   90.00000   90.00000   90.00000
LATT -1
SFAC C  
C      1  0.5564850000000  0.4437180000000  0.5279360000000 1.0
C      1  0.5333600000000  0.4261530000000  0.5217390000000 1.0
C      1  0.4819810000000  0.4956400000000  0.4299220000000 1.0
C      1  0.5737700000000  0.5140440000000  0.5418610000000 1.0
C      1  0.5214330000000  0.5667140000000  0.4602870000000 1.0
C      1  0.5352770000000  0.4707490000000  0.5626040000000 1.0
C      1  0.4896620000000  0.4683470000000  0.4760550000000 1.0
C      1  0.4308920000000  0.5396930000000  0.4663630000000 1.0
C      1  0.5157160000000  0.5731800000000  0.4875850000000 1.0
C      1  0.5232200000000  0.5229470000000  0.4378120000000 1.0
C      1  0.4343090000000  0.4891130000000  0.5206230000000 1.0
C      1  0.4283610000000  0.4993520000000  0.4945720000000 1.0
C      1  0.4746510000000  0.5411260000000  0.4741280000000 1.0
C      1  0.4477070000000  0.4460600000000  0.4759090000000 1.0
C      1  0.4771050000000  0.4950370000000  0.4757610000000 1.0
C      1  0.4822380000000  0.4989660000000  0.5349040000000 1.0
C      1  0.5462950000000  0.5521230000000  0.4670150000000 1.0
C      1  0.5106670000000  0.4964000000000  0.4343910000000 1.0
C      1  0.5196000000000  0.5194320000000  0.4864450000000 1.0
C      1  0.4430380000000  0.5677120000000  0.4706120000000 1.0
C      1  0.4210740000000  0.5270330000000  0.4914900000000 1.0
C      1  0.5775480000000  0.5074220000000  0.4907480000000 1.0
C      1  0.4521970000000  0.5013220000000  0.5672010000000 1.0
C      1  0.4922710000000  0.5213360000000  0.5206430000000 1.0
C      1  0.5503180000000  0.4787340000000  0.4591990000000 1.0
C      1  0.5074760000000  0.5473500000000  0.4419210000000 1.0
C      1  0.5159090000000  0.4651510000000  0.4895530000000 1.0
C      1  0.4310070000000  0.5040450000000  0.5461580000000 1.0
C      1  0.4372080000000  0.5322440000000  0.5418990000000 1.0
C      1  0.5090950000000  0.5741390000000  0.5150420000000 1.0
C      1  0.5626060000000  0.5050980000000  0.4655970000000 1.0
C      1  0.5718750000000  0.4843410000000  0.5108500000000 1.0
C      1  0.5048400000000  0.4309110000000  0.5256410000000 1.0
C      1  0.4654100000000  0.4562600000000  0.5467610000000 1.0
C      1  0.4856450000000  0.4501900000000  0.4486810000000 1.0
C      1  0.5537810000000  0.5414350000000  0.5176550000000 1.0
C      1  0.4787820000000  0.5442770000000  0.4451260000000 1.0
C      1  0.5212520000000  0.5208780000000  0.5545380000000 1.0
C      1  0.5470870000000  0.5290720000000  0.5446970000000 1.0
C      1  0.4423520000000  0.5187310000000  0.4505800000000 1.0
C      1  0.5090570000000  0.4755940000000  0.5142670000000 1.0
C      1  0.4658250000000  0.5202900000000  0.4338230000000 1.0
C      1  0.5135500000000  0.4458500000000  0.4510610000000 1.0
C      1  0.4464240000000  0.4940810000000  0.4691230000000 1.0
C      1  0.4685810000000  0.4695890000000  0.4353560000000 1.0
C      1  0.4923410000000  0.5180780000000  0.4776740000000 1.0
C      1  0.4808210000000  0.5761250000000  0.5096280000000 1.0
C      1  0.4472470000000  0.4661180000000  0.4550080000000 1.0
C      1  0.4648150000000  0.4305660000000  0.4936500000000 1.0
C      1  0.4793490000000  0.5471680000000  0.5176670000000 1.0
C      1  0.4656100000000  0.4580960000000  0.4954130000000 1.0
C      1  0.5178030000000  0.5043970000000  0.5083120000000 1.0
C      1  0.4632410000000  0.5822880000000  0.4860620000000 1.0
C      1  0.5100150000000  0.5552230000000  0.5431420000000 1.0
C      1  0.5615250000000  0.4624950000000  0.5511760000000 1.0
C      1  0.5776720000000  0.5251220000000  0.5137060000000 1.0
C      1  0.5771370000000  0.4853570000000  0.5421070000000 1.0
C      1  0.4342460000000  0.5408720000000  0.5135780000000 1.0
C      1  0.5259330000000  0.4726140000000  0.4447310000000 1.0
C      1  0.4929470000000  0.4465350000000  0.5486860000000 1.0
C      1  0.5034460000000  0.4969800000000  0.5558230000000 1.0
C      1  0.5389480000000  0.5388460000000  0.4923490000000 1.0
C      1  0.4667280000000  0.4765980000000  0.5663080000000 1.0
C      1  0.4610060000000  0.4759620000000  0.5238000000000 1.0
C      1  0.5634110000000  0.4558800000000  0.5030000000000 1.0
C      1  0.4930830000000  0.4253280000000  0.4988290000000 1.0
C      1  0.4602610000000  0.5305300000000  0.5604000000000 1.0
C      1  0.5123510000000  0.4259980000000  0.4751850000000 1.0
C      1  0.5439650000000  0.4951850000000  0.5189570000000 1.0
C      1  0.5341760000000  0.4159320000000  0.4927350000000 1.0
C      1  0.4588490000000  0.5446680000000  0.4986530000000 1.0
C      1  0.5488650000000  0.5270460000000  0.4515630000000 1.0
C      1  0.5441430000000  0.4600590000000  0.4812570000000 1.0
C      1  0.5064490000000  0.4673610000000  0.5650190000000 1.0
C      1  0.5295380000000  0.4771060000000  0.5339560000000 1.0
C      1  0.4871420000000  0.5435900000000  0.5574890000000 1.0
END
