TITL C-884138-6203-65 52.1763041855957 125000 -29607.3109624027 0 0 200 (C1) n - 1
REM
REM in /home/nfs/bkarasulu/CARBON/AIRSS/Generating-Clusters/ReaxFF-fromJPCA2015/Units_Real/with-SteepDescent/Only-C1/SD-CG/Try1-3A/FIRE-CG
REM
REM
REM
REM
REM
REM ./C.cell (11c1c37f851c82e70ff6c80c92926a4b)
REM
REM compiler GCC version 9.2.1 20190827 (Red Hat 9.2.1-1)
REM options -cpp -mtune=generic -march=x86-64 -g -O0 -fpre-include=/usr/include/finclude/math-vector-fortran.h
REM seed -573986602 -1086354746 -228736883 -227914704 -656955719 1030923139 -1390368008 -1507502255 1064246058 470533029 1528544251 703335993 1486982637 261351976 -877662569 -1517787828 -579752606 -1613075325 1459296115 1628112224 1646427184 1484718207 515488344 2106071105 170666447 1281095520 -1103748705 -1067054195 1343068900 -1429750609 1660970377 -911950166 882708628
REM
CELL 1.54180   50.00000   50.00000   50.00000   90.00000   90.00000   90.00000
LATT -1
SFAC C  
C      1  0.5013650000000  0.4492600000000  0.5897500000000 1.0
C      1  0.5484180000000  0.3987460000000  0.4956060000000 1.0
C      1  0.5153020000000  0.5687980000000  0.4923120000000 1.0
C      1  0.4764710000000  0.5204210000000  0.5375070000000 1.0
C      1  0.5490660000000  0.4411560000000  0.4737260000000 1.0
C      1  0.5615090000000  0.5557410000000  0.5061780000000 1.0
C      1  0.4231250000000  0.5807020000000  0.4856540000000 1.0
C      1  0.4862810000000  0.4998170000000  0.5193400000000 1.0
C      1  0.4878530000000  0.5263770000000  0.4680960000000 1.0
C      1  0.4930890000000  0.3977720000000  0.4778060000000 1.0
C      1  0.4763210000000  0.4907150000000  0.6119020000000 1.0
C      1  0.4499350000000  0.4361240000000  0.4086640000000 1.0
C      1  0.5652440000000  0.4795670000000  0.5124820000000 1.0
C      1  0.5927660000000  0.4668800000000  0.5078230000000 1.0
C      1  0.5101080000000  0.4986940000000  0.5021270000000 1.0
C      1  0.4389070000000  0.5115520000000  0.3935090000000 1.0
C      1  0.5195560000000  0.4415850000000  0.4169180000000 1.0
C      1  0.6027870000000  0.4247360000000  0.4806030000000 1.0
C      1  0.5562900000000  0.4279790000000  0.4992080000000 1.0
C      1  0.4935190000000  0.5145290000000  0.6142070000000 1.0
C      1  0.5452500000000  0.5276710000000  0.5412500000000 1.0
C      1  0.5858490000000  0.4351780000000  0.5030130000000 1.0
C      1  0.3971400000000  0.4485140000000  0.5132140000000 1.0
C      1  0.4678920000000  0.4333020000000  0.4509450000000 1.0
C      1  0.5187360000000  0.6006680000000  0.4605900000000 1.0
C      1  0.5895230000000  0.4661720000000  0.4591490000000 1.0
C      1  0.4903300000000  0.5988750000000  0.4474940000000 1.0
C      1  0.4305860000000  0.4127510000000  0.4929750000000 1.0
C      1  0.5362890000000  0.5694850000000  0.4046390000000 1.0
C      1  0.5018250000000  0.5940780000000  0.5663630000000 1.0
C      1  0.5066200000000  0.3949610000000  0.4182970000000 1.0
C      1  0.5686860000000  0.4804450000000  0.4422370000000 1.0
C      1  0.4402830000000  0.4586280000000  0.4877190000000 1.0
C      1  0.4247910000000  0.5463490000000  0.5201820000000 1.0
C      1  0.5531820000000  0.5493040000000  0.4063880000000 1.0
C      1  0.5234060000000  0.3878520000000  0.4360520000000 1.0
C      1  0.6132840000000  0.5074710000000  0.4785650000000 1.0
C      1  0.4571570000000  0.5449030000000  0.5328080000000 1.0
C      1  0.5139710000000  0.4662010000000  0.4310630000000 1.0
C      1  0.5991070000000  0.4717400000000  0.5379590000000 1.0
C      1  0.6037560000000  0.5264060000000  0.5365310000000 1.0
C      1  0.5156400000000  0.4487250000000  0.5000520000000 1.0
C      1  0.4768590000000  0.5518130000000  0.4330200000000 1.0
C      1  0.5235460000000  0.5428020000000  0.5389110000000 1.0
C      1  0.5570050000000  0.5838460000000  0.5647290000000 1.0
C      1  0.4243540000000  0.4549650000000  0.5791040000000 1.0
C      1  0.4645680000000  0.4813730000000  0.4495480000000 1.0
C      1  0.5591870000000  0.4342050000000  0.4290070000000 1.0
C      1  0.4841050000000  0.4765630000000  0.4702370000000 1.0
C      1  0.4242010000000  0.5305920000000  0.4588960000000 1.0
C      1  0.4708700000000  0.4490620000000  0.5300720000000 1.0
C      1  0.4428920000000  0.5570090000000  0.5564430000000 1.0
C      1  0.4232010000000  0.4399150000000  0.5003140000000 1.0
C      1  0.5738730000000  0.5182270000000  0.4824940000000 1.0
C      1  0.4981490000000  0.4298330000000  0.5677540000000 1.0
C      1  0.4554370000000  0.5460220000000  0.5923410000000 1.0
C      1  0.5445480000000  0.4218250000000  0.5393230000000 1.0
C      1  0.5662220000000  0.4421300000000  0.5373960000000 1.0
C      1  0.3915220000000  0.5067020000000  0.5329090000000 1.0
C      1  0.4955950000000  0.5913630000000  0.4194160000000 1.0
C      1  0.5002690000000  0.5082870000000  0.4348410000000 1.0
C      1  0.4787630000000  0.5654990000000  0.5301170000000 1.0
C      1  0.5402410000000  0.4684300000000  0.4704590000000 1.0
C      1  0.5409930000000  0.5739230000000  0.5863060000000 1.0
C      1  0.5337870000000  0.5318970000000  0.4679860000000 1.0
C      1  0.3880910000000  0.4965730000000  0.5044280000000 1.0
C      1  0.5048570000000  0.5284720000000  0.3919760000000 1.0
C      1  0.5488140000000  0.4640800000000  0.5284050000000 1.0
C      1  0.5208710000000  0.4295750000000  0.5216350000000 1.0
C      1  0.4317980000000  0.5308700000000  0.5840070000000 1.0
C      1  0.5222860000000  0.4669020000000  0.5402270000000 1.0
C      1  0.5374010000000  0.5829690000000  0.4462780000000 1.0
C      1  0.5199200000000  0.5576270000000  0.4614620000000 1.0
C      1  0.4366900000000  0.5796900000000  0.4582100000000 1.0
C      1  0.4024010000000  0.5347580000000  0.5345440000000 1.0
C      1  0.5439590000000  0.4177510000000  0.5688960000000 1.0
C      1  0.5894790000000  0.4365290000000  0.4563380000000 1.0
C      1  0.4600710000000  0.4144920000000  0.4298440000000 1.0
C      1  0.6003190000000  0.4982680000000  0.5476340000000 1.0
C      1  0.6026030000000  0.5351490000000  0.5646440000000 1.0
C      1  0.4465810000000  0.4351760000000  0.5362720000000 1.0
C      1  0.5024300000000  0.5026490000000  0.4067170000000 1.0
C      1  0.5281970000000  0.4563320000000  0.5991340000000 1.0
C      1  0.5145200000000  0.5856980000000  0.5922390000000 1.0
C      1  0.4256540000000  0.4164450000000  0.4636360000000 1.0
C      1  0.5675950000000  0.4917700000000  0.4003030000000 1.0
C      1  0.5600680000000  0.5303350000000  0.5187380000000 1.0
C      1  0.4981720000000  0.5650560000000  0.6059850000000 1.0
C      1  0.4841430000000  0.4702850000000  0.4281660000000 1.0
C      1  0.5010830000000  0.4437280000000  0.5402540000000 1.0
C      1  0.5773010000000  0.5735550000000  0.5469600000000 1.0
C      1  0.4988400000000  0.5009090000000  0.4622460000000 1.0
C      1  0.4473200000000  0.5840390000000  0.5024940000000 1.0
C      1  0.4321950000000  0.5040250000000  0.5413600000000 1.0
C      1  0.5673270000000  0.5717660000000  0.4488210000000 1.0
C      1  0.4209060000000  0.4432430000000  0.5532200000000 1.0
C      1  0.4737150000000  0.6167060000000  0.5321990000000 1.0
C      1  0.4132510000000  0.5608810000000  0.5035490000000 1.0
C      1  0.4194920000000  0.5112000000000  0.4131260000000 1.0
C      1  0.4749790000000  0.5059120000000  0.5631010000000 1.0
C      1  0.4450000000000  0.4347860000000  0.5920450000000 1.0
C      1  0.4093380000000  0.4613800000000  0.4316660000000 1.0
C      1  0.4904810000000  0.5691090000000  0.5573730000000 1.0
C      1  0.4514860000000  0.5093780000000  0.4978550000000 1.0
C      1  0.5966130000000  0.5534530000000  0.5469260000000 1.0
C      1  0.5222120000000  0.6147190000000  0.5370690000000 1.0
C      1  0.4195780000000  0.5245320000000  0.5571140000000 1.0
C      1  0.4812240000000  0.5411950000000  0.6079990000000 1.0
C      1  0.4257950000000  0.5028390000000  0.5955520000000 1.0
C      1  0.6100930000000  0.5277130000000  0.4560390000000 1.0
C      1  0.3967890000000  0.5252160000000  0.4619610000000 1.0
C      1  0.5401600000000  0.5249580000000  0.5977350000000 1.0
C      1  0.5252680000000  0.5907690000000  0.4179850000000 1.0
C      1  0.5445900000000  0.5048740000000  0.5552200000000 1.0
C      1  0.5481800000000  0.6027020000000  0.5441800000000 1.0
C      1  0.4425510000000  0.4092250000000  0.5473730000000 1.0
C      1  0.5655850000000  0.4843930000000  0.5938280000000 1.0
C      1  0.5841690000000  0.4976540000000  0.4237290000000 1.0
C      1  0.4271060000000  0.5038190000000  0.5125070000000 1.0
C      1  0.4553550000000  0.4109450000000  0.5727680000000 1.0
C      1  0.4955890000000  0.4315830000000  0.4016780000000 1.0
C      1  0.4750010000000  0.4518890000000  0.4070970000000 1.0
C      1  0.5249120000000  0.4753080000000  0.4942990000000 1.0
C      1  0.4808730000000  0.5684390000000  0.4093620000000 1.0
C      1  0.5183490000000  0.6180820000000  0.5071490000000 1.0
C      1  0.5689990000000  0.5924460000000  0.5259930000000 1.0
C      1  0.5207780000000  0.4891230000000  0.5553420000000 1.0
C      1  0.4870290000000  0.4266740000000  0.4697820000000 1.0
C      1  0.5290700000000  0.5485260000000  0.5857430000000 1.0
C      1  0.4974670000000  0.6160260000000  0.5506210000000 1.0
C      1  0.5502370000000  0.4399610000000  0.5878550000000 1.0
C      1  0.5340820000000  0.5299170000000  0.3961760000000 1.0
C      1  0.4983250000000  0.4930420000000  0.5711060000000 1.0
C      1  0.4947320000000  0.5481570000000  0.4539150000000 1.0
C      1  0.4941020000000  0.4511130000000  0.4810550000000 1.0
C      1  0.4752930000000  0.3990300000000  0.5260380000000 1.0
C      1  0.4603670000000  0.5703530000000  0.5745910000000 1.0
C      1  0.3873950000000  0.5016400000000  0.4501250000000 1.0
C      1  0.3989510000000  0.4583600000000  0.5414280000000 1.0
C      1  0.4806630000000  0.4085930000000  0.5588190000000 1.0
C      1  0.4553150000000  0.3986800000000  0.5032280000000 1.0
C      1  0.5192010000000  0.5461820000000  0.5105710000000 1.0
C      1  0.4053940000000  0.4917130000000  0.4298220000000 1.0
C      1  0.4591690000000  0.5278700000000  0.3904250000000 1.0
C      1  0.5707950000000  0.5458130000000  0.4337450000000 1.0
C      1  0.5106890000000  0.5483890000000  0.5633730000000 1.0
C      1  0.4815430000000  0.5461410000000  0.3894990000000 1.0
C      1  0.4371710000000  0.4857480000000  0.4924660000000 1.0
C      1  0.5381860000000  0.4834400000000  0.6050560000000 1.0
C      1  0.5477850000000  0.4425330000000  0.4065720000000 1.0
C      1  0.5607410000000  0.4248740000000  0.4534210000000 1.0
C      1  0.4867190000000  0.4747650000000  0.5878130000000 1.0
C      1  0.4834800000000  0.4062050000000  0.4100320000000 1.0
C      1  0.6023500000000  0.5484550000000  0.4760340000000 1.0
C      1  0.4524520000000  0.4362470000000  0.6163760000000 1.0
C      1  0.4271120000000  0.4502250000000  0.4142470000000 1.0
C      1  0.4486610000000  0.5146520000000  0.4544910000000 1.0
C      1  0.6033050000000  0.4799810000000  0.4808860000000 1.0
C      1  0.5725330000000  0.4587070000000  0.5820320000000 1.0
C      1  0.4636370000000  0.5620100000000  0.4917640000000 1.0
C      1  0.4498360000000  0.4959180000000  0.6058930000000 1.0
C      1  0.5220080000000  0.5079930000000  0.6105670000000 1.0
C      1  0.4462310000000  0.3985540000000  0.4530940000000 1.0
C      1  0.3795230000000  0.4675860000000  0.4995810000000 1.0
C      1  0.5266430000000  0.3869400000000  0.5127430000000 1.0
C      1  0.5230470000000  0.5234020000000  0.4945570000000 1.0
C      1  0.5929720000000  0.5246720000000  0.4324900000000 1.0
C      1  0.4563260000000  0.5313790000000  0.4317260000000 1.0
C      1  0.4977010000000  0.3920520000000  0.5093540000000 1.0
C      1  0.5596050000000  0.5056710000000  0.5030770000000 1.0
C      1  0.4539980000000  0.4878560000000  0.5515490000000 1.0
C      1  0.5434270000000  0.5054940000000  0.4114500000000 1.0
C      1  0.5264310000000  0.4874380000000  0.3963180000000 1.0
C      1  0.4874030000000  0.5718800000000  0.5039300000000 1.0
C      1  0.4250840000000  0.5557920000000  0.4442230000000 1.0
C      1  0.4130230000000  0.4814250000000  0.5779070000000 1.0
C      1  0.4686080000000  0.4773010000000  0.5278540000000 1.0
C      1  0.5913350000000  0.5101700000000  0.5730000000000 1.0
C      1  0.5610660000000  0.5099660000000  0.5795130000000 1.0
C      1  0.4625730000000  0.5298510000000  0.4805690000000 1.0
C      1  0.4314850000000  0.5412440000000  0.4193480000000 1.0
C      1  0.5599400000000  0.5272610000000  0.4590830000000 1.0
C      1  0.4911350000000  0.6221920000000  0.5109400000000 1.0
C      1  0.5618230000000  0.5826420000000  0.4972220000000 1.0
C      1  0.4509370000000  0.5977050000000  0.5297020000000 1.0
C      1  0.5820970000000  0.5705580000000  0.4728110000000 1.0
C      1  0.5474890000000  0.3964060000000  0.4667310000000 1.0
C      1  0.5297620000000  0.5975650000000  0.4876950000000 1.0
C      1  0.5493770000000  0.4694830000000  0.3930310000000 1.0
C      1  0.4205390000000  0.4440450000000  0.4536610000000 1.0
C      1  0.4492500000000  0.4547910000000  0.4598430000000 1.0
C      1  0.5998690000000  0.5272920000000  0.4967670000000 1.0
C      1  0.5387560000000  0.4803370000000  0.4432730000000 1.0
C      1  0.5858470000000  0.4538070000000  0.5563390000000 1.0
C      1  0.3968860000000  0.4852310000000  0.5529360000000 1.0
C      1  0.4432500000000  0.5846970000000  0.5536360000000 1.0
C      1  0.3827480000000  0.5085850000000  0.4779560000000 1.0
C      1  0.4633660000000  0.3908920000000  0.4760040000000 1.0
C      1  0.4632240000000  0.5911120000000  0.4545850000000 1.0
C      1  0.5206260000000  0.3877340000000  0.4625220000000 1.0
END
