TITL C-883736-9678-435 36.4113422377078 125000 -28490.0257082934 0 0 189 (C1) n - 1
REM
REM in /home/nfs/bkarasulu/CARBON/AIRSS/Generating-Clusters/ReaxFF-fromJPCA2015/Units_Real/with-SteepDescent/Only-C1/SD-CG/Try1-3A/FIRE-CG
REM
REM
REM
REM
REM
REM ./C.cell (11c1c37f851c82e70ff6c80c92926a4b)
REM
REM compiler GCC version 9.2.1 20190827 (Red Hat 9.2.1-1)
REM options -cpp -mtune=generic -march=x86-64 -g -O0 -fpre-include=/usr/include/finclude/math-vector-fortran.h
REM seed 1587837476 -1844989707 2109149997 -1375561288 -537111968 1489307006 348484958 -728052634 587994982 1485869114 1884446495 365180662 306645667 -436474344 -665248409 1110466330 -1160583310 581086003 -938909804 435617670 1586199684 1457797846 -1370588654 1688151544 -1306320793 1064072779 1632919714 54067480 -1524624805 1041582425 -1862201282 1598939539 -1731034532
REM
CELL 1.54180   50.00000   50.00000   50.00000   90.00000   90.00000   90.00000
LATT -1
SFAC C  
C      1  0.6025640000000  0.4637650000000  0.4470460000000 1.0
C      1  0.5702090000000  0.4598910000000  0.4204010000000 1.0
C      1  0.4749350000000  0.5568050000000  0.5093030000000 1.0
C      1  0.6138880000000  0.5233530000000  0.5108650000000 1.0
C      1  0.5535430000000  0.4152680000000  0.4972930000000 1.0
C      1  0.4162510000000  0.5724190000000  0.4495570000000 1.0
C      1  0.5481650000000  0.5174500000000  0.5239230000000 1.0
C      1  0.4890650000000  0.4484010000000  0.4006980000000 1.0
C      1  0.5674380000000  0.5843370000000  0.5317370000000 1.0
C      1  0.5306490000000  0.5111310000000  0.5006390000000 1.0
C      1  0.5116230000000  0.4271730000000  0.5791800000000 1.0
C      1  0.5481730000000  0.4961830000000  0.4551260000000 1.0
C      1  0.4835380000000  0.4292070000000  0.5900630000000 1.0
C      1  0.5327140000000  0.4628890000000  0.5435010000000 1.0
C      1  0.4917520000000  0.4494160000000  0.4795420000000 1.0
C      1  0.4557720000000  0.4171360000000  0.5017370000000 1.0
C      1  0.5844380000000  0.5656430000000  0.5170160000000 1.0
C      1  0.4003370000000  0.5476450000000  0.5006100000000 1.0
C      1  0.5949950000000  0.5023260000000  0.4627100000000 1.0
C      1  0.4936280000000  0.5839470000000  0.4232720000000 1.0
C      1  0.5554620000000  0.6123900000000  0.4855770000000 1.0
C      1  0.5281490000000  0.4725890000000  0.4601050000000 1.0
C      1  0.4773640000000  0.5280420000000  0.4723970000000 1.0
C      1  0.5537460000000  0.4712320000000  0.5643260000000 1.0
C      1  0.4162560000000  0.5888420000000  0.4741310000000 1.0
C      1  0.4745290000000  0.4000640000000  0.5174260000000 1.0
C      1  0.4396030000000  0.4976610000000  0.4007400000000 1.0
C      1  0.5326390000000  0.5275760000000  0.4184140000000 1.0
C      1  0.5008080000000  0.4690310000000  0.6099440000000 1.0
C      1  0.4085510000000  0.5088360000000  0.5638060000000 1.0
C      1  0.5217270000000  0.5481930000000  0.4665650000000 1.0
C      1  0.5054910000000  0.4047160000000  0.4370170000000 1.0
C      1  0.5225660000000  0.5764310000000  0.4220260000000 1.0
C      1  0.5108940000000  0.4839150000000  0.5355700000000 1.0
C      1  0.4589210000000  0.4074900000000  0.4537290000000 1.0
C      1  0.4174530000000  0.5345950000000  0.4331790000000 1.0
C      1  0.4048730000000  0.4720950000000  0.5048660000000 1.0
C      1  0.5091040000000  0.5889790000000  0.5577050000000 1.0
C      1  0.5745420000000  0.4305330000000  0.5556890000000 1.0
C      1  0.5516930000000  0.4745660000000  0.4077810000000 1.0
C      1  0.4630110000000  0.4848620000000  0.5581150000000 1.0
C      1  0.5320990000000  0.5029580000000  0.5421920000000 1.0
C      1  0.5422460000000  0.4633500000000  0.5080520000000 1.0
C      1  0.5687740000000  0.4938580000000  0.5752500000000 1.0
C      1  0.6109830000000  0.4712910000000  0.4956390000000 1.0
C      1  0.4175060000000  0.4150440000000  0.4869120000000 1.0
C      1  0.4415440000000  0.4896180000000  0.6020170000000 1.0
C      1  0.4780920000000  0.5754160000000  0.4664080000000 1.0
C      1  0.5129610000000  0.4306590000000  0.4818180000000 1.0
C      1  0.4733900000000  0.5476010000000  0.5994510000000 1.0
C      1  0.3979940000000  0.4880960000000  0.5450500000000 1.0
C      1  0.5479880000000  0.4186050000000  0.5596520000000 1.0
C      1  0.4787220000000  0.5045010000000  0.4886920000000 1.0
C      1  0.5709070000000  0.4514400000000  0.5776210000000 1.0
C      1  0.4425080000000  0.4032300000000  0.4776840000000 1.0
C      1  0.4503330000000  0.4289110000000  0.4369090000000 1.0
C      1  0.5583210000000  0.4361610000000  0.6006250000000 1.0
C      1  0.5317550000000  0.3950380000000  0.4970860000000 1.0
C      1  0.4977650000000  0.4752340000000  0.4920180000000 1.0
C      1  0.4373710000000  0.5537700000000  0.4399180000000 1.0
C      1  0.5563150000000  0.6074750000000  0.5149600000000 1.0
C      1  0.5149650000000  0.3957900000000  0.5216780000000 1.0
C      1  0.5285340000000  0.5143520000000  0.5677550000000 1.0
C      1  0.4506460000000  0.4913850000000  0.4758770000000 1.0
C      1  0.4058380000000  0.5081820000000  0.4634500000000 1.0
C      1  0.4027670000000  0.4805360000000  0.4544310000000 1.0
C      1  0.5252800000000  0.5488200000000  0.4370300000000 1.0
C      1  0.4061260000000  0.4616980000000  0.5313110000000 1.0
C      1  0.6085050000000  0.4871530000000  0.5435810000000 1.0
C      1  0.4636770000000  0.4245170000000  0.5679710000000 1.0
C      1  0.4186790000000  0.4666100000000  0.4333390000000 1.0
C      1  0.5457090000000  0.5913900000000  0.4665040000000 1.0
C      1  0.5265360000000  0.4143750000000  0.4229060000000 1.0
C      1  0.5861200000000  0.5305450000000  0.5497070000000 1.0
C      1  0.4862010000000  0.5031810000000  0.5856800000000 1.0
C      1  0.4769750000000  0.4734550000000  0.4378790000000 1.0
C      1  0.5907140000000  0.5048240000000  0.5595030000000 1.0
C      1  0.5443220000000  0.4249310000000  0.4449570000000 1.0
C      1  0.5407270000000  0.5685850000000  0.4856190000000 1.0
C      1  0.4003920000000  0.4623500000000  0.4775190000000 1.0
C      1  0.4607780000000  0.4946520000000  0.4476760000000 1.0
C      1  0.4936670000000  0.3852450000000  0.5050890000000 1.0
C      1  0.3974830000000  0.5488490000000  0.4495790000000 1.0
C      1  0.5387370000000  0.4171460000000  0.5884490000000 1.0
C      1  0.5489700000000  0.5846870000000  0.4382270000000 1.0
C      1  0.4978380000000  0.4772510000000  0.5821270000000 1.0
C      1  0.5291070000000  0.4600750000000  0.3953930000000 1.0
C      1  0.3942130000000  0.5073280000000  0.5233860000000 1.0
C      1  0.4193320000000  0.5036860000000  0.5072570000000 1.0
C      1  0.5527670000000  0.5661230000000  0.5488730000000 1.0
C      1  0.4072350000000  0.5766960000000  0.5002800000000 1.0
C      1  0.4916340000000  0.5241950000000  0.6039750000000 1.0
C      1  0.4214200000000  0.4363260000000  0.5373740000000 1.0
C      1  0.5246780000000  0.4352860000000  0.5536710000000 1.0
C      1  0.3992260000000  0.5357060000000  0.5274860000000 1.0
C      1  0.5254930000000  0.4814540000000  0.4924170000000 1.0
C      1  0.4830710000000  0.4644000000000  0.5602220000000 1.0
C      1  0.4434020000000  0.5890530000000  0.5341250000000 1.0
C      1  0.4477330000000  0.5382350000000  0.3997380000000 1.0
C      1  0.5203520000000  0.5544880000000  0.5884410000000 1.0
C      1  0.5708900000000  0.5615640000000  0.4920210000000 1.0
C      1  0.4394500000000  0.4722360000000  0.4139560000000 1.0
C      1  0.5995420000000  0.5425050000000  0.5288400000000 1.0
C      1  0.6162300000000  0.5383290000000  0.4860930000000 1.0
C      1  0.4608340000000  0.5466010000000  0.4248370000000 1.0
C      1  0.5341660000000  0.4361020000000  0.5015310000000 1.0
C      1  0.4964120000000  0.4980140000000  0.3827170000000 1.0
C      1  0.4791470000000  0.5927430000000  0.4452520000000 1.0
C      1  0.5047780000000  0.5095950000000  0.4484630000000 1.0
C      1  0.3947630000000  0.5335790000000  0.4747430000000 1.0
C      1  0.4635940000000  0.5305540000000  0.5220140000000 1.0
C      1  0.5151200000000  0.4359380000000  0.4047840000000 1.0
C      1  0.4145370000000  0.5900260000000  0.5261060000000 1.0
C      1  0.5313770000000  0.5738870000000  0.5673280000000 1.0
C      1  0.4378720000000  0.5512990000000  0.5640470000000 1.0
C      1  0.4539550000000  0.5755200000000  0.5579140000000 1.0
C      1  0.4768110000000  0.4515530000000  0.6081450000000 1.0
C      1  0.4493190000000  0.4619590000000  0.6042460000000 1.0
C      1  0.4242180000000  0.4391880000000  0.4432620000000 1.0
C      1  0.5898680000000  0.5517640000000  0.4458870000000 1.0
C      1  0.4584780000000  0.5156060000000  0.3845720000000 1.0
C      1  0.4089630000000  0.4359410000000  0.4682980000000 1.0
C      1  0.4584660000000  0.5045260000000  0.5800570000000 1.0
C      1  0.5722800000000  0.4250820000000  0.4538590000000 1.0
C      1  0.5885050000000  0.4432500000000  0.4340330000000 1.0
C      1  0.4843990000000  0.5101650000000  0.5181810000000 1.0
C      1  0.5294400000000  0.5136110000000  0.6250700000000 1.0
C      1  0.4911590000000  0.4692660000000  0.5202800000000 1.0
C      1  0.5897060000000  0.4392490000000  0.5318590000000 1.0
C      1  0.5990840000000  0.4612700000000  0.5414140000000 1.0
C      1  0.4873440000000  0.5232730000000  0.3805130000000 1.0
C      1  0.4148360000000  0.5350810000000  0.5525390000000 1.0
C      1  0.6141110000000  0.4927900000000  0.5149220000000 1.0
C      1  0.4753190000000  0.5206400000000  0.4455590000000 1.0
C      1  0.5017540000000  0.5622490000000  0.5233940000000 1.0
C      1  0.5888780000000  0.4491020000000  0.4996790000000 1.0
C      1  0.4515250000000  0.4665310000000  0.4916050000000 1.0
C      1  0.4282570000000  0.4491200000000  0.5862350000000 1.0
C      1  0.5117780000000  0.4893760000000  0.6276810000000 1.0
C      1  0.4610130000000  0.5837530000000  0.5109060000000 1.0
C      1  0.4648180000000  0.4519870000000  0.4192420000000 1.0
C      1  0.5942110000000  0.5227020000000  0.4409680000000 1.0
C      1  0.4944730000000  0.6087720000000  0.5165330000000 1.0
C      1  0.4965880000000  0.5507940000000  0.3907240000000 1.0
C      1  0.5105980000000  0.5403160000000  0.5400800000000 1.0
C      1  0.4655390000000  0.4427940000000  0.4866050000000 1.0
C      1  0.4620230000000  0.4689890000000  0.5180180000000 1.0
C      1  0.4485100000000  0.4878030000000  0.5350050000000 1.0
C      1  0.4271120000000  0.4198110000000  0.5141990000000 1.0
C      1  0.4818230000000  0.5819790000000  0.5679360000000 1.0
C      1  0.4279170000000  0.5099460000000  0.4809740000000 1.0
C      1  0.4111130000000  0.4710190000000  0.5810050000000 1.0
C      1  0.5765060000000  0.4255780000000  0.4820560000000 1.0
C      1  0.5224730000000  0.5776850000000  0.5102160000000 1.0
C      1  0.6144980000000  0.4795440000000  0.4670030000000 1.0
C      1  0.5025540000000  0.4712860000000  0.3850560000000 1.0
C      1  0.5088790000000  0.5344730000000  0.5684820000000 1.0
C      1  0.5051370000000  0.3961880000000  0.4812160000000 1.0
C      1  0.4942750000000  0.4157410000000  0.5312040000000 1.0
C      1  0.5179900000000  0.6005180000000  0.5297400000000 1.0
C      1  0.5230340000000  0.5613310000000  0.3940960000000 1.0
C      1  0.5932530000000  0.5552000000000  0.4748790000000 1.0
C      1  0.4847090000000  0.6024970000000  0.4711100000000 1.0
C      1  0.5094210000000  0.5234600000000  0.5163800000000 1.0
C      1  0.5766050000000  0.5199280000000  0.4186850000000 1.0
C      1  0.4149840000000  0.4966890000000  0.5911520000000 1.0
C      1  0.4786950000000  0.5636700000000  0.4093950000000 1.0
C      1  0.4357800000000  0.4323120000000  0.5632420000000 1.0
C      1  0.5706750000000  0.4904400000000  0.4737270000000 1.0
C      1  0.4731540000000  0.6076870000000  0.4980080000000 1.0
C      1  0.5262720000000  0.5184750000000  0.4671570000000 1.0
C      1  0.4824150000000  0.4363190000000  0.5489990000000 1.0
C      1  0.4534690000000  0.5362240000000  0.5821000000000 1.0
C      1  0.5706980000000  0.5468200000000  0.4084540000000 1.0
C      1  0.5687310000000  0.4709280000000  0.4956550000000 1.0
C      1  0.5602140000000  0.5381520000000  0.5410950000000 1.0
C      1  0.4918000000000  0.5685270000000  0.5910330000000 1.0
C      1  0.4879640000000  0.3965260000000  0.4550870000000 1.0
C      1  0.5046610000000  0.4826200000000  0.4422620000000 1.0
C      1  0.5444420000000  0.5419910000000  0.3955080000000 1.0
C      1  0.5268360000000  0.4428450000000  0.4597250000000 1.0
C      1  0.5024280000000  0.5150590000000  0.6285000000000 1.0
C      1  0.5515900000000  0.5035650000000  0.4238350000000 1.0
C      1  0.4889650000000  0.5520240000000  0.4779410000000 1.0
C      1  0.4239490000000  0.5225010000000  0.4071180000000 1.0
C      1  0.5376460000000  0.5318850000000  0.6045190000000 1.0
C      1  0.5709230000000  0.5675590000000  0.4297620000000 1.0
C      1  0.5518490000000  0.5173030000000  0.5846690000000 1.0
C      1  0.4411430000000  0.5138630000000  0.5250370000000 1.0
END
