TITL C-883740-3686-311 11.022818669745 125000 -28363.0261752782 0 0 188 (C1) n - 1
REM
REM in /home/nfs/bkarasulu/CARBON/AIRSS/Generating-Clusters/ReaxFF-fromJPCA2015/Units_Real/with-SteepDescent/Only-C1/SD-CG/Try1-3A/FIRE-CG
REM
REM
REM
REM
REM
REM ./C.cell (11c1c37f851c82e70ff6c80c92926a4b)
REM
REM compiler GCC version 9.2.1 20190827 (Red Hat 9.2.1-1)
REM options -cpp -mtune=generic -march=x86-64 -g -O0 -fpre-include=/usr/include/finclude/math-vector-fortran.h
REM seed -740651544 418050633 2093694243 -1193455018 372551983 -1102275324 -682753996 -929920457 -1556862063 872650978 273617008 -1576347706 1851566986 -684868240 -2087351423 2115664747 -1463928561 57199567 -1425847849 454076599 -352883237 125258054 -2082983512 -2033260238 -1446707658 -789193149 -1665769825 940220009 2144235489 279130573 -1805503023 -777193391 -620155068
REM
CELL 1.54180   50.00000   50.00000   50.00000   90.00000   90.00000   90.00000
LATT -1
SFAC C  
C      1  0.5716070000000  0.4376980000000  0.5498750000000 1.0
C      1  0.5023610000000  0.4776180000000  0.4732290000000 1.0
C      1  0.6081870000000  0.5195810000000  0.5486230000000 1.0
C      1  0.5202530000000  0.4283680000000  0.4217230000000 1.0
C      1  0.4045810000000  0.4584180000000  0.6123790000000 1.0
C      1  0.4012970000000  0.5418110000000  0.5246970000000 1.0
C      1  0.3812650000000  0.5300170000000  0.5090620000000 1.0
C      1  0.5358200000000  0.5543900000000  0.5995230000000 1.0
C      1  0.5080340000000  0.5547450000000  0.6026650000000 1.0
C      1  0.5073890000000  0.4906220000000  0.4277030000000 1.0
C      1  0.4218390000000  0.4664260000000  0.5956350000000 1.0
C      1  0.4006170000000  0.5475670000000  0.4412460000000 1.0
C      1  0.5691140000000  0.4340720000000  0.4648880000000 1.0
C      1  0.5857690000000  0.4588170000000  0.5110360000000 1.0
C      1  0.5026420000000  0.4229160000000  0.5732570000000 1.0
C      1  0.5921720000000  0.5065410000000  0.4766190000000 1.0
C      1  0.4468460000000  0.5294280000000  0.4448580000000 1.0
C      1  0.4364480000000  0.4881790000000  0.4714110000000 1.0
C      1  0.4473070000000  0.3964030000000  0.4891210000000 1.0
C      1  0.4488440000000  0.5063740000000  0.5997130000000 1.0
C      1  0.4724460000000  0.4386640000000  0.5260650000000 1.0
C      1  0.5582080000000  0.5640130000000  0.4329540000000 1.0
C      1  0.4740780000000  0.5063940000000  0.4896950000000 1.0
C      1  0.5394460000000  0.3981550000000  0.5414150000000 1.0
C      1  0.5350860000000  0.6047510000000  0.4745370000000 1.0
C      1  0.5084810000000  0.5200030000000  0.4272820000000 1.0
C      1  0.4373640000000  0.5870510000000  0.4690840000000 1.0
C      1  0.5871530000000  0.4277220000000  0.4840390000000 1.0
C      1  0.4003420000000  0.4920710000000  0.5066270000000 1.0
C      1  0.4588050000000  0.5104840000000  0.4262960000000 1.0
C      1  0.4433030000000  0.4758850000000  0.3973430000000 1.0
C      1  0.4966120000000  0.6073300000000  0.5135480000000 1.0
C      1  0.4628120000000  0.5498390000000  0.4577990000000 1.0
C      1  0.4529540000000  0.3907240000000  0.5159550000000 1.0
C      1  0.4907340000000  0.5151800000000  0.5974840000000 1.0
C      1  0.5137590000000  0.4964820000000  0.5152980000000 1.0
C      1  0.5128090000000  0.4054090000000  0.5515760000000 1.0
C      1  0.5151060000000  0.4498220000000  0.4032170000000 1.0
C      1  0.5848870000000  0.5411350000000  0.5089170000000 1.0
C      1  0.5508250000000  0.4545330000000  0.4724470000000 1.0
C      1  0.5831620000000  0.5547570000000  0.5608940000000 1.0
C      1  0.4682070000000  0.5255030000000  0.6118650000000 1.0
C      1  0.4532420000000  0.5393040000000  0.5687290000000 1.0
C      1  0.6005490000000  0.4782070000000  0.4676370000000 1.0
C      1  0.4587280000000  0.5510710000000  0.4856790000000 1.0
C      1  0.4747610000000  0.4643300000000  0.5137000000000 1.0
C      1  0.4763590000000  0.5664160000000  0.5032360000000 1.0
C      1  0.4438140000000  0.4475780000000  0.4703000000000 1.0
C      1  0.5801890000000  0.5343460000000  0.5822540000000 1.0
C      1  0.5128240000000  0.4989260000000  0.5494440000000 1.0
C      1  0.5493790000000  0.4780690000000  0.4553200000000 1.0
C      1  0.5470330000000  0.3921610000000  0.4634630000000 1.0
C      1  0.4904700000000  0.5913290000000  0.5655640000000 1.0
C      1  0.4638330000000  0.5728320000000  0.5298070000000 1.0
C      1  0.4140910000000  0.5063600000000  0.5592260000000 1.0
C      1  0.4198250000000  0.4747470000000  0.4501940000000 1.0
C      1  0.4922080000000  0.4674880000000  0.4128180000000 1.0
C      1  0.4780670000000  0.5184670000000  0.5730540000000 1.0
C      1  0.4161420000000  0.5700580000000  0.4846710000000 1.0
C      1  0.4195770000000  0.5672490000000  0.4362930000000 1.0
C      1  0.5488200000000  0.5264700000000  0.5418020000000 1.0
C      1  0.5221090000000  0.5271520000000  0.5516630000000 1.0
C      1  0.5635770000000  0.5195950000000  0.4632590000000 1.0
C      1  0.4346040000000  0.5166580000000  0.4682650000000 1.0
C      1  0.4301700000000  0.4470870000000  0.4966920000000 1.0
C      1  0.4498710000000  0.4762310000000  0.6002250000000 1.0
C      1  0.5209740000000  0.4397250000000  0.5314180000000 1.0
C      1  0.5134580000000  0.5747030000000  0.5599850000000 1.0
C      1  0.5980480000000  0.5147240000000  0.5054050000000 1.0
C      1  0.4124500000000  0.5129840000000  0.5294000000000 1.0
C      1  0.4203460000000  0.4397590000000  0.4541040000000 1.0
C      1  0.4967670000000  0.4126110000000  0.4934720000000 1.0
C      1  0.5096300000000  0.5396660000000  0.4503650000000 1.0
C      1  0.4745980000000  0.4345700000000  0.5752810000000 1.0
C      1  0.5189380000000  0.4837080000000  0.5731110000000 1.0
C      1  0.5894050000000  0.4599550000000  0.5543340000000 1.0
C      1  0.5743050000000  0.4105750000000  0.5055010000000 1.0
C      1  0.4263710000000  0.4334310000000  0.5467930000000 1.0
C      1  0.4681560000000  0.4891670000000  0.4445780000000 1.0
C      1  0.4849870000000  0.4995490000000  0.5538820000000 1.0
C      1  0.5271510000000  0.5370490000000  0.4724950000000 1.0
C      1  0.4527300000000  0.4868960000000  0.4966070000000 1.0
C      1  0.5984570000000  0.5136080000000  0.4356110000000 1.0
C      1  0.5622990000000  0.5963250000000  0.4767000000000 1.0
C      1  0.4292440000000  0.5815460000000  0.5609910000000 1.0
C      1  0.5006270000000  0.4246080000000  0.4448100000000 1.0
C      1  0.4136730000000  0.5111490000000  0.4112500000000 1.0
C      1  0.4768440000000  0.4453090000000  0.4337510000000 1.0
C      1  0.6095950000000  0.4995040000000  0.5272230000000 1.0
C      1  0.5088560000000  0.5345110000000  0.4021980000000 1.0
C      1  0.4685470000000  0.4787030000000  0.5422510000000 1.0
C      1  0.5955030000000  0.4843950000000  0.4398470000000 1.0
C      1  0.5019550000000  0.5730410000000  0.3876340000000 1.0
C      1  0.4819230000000  0.5022220000000  0.3829580000000 1.0
C      1  0.4477110000000  0.5676290000000  0.5805600000000 1.0
C      1  0.4565340000000  0.4267230000000  0.5499160000000 1.0
C      1  0.5362990000000  0.4626390000000  0.5750940000000 1.0
C      1  0.5388340000000  0.4651840000000  0.3957490000000 1.0
C      1  0.4328640000000  0.4609200000000  0.4207730000000 1.0
C      1  0.4088800000000  0.4541070000000  0.5390090000000 1.0
C      1  0.4987040000000  0.4523550000000  0.6072500000000 1.0
C      1  0.5120840000000  0.4286240000000  0.4759700000000 1.0
C      1  0.5564520000000  0.4612860000000  0.5134680000000 1.0
C      1  0.5550930000000  0.5307250000000  0.5976430000000 1.0
C      1  0.4157960000000  0.4760010000000  0.5631130000000 1.0
C      1  0.4736560000000  0.5779440000000  0.5873510000000 1.0
C      1  0.5181550000000  0.5650540000000  0.4051810000000 1.0
C      1  0.3981420000000  0.5174110000000  0.4324570000000 1.0
C      1  0.4428090000000  0.5129940000000  0.5149900000000 1.0
C      1  0.3975250000000  0.5532350000000  0.4695240000000 1.0
C      1  0.5153820000000  0.4958000000000  0.6002670000000 1.0
C      1  0.4700400000000  0.5454640000000  0.5431230000000 1.0
C      1  0.4157870000000  0.4178240000000  0.4708760000000 1.0
C      1  0.5875040000000  0.5810950000000  0.4737380000000 1.0
C      1  0.5087870000000  0.4739170000000  0.6233480000000 1.0
C      1  0.4831960000000  0.5962520000000  0.5377370000000 1.0
C      1  0.5682450000000  0.4749420000000  0.4318920000000 1.0
C      1  0.4762800000000  0.5965750000000  0.4954820000000 1.0
C      1  0.6033090000000  0.4707170000000  0.5317620000000 1.0
C      1  0.4853360000000  0.4985350000000  0.4655550000000 1.0
C      1  0.5565970000000  0.3907920000000  0.4930840000000 1.0
C      1  0.5198780000000  0.4790010000000  0.4509490000000 1.0
C      1  0.5614980000000  0.5338160000000  0.4378630000000 1.0
C      1  0.4762140000000  0.3976520000000  0.4803920000000 1.0
C      1  0.5580750000000  0.4895220000000  0.5179480000000 1.0
C      1  0.4920530000000  0.5190380000000  0.5097320000000 1.0
C      1  0.4920300000000  0.3963150000000  0.4543580000000 1.0
C      1  0.4722370000000  0.4761140000000  0.3911340000000 1.0
C      1  0.4499070000000  0.4372580000000  0.4196670000000 1.0
C      1  0.5524820000000  0.5810690000000  0.5351920000000 1.0
C      1  0.4102410000000  0.4649970000000  0.5107390000000 1.0
C      1  0.5373010000000  0.5735020000000  0.5771010000000 1.0
C      1  0.5186880000000  0.4415570000000  0.5883110000000 1.0
C      1  0.5409390000000  0.5822850000000  0.5107090000000 1.0
C      1  0.4702760000000  0.4556050000000  0.5934570000000 1.0
C      1  0.4333250000000  0.5794190000000  0.5320220000000 1.0
C      1  0.5761340000000  0.5195300000000  0.4164250000000 1.0
C      1  0.4319900000000  0.5033890000000  0.3922540000000 1.0
C      1  0.5580030000000  0.5028050000000  0.4015890000000 1.0
C      1  0.4375820000000  0.5836770000000  0.4436080000000 1.0
C      1  0.5278910000000  0.4491620000000  0.4894920000000 1.0
C      1  0.5458180000000  0.5042300000000  0.6009690000000 1.0
C      1  0.4903460000000  0.5885140000000  0.4520320000000 1.0
C      1  0.4266700000000  0.4172370000000  0.4971150000000 1.0
C      1  0.5774890000000  0.4864110000000  0.5674170000000 1.0
C      1  0.6036940000000  0.5304810000000  0.4605590000000 1.0
C      1  0.5490440000000  0.4278640000000  0.4246840000000 1.0
C      1  0.4148320000000  0.5660770000000  0.5130280000000 1.0
C      1  0.5099600000000  0.5114840000000  0.3844980000000 1.0
C      1  0.3813750000000  0.5302540000000  0.4810380000000 1.0
C      1  0.4638250000000  0.4619150000000  0.4542110000000 1.0
C      1  0.5194290000000  0.3895750000000  0.4583960000000 1.0
C      1  0.5625390000000  0.5765580000000  0.5603510000000 1.0
C      1  0.5033080000000  0.5493910000000  0.5124560000000 1.0
C      1  0.4404540000000  0.5310860000000  0.4921090000000 1.0
C      1  0.5238270000000  0.6049010000000  0.5022490000000 1.0
C      1  0.4885930000000  0.5600610000000  0.4477020000000 1.0
C      1  0.4807370000000  0.5553080000000  0.6054160000000 1.0
C      1  0.5512290000000  0.5355890000000  0.5133350000000 1.0
C      1  0.5976650000000  0.4549530000000  0.4847330000000 1.0
C      1  0.5056840000000  0.4707270000000  0.5018290000000 1.0
C      1  0.5591780000000  0.4536470000000  0.4138000000000 1.0
C      1  0.5445000000000  0.4527010000000  0.5412210000000 1.0
C      1  0.5964220000000  0.5442150000000  0.5374520000000 1.0
C      1  0.5355130000000  0.4943200000000  0.3882370000000 1.0
C      1  0.5938430000000  0.5515090000000  0.4789110000000 1.0
C      1  0.5947400000000  0.5113720000000  0.5729350000000 1.0
C      1  0.4666400000000  0.5981750000000  0.4681880000000 1.0
C      1  0.5402040000000  0.5121250000000  0.4741440000000 1.0
C      1  0.4426820000000  0.4760110000000  0.5515210000000 1.0
C      1  0.5325030000000  0.5785220000000  0.4299580000000 1.0
C      1  0.5046240000000  0.5495330000000  0.5437540000000 1.0
C      1  0.4989890000000  0.4218290000000  0.5255470000000 1.0
C      1  0.5191390000000  0.5938450000000  0.4499470000000 1.0
C      1  0.3905740000000  0.5016260000000  0.4801470000000 1.0
C      1  0.4592970000000  0.5156650000000  0.3969580000000 1.0
C      1  0.5405690000000  0.5074330000000  0.5026560000000 1.0
C      1  0.5618510000000  0.5006470000000  0.5431240000000 1.0
C      1  0.5669580000000  0.4140510000000  0.5339350000000 1.0
C      1  0.5300210000000  0.5519160000000  0.5003060000000 1.0
C      1  0.3982610000000  0.4946790000000  0.4522750000000 1.0
C      1  0.5803620000000  0.5744160000000  0.4473400000000 1.0
C      1  0.4330070000000  0.5180160000000  0.5773810000000 1.0
C      1  0.5594860000000  0.4142890000000  0.4483280000000 1.0
C      1  0.4568820000000  0.3938300000000  0.5427900000000 1.0
C      1  0.5561230000000  0.4805460000000  0.5884840000000 1.0
C      1  0.5418730000000  0.3867710000000  0.5161460000000 1.0
C      1  0.4674430000000  0.5232090000000  0.5256910000000 1.0
END
