TITL C-884138-6203-18 -7560.61096148672 125000 -4212.65514241312 0 0 30 (C1) n - 1
REM
REM in /home/nfs/bkarasulu/CARBON/AIRSS/Generating-Clusters/ReaxFF-fromJPCA2015/Units_Real/with-SteepDescent/Only-C1/SD-CG/Try1-3A/FIRE-CG
REM
REM
REM
REM
REM
REM ./C.cell (11c1c37f851c82e70ff6c80c92926a4b)
REM
REM compiler GCC version 9.2.1 20190827 (Red Hat 9.2.1-1)
REM options -cpp -mtune=generic -march=x86-64 -g -O0 -fpre-include=/usr/include/finclude/math-vector-fortran.h
REM seed -1991026556 1037880645 -2021110651 289480436 597650991 -1775435192 -2002739539 -1024470434 959180434 1178844293 803171629 -308046633 -1813813686 -1739358962 738595362 1161437180 1650530578 1656901085 1078918575 1091876927 991341683 1558188146 -161372012 939012211 567599595 1621549146 1605636693 1032251027 -1241420446 1464139577 -878119307 98485704 -58890422
REM
CELL 1.54180   50.00000   50.00000   50.00000   90.00000   90.00000   90.00000
LATT -1
SFAC C  
C      1  0.5051950000000  0.4474280000000  0.4734430000000 1.0
C      1  0.5170380000000  0.5056160000000  0.4582880000000 1.0
C      1  0.4654170000000  0.4973020000000  0.5310090000000 1.0
C      1  0.5140640000000  0.4724040000000  0.5398090000000 1.0
C      1  0.5509040000000  0.5150590000000  0.4941530000000 1.0
C      1  0.4468210000000  0.5129600000000  0.4821750000000 1.0
C      1  0.5035820000000  0.5277540000000  0.4965080000000 1.0
C      1  0.5015150000000  0.5342840000000  0.4541700000000 1.0
C      1  0.4749550000000  0.5222840000000  0.5489850000000 1.0
C      1  0.4682120000000  0.4756470000000  0.4598980000000 1.0
C      1  0.4868570000000  0.5443810000000  0.4764600000000 1.0
C      1  0.4488240000000  0.4966950000000  0.4555200000000 1.0
C      1  0.4635350000000  0.5439630000000  0.5570430000000 1.0
C      1  0.5487270000000  0.4958040000000  0.5173260000000 1.0
C      1  0.4935490000000  0.4639530000000  0.4483220000000 1.0
C      1  0.4848740000000  0.4794140000000  0.5441010000000 1.0
C      1  0.5479280000000  0.5081940000000  0.4667680000000 1.0
C      1  0.5277950000000  0.4553990000000  0.4915150000000 1.0
C      1  0.4574520000000  0.4952600000000  0.5038170000000 1.0
C      1  0.4793820000000  0.4809370000000  0.4884140000000 1.0
C      1  0.5110830000000  0.4821850000000  0.4361060000000 1.0
C      1  0.4864490000000  0.4483570000000  0.4950630000000 1.0
C      1  0.4933300000000  0.5005590000000  0.5625800000000 1.0
C      1  0.4564690000000  0.5403770000000  0.4798080000000 1.0
C      1  0.5219050000000  0.4946580000000  0.5571230000000 1.0
C      1  0.5366740000000  0.5398580000000  0.5343100000000 1.0
C      1  0.5417580000000  0.5105120000000  0.5413130000000 1.0
C      1  0.5023300000000  0.5015780000000  0.4841840000000 1.0
C      1  0.5324370000000  0.4712200000000  0.5163540000000 1.0
C      1  0.5309390000000  0.5359570000000  0.5054330000000 1.0
END
