TITL C-884140-4336-317 0.859312668449637 125000 -4657.3493868097 0 0 33 (C1) n - 1
REM
REM in /home/nfs/bkarasulu/CARBON/AIRSS/Generating-Clusters/ReaxFF-fromJPCA2015/Units_Real/with-SteepDescent/Only-C1/SD-CG/Try1-3A/FIRE-CG
REM
REM
REM
REM
REM
REM ./C.cell (11c1c37f851c82e70ff6c80c92926a4b)
REM
REM compiler GCC version 9.2.1 20190827 (Red Hat 9.2.1-1)
REM options -cpp -mtune=generic -march=x86-64 -g -O0 -fpre-include=/usr/include/finclude/math-vector-fortran.h
REM seed 1574949849 127595811 1699222100 437306695 1945361707 -844364964 -1670614755 -1446976986 924472956 -682663548 828597517 421703234 1967816993 737989789 -817093447 -1092310257 -235395053 -872141108 -993923261 457049376 -2123123634 -329100 -1574686158 -646774575 200635381 1251525340 -1048376263 1504106828 254800355 -351194514 1916770061 -710415094 -1368346604
REM
CELL 1.54180   50.00000   50.00000   50.00000   90.00000   90.00000   90.00000
LATT -1
SFAC C  
C      1  0.4913960000000  0.5482140000000  0.4668910000000 1.0
C      1  0.5451820000000  0.5491410000000  0.4818660000000 1.0
C      1  0.4448900000000  0.4553850000000  0.5101950000000 1.0
C      1  0.4723100000000  0.4874450000000  0.5298880000000 1.0
C      1  0.4487170000000  0.4743540000000  0.4905720000000 1.0
C      1  0.5569960000000  0.5500470000000  0.5079460000000 1.0
C      1  0.5402700000000  0.5500150000000  0.5328610000000 1.0
C      1  0.5136320000000  0.4949350000000  0.5100600000000 1.0
C      1  0.4979260000000  0.4425010000000  0.4662110000000 1.0
C      1  0.5003510000000  0.5182650000000  0.5228240000000 1.0
C      1  0.4770450000000  0.4883820000000  0.4530800000000 1.0
C      1  0.5611340000000  0.5303230000000  0.5298190000000 1.0
C      1  0.5433390000000  0.5098670000000  0.5428390000000 1.0
C      1  0.4535430000000  0.5223430000000  0.4827040000000 1.0
C      1  0.5438550000000  0.4671670000000  0.4838630000000 1.0
C      1  0.4916560000000  0.4631350000000  0.4483060000000 1.0
C      1  0.5436580000000  0.4501910000000  0.5088360000000 1.0
C      1  0.4516580000000  0.5287100000000  0.5106570000000 1.0
C      1  0.4713620000000  0.5149060000000  0.5292870000000 1.0
C      1  0.5460890000000  0.4728090000000  0.5252410000000 1.0
C      1  0.5207260000000  0.5296210000000  0.5408950000000 1.0
C      1  0.4525690000000  0.5699630000000  0.4855110000000 1.0
C      1  0.4717470000000  0.4596820000000  0.5294540000000 1.0
C      1  0.5045520000000  0.4308680000000  0.4851620000000 1.0
C      1  0.4554400000000  0.4946870000000  0.4724690000000 1.0
C      1  0.4465260000000  0.5584200000000  0.5123590000000 1.0
C      1  0.5218650000000  0.4881480000000  0.4821910000000 1.0
C      1  0.5199570000000  0.5494500000000  0.4651490000000 1.0
C      1  0.5053340000000  0.4881610000000  0.4576870000000 1.0
C      1  0.4643490000000  0.5467310000000  0.4694470000000 1.0
C      1  0.5174670000000  0.4333220000000  0.5108460000000 1.0
C      1  0.5296560000000  0.4877930000000  0.5328610000000 1.0
C      1  0.4948030000000  0.4450190000000  0.5220210000000 1.0
END
