TITL C-884135-4325-29 -834362.060974319 125000 -26274.2668180518 0 0 174 (C1) n - 1
REM
REM in /home/nfs/bkarasulu/CARBON/AIRSS/Generating-Clusters/ReaxFF-fromJPCA2015/Units_Real/with-SteepDescent/Only-C1/SD-CG/Try1-3A/FIRE-CG
REM
REM
REM
REM
REM
REM ./C.cell (11c1c37f851c82e70ff6c80c92926a4b)
REM
REM compiler GCC version 9.2.1 20190827 (Red Hat 9.2.1-1)
REM options -cpp -mtune=generic -march=x86-64 -g -O0 -fpre-include=/usr/include/finclude/math-vector-fortran.h
REM seed -804674675 -1786405050 -1971557196 1096067475 -162988685 941138926 950092882 651394308 1426480559 1718797080 -1530983963 1266493191 1887947925 -1802978295 -195987470 -1176948992 -1999430723 389932366 -1361844159 1210308386 1314347998 -245190809 -782213575 -455310020 -1834318222 -626663643 -208844902 -40925390 -1357134504 -1075062312 1161653837 -1824773654 257404438
REM
CELL 1.54180   50.00000   50.00000   50.00000   90.00000   90.00000   90.00000
LATT -1
SFAC C  
C      1  0.3994010000000  0.5430140000000  0.5172720000000 1.0
C      1  0.4544920000000  0.4688190000000  0.5069910000000 1.0
C      1  0.4658690000000  0.5402920000000  0.4059690000000 1.0
C      1  0.4921660000000  0.5530870000000  0.5397650000000 1.0
C      1  0.5423370000000  0.5436570000000  0.4969390000000 1.0
C      1  0.4587980000000  0.4747100000000  0.4153370000000 1.0
C      1  0.5727930000000  0.4356130000000  0.4791510000000 1.0
C      1  0.5775100000000  0.4738780000000  0.5666060000000 1.0
C      1  0.4787850000000  0.5330760000000  0.5857170000000 1.0
C      1  0.5101870000000  0.4882070000000  0.5036340000000 1.0
C      1  0.4696210000000  0.5833130000000  0.5671900000000 1.0
C      1  0.5447540000000  0.3945800000000  0.4668330000000 1.0
C      1  0.4973570000000  0.5941760000000  0.5664880000000 1.0
C      1  0.5652180000000  0.4745690000000  0.5391730000000 1.0
C      1  0.5484010000000  0.5416010000000  0.5927650000000 1.0
C      1  0.5764780000000  0.5269790000000  0.5583730000000 1.0
C      1  0.5840000000000  0.4622770000000  0.5179300000000 1.0
C      1  0.4860580000000  0.5117990000000  0.5686030000000 1.0
C      1  0.5235830000000  0.5706110000000  0.4642500000000 1.0
C      1  0.5070750000000  0.5724530000000  0.5841330000000 1.0
C      1  0.5723490000000  0.4366670000000  0.5081770000000 1.0
C      1  0.5506890000000  0.5874450000000  0.5079800000000 1.0
C      1  0.5515710000000  0.4298170000000  0.5608280000000 1.0
C      1  0.4228750000000  0.4112000000000  0.5003670000000 1.0
C      1  0.5256570000000  0.4358890000000  0.5114090000000 1.0
C      1  0.4241100000000  0.4649650000000  0.5522550000000 1.0
C      1  0.4468580000000  0.5390190000000  0.5775620000000 1.0
C      1  0.5578240000000  0.4191430000000  0.4603740000000 1.0
C      1  0.5285580000000  0.4498910000000  0.4848370000000 1.0
C      1  0.4951280000000  0.4251360000000  0.4539250000000 1.0
C      1  0.5465720000000  0.5641420000000  0.4239190000000 1.0
C      1  0.6097170000000  0.4946220000000  0.5503640000000 1.0
C      1  0.5387280000000  0.5089090000000  0.5253740000000 1.0
C      1  0.4528150000000  0.4110730000000  0.5674940000000 1.0
C      1  0.4617880000000  0.4471270000000  0.4250870000000 1.0
C      1  0.4692310000000  0.5974440000000  0.4674310000000 1.0
C      1  0.4425670000000  0.5243880000000  0.5383550000000 1.0
C      1  0.4172210000000  0.5662240000000  0.5127590000000 1.0
C      1  0.4149780000000  0.4264800000000  0.4760910000000 1.0
C      1  0.5357480000000  0.6072060000000  0.4928690000000 1.0
C      1  0.4746260000000  0.5983610000000  0.5179830000000 1.0
C      1  0.4325730000000  0.5639060000000  0.4871900000000 1.0
C      1  0.4626870000000  0.5143690000000  0.4457720000000 1.0
C      1  0.5696760000000  0.5486650000000  0.5749720000000 1.0
C      1  0.5846750000000  0.4984290000000  0.4252900000000 1.0
C      1  0.4071670000000  0.4469210000000  0.5359880000000 1.0
C      1  0.4500020000000  0.5884740000000  0.5253100000000 1.0
C      1  0.4894970000000  0.4416890000000  0.5780690000000 1.0
C      1  0.5350410000000  0.4311180000000  0.4139390000000 1.0
C      1  0.4737260000000  0.3953850000000  0.4916360000000 1.0
C      1  0.4566400000000  0.4692740000000  0.4706940000000 1.0
C      1  0.5189970000000  0.5110750000000  0.5658960000000 1.0
C      1  0.5542070000000  0.5196190000000  0.3967720000000 1.0
C      1  0.4603600000000  0.4364970000000  0.5770490000000 1.0
C      1  0.5503450000000  0.4242920000000  0.5258350000000 1.0
C      1  0.5440460000000  0.5254480000000  0.5474520000000 1.0
C      1  0.6150230000000  0.5065000000000  0.5113620000000 1.0
C      1  0.5081010000000  0.6199720000000  0.4881830000000 1.0
C      1  0.4011630000000  0.5046320000000  0.4555910000000 1.0
C      1  0.4159600000000  0.5333140000000  0.5422240000000 1.0
C      1  0.5192460000000  0.5714740000000  0.4135610000000 1.0
C      1  0.5796660000000  0.4743210000000  0.4409720000000 1.0
C      1  0.5859160000000  0.4596930000000  0.4660420000000 1.0
C      1  0.5013750000000  0.5023370000000  0.3997340000000 1.0
C      1  0.4683230000000  0.5653010000000  0.4202670000000 1.0
C      1  0.5601660000000  0.4532790000000  0.5797150000000 1.0
C      1  0.5555660000000  0.5729440000000  0.5664840000000 1.0
C      1  0.4309380000000  0.5141190000000  0.5777510000000 1.0
C      1  0.4708380000000  0.4818170000000  0.5272660000000 1.0
C      1  0.5439830000000  0.5799550000000  0.5389550000000 1.0
C      1  0.5003760000000  0.4446230000000  0.5230460000000 1.0
C      1  0.5379840000000  0.3969790000000  0.5184900000000 1.0
C      1  0.4876650000000  0.4754470000000  0.4664270000000 1.0
C      1  0.4467100000000  0.5789240000000  0.4656640000000 1.0
C      1  0.5599030000000  0.5669770000000  0.4896410000000 1.0
C      1  0.5662880000000  0.5626950000000  0.4604210000000 1.0
C      1  0.4443270000000  0.5124740000000  0.4908110000000 1.0
C      1  0.5167710000000  0.5917980000000  0.5435400000000 1.0
C      1  0.5529270000000  0.4315600000000  0.4345890000000 1.0
C      1  0.4890280000000  0.5281160000000  0.5218900000000 1.0
C      1  0.5136370000000  0.4830680000000  0.5552800000000 1.0
C      1  0.5378570000000  0.3853220000000  0.4919450000000 1.0
C      1  0.4954140000000  0.5509310000000  0.5680330000000 1.0
C      1  0.4265970000000  0.4290570000000  0.5243380000000 1.0
C      1  0.4502920000000  0.4470580000000  0.4522840000000 1.0
C      1  0.4907810000000  0.5402820000000  0.4786300000000 1.0
C      1  0.3893080000000  0.4996110000000  0.4827180000000 1.0
C      1  0.5550190000000  0.5150250000000  0.4841140000000 1.0
C      1  0.5317500000000  0.4410870000000  0.5560150000000 1.0
C      1  0.5503030000000  0.5476130000000  0.5284350000000 1.0
C      1  0.4808590000000  0.6096210000000  0.4914930000000 1.0
C      1  0.4971110000000  0.5789920000000  0.5268060000000 1.0
C      1  0.4274040000000  0.5361710000000  0.4802020000000 1.0
C      1  0.5116270000000  0.4260920000000  0.5684930000000 1.0
C      1  0.5452790000000  0.4765830000000  0.4042620000000 1.0
C      1  0.4683480000000  0.5096550000000  0.5397380000000 1.0
C      1  0.5345690000000  0.4767990000000  0.4940050000000 1.0
C      1  0.5155950000000  0.5532940000000  0.4856680000000 1.0
C      1  0.5295660000000  0.5033190000000  0.4063410000000 1.0
C      1  0.5527530000000  0.4641210000000  0.4333300000000 1.0
C      1  0.5691920000000  0.4951190000000  0.4004510000000 1.0
C      1  0.4760690000000  0.4306740000000  0.5274880000000 1.0
C      1  0.4245850000000  0.4889990000000  0.5353840000000 1.0
C      1  0.4451260000000  0.5665990000000  0.4390080000000 1.0
C      1  0.5868950000000  0.5230820000000  0.4806480000000 1.0
C      1  0.4849640000000  0.3887280000000  0.5191910000000 1.0
C      1  0.5043620000000  0.4977600000000  0.6186670000000 1.0
C      1  0.5004760000000  0.4501350000000  0.4067720000000 1.0
C      1  0.5377340000000  0.4687220000000  0.5487270000000 1.0
C      1  0.4898550000000  0.5282750000000  0.3949770000000 1.0
C      1  0.4469800000000  0.4879530000000  0.5832680000000 1.0
C      1  0.5343930000000  0.5980190000000  0.4648230000000 1.0
C      1  0.4452350000000  0.5229570000000  0.4205100000000 1.0
C      1  0.5030590000000  0.4473120000000  0.4706250000000 1.0
C      1  0.5320180000000  0.5179470000000  0.4370240000000 1.0
C      1  0.3975630000000  0.4937650000000  0.5392250000000 1.0
C      1  0.4751050000000  0.4895830000000  0.5817070000000 1.0
C      1  0.5362120000000  0.5683630000000  0.5881480000000 1.0
C      1  0.4873340000000  0.4324010000000  0.4253350000000 1.0
C      1  0.5181830000000  0.3860090000000  0.4709560000000 1.0
C      1  0.4929870000000  0.3996260000000  0.4686850000000 1.0
C      1  0.6069290000000  0.4997400000000  0.4838610000000 1.0
C      1  0.4967730000000  0.4723010000000  0.5286910000000 1.0
C      1  0.4472190000000  0.4042800000000  0.4897350000000 1.0
C      1  0.5304750000000  0.4762470000000  0.4517640000000 1.0
C      1  0.4756870000000  0.4052170000000  0.5424620000000 1.0
C      1  0.5819200000000  0.5279840000000  0.4309490000000 1.0
C      1  0.4850510000000  0.5314640000000  0.4525080000000 1.0
C      1  0.5173710000000  0.4767160000000  0.6026160000000 1.0
C      1  0.4405870000000  0.4611940000000  0.5753590000000 1.0
C      1  0.4135240000000  0.4843440000000  0.4389620000000 1.0
C      1  0.4468580000000  0.5654250000000  0.5636950000000 1.0
C      1  0.5029930000000  0.4779250000000  0.4423920000000 1.0
C      1  0.5900880000000  0.5010350000000  0.5690230000000 1.0
C      1  0.5138690000000  0.5133200000000  0.5153390000000 1.0
C      1  0.4057300000000  0.5122200000000  0.5610570000000 1.0
C      1  0.3919280000000  0.4691190000000  0.5238080000000 1.0
C      1  0.5112930000000  0.6155840000000  0.4592430000000 1.0
C      1  0.5278600000000  0.4514090000000  0.3968160000000 1.0
C      1  0.5852830000000  0.5411040000000  0.4562850000000 1.0
C      1  0.5107810000000  0.5447640000000  0.4075630000000 1.0
C      1  0.3900780000000  0.4720040000000  0.4948930000000 1.0
C      1  0.4308130000000  0.5758210000000  0.5377280000000 1.0
C      1  0.4122860000000  0.5318440000000  0.4551760000000 1.0
C      1  0.5350170000000  0.5152200000000  0.5909910000000 1.0
C      1  0.4344500000000  0.4890210000000  0.5093940000000 1.0
C      1  0.5412810000000  0.5544710000000  0.4492500000000 1.0
C      1  0.4775560000000  0.5210580000000  0.4943360000000 1.0
C      1  0.5632750000000  0.5420100000000  0.4126710000000 1.0
C      1  0.4904010000000  0.4807230000000  0.4155820000000 1.0
C      1  0.4067490000000  0.4573320000000  0.4492460000000 1.0
C      1  0.5792810000000  0.5394140000000  0.5306270000000 1.0
C      1  0.5395240000000  0.5029860000000  0.4604280000000 1.0
C      1  0.4278010000000  0.5440140000000  0.4338860000000 1.0
C      1  0.4912270000000  0.5225430000000  0.6115840000000 1.0
C      1  0.5182810000000  0.5202350000000  0.6140030000000 1.0
C      1  0.3922970000000  0.5221220000000  0.4998920000000 1.0
C      1  0.5116020000000  0.3905750000000  0.5299670000000 1.0
C      1  0.4495220000000  0.4977210000000  0.4654350000000 1.0
C      1  0.4893410000000  0.6004740000000  0.4461030000000 1.0
C      1  0.4953480000000  0.4693620000000  0.5813540000000 1.0
C      1  0.4524710000000  0.4419090000000  0.5204030000000 1.0
C      1  0.4254060000000  0.4357100000000  0.4511090000000 1.0
C      1  0.4364670000000  0.4911450000000  0.4212570000000 1.0
C      1  0.3971180000000  0.4509850000000  0.4759840000000 1.0
C      1  0.4916450000000  0.4968350000000  0.4861650000000 1.0
C      1  0.5021150000000  0.4021730000000  0.5544100000000 1.0
C      1  0.5422180000000  0.4742950000000  0.5889470000000 1.0
C      1  0.5545130000000  0.4940610000000  0.5054040000000 1.0
C      1  0.4933340000000  0.5809380000000  0.4247290000000 1.0
C      1  0.5084960000000  0.5344770000000  0.4352250000000 1.0
C      1  0.6109040000000  0.4811860000000  0.5262270000000 1.0
C      1  0.5954590000000  0.4735390000000  0.4883770000000 1.0
C      1  0.5967320000000  0.5304080000000  0.5102910000000 1.0
END
