TITL C-884134-5972-345 -11.0760296805236 125000 -10853.4450252782 0 0 72 (C1) n - 1
REM
REM in /home/nfs/bkarasulu/CARBON/AIRSS/Generating-Clusters/ReaxFF-fromJPCA2015/Units_Real/with-SteepDescent/Only-C1/SD-CG/Try1-3A/FIRE-CG
REM
REM
REM
REM
REM
REM ./C.cell (11c1c37f851c82e70ff6c80c92926a4b)
REM
REM compiler GCC version 9.2.1 20190827 (Red Hat 9.2.1-1)
REM options -cpp -mtune=generic -march=x86-64 -g -O0 -fpre-include=/usr/include/finclude/math-vector-fortran.h
REM seed -575140107 -628487571 1284756577 1931662241 -1423902212 -1990639137 -876000270 1481887518 -574042762 -1183704974 1875917142 784436785 841431761 -2129017852 1539858167 1011146648 -1663536446 660685243 -856602621 -1103377866 433017572 1211827304 -912732073 -180954299 -1705310405 -1651973805 -643554007 677361703 -519508347 -703406836 2001785552 1915516010 -1257466702
REM
CELL 1.54180   50.00000   50.00000   50.00000   90.00000   90.00000   90.00000
LATT -1
SFAC C  
C      1  0.5221160000000  0.5549360000000  0.5615710000000 1.0
C      1  0.4580110000000  0.4785520000000  0.5627930000000 1.0
C      1  0.5074550000000  0.4644770000000  0.4341820000000 1.0
C      1  0.4639970000000  0.4817240000000  0.4684070000000 1.0
C      1  0.5541130000000  0.4460100000000  0.5440350000000 1.0
C      1  0.4357540000000  0.4883220000000  0.4706920000000 1.0
C      1  0.5715670000000  0.5061710000000  0.4898020000000 1.0
C      1  0.5746990000000  0.5229060000000  0.4662120000000 1.0
C      1  0.4920740000000  0.5096510000000  0.4638100000000 1.0
C      1  0.5591630000000  0.4872890000000  0.5450770000000 1.0
C      1  0.4453650000000  0.4370730000000  0.5019380000000 1.0
C      1  0.5481630000000  0.5465050000000  0.4980180000000 1.0
C      1  0.5406550000000  0.4479230000000  0.4707010000000 1.0
C      1  0.5201540000000  0.4321910000000  0.4778190000000 1.0
C      1  0.4435980000000  0.5455830000000  0.5380750000000 1.0
C      1  0.4879610000000  0.5196420000000  0.5855480000000 1.0
C      1  0.5488970000000  0.5178240000000  0.5039850000000 1.0
C      1  0.4583950000000  0.5596520000000  0.4950640000000 1.0
C      1  0.5257870000000  0.5638380000000  0.5051640000000 1.0
C      1  0.4932310000000  0.4329790000000  0.4664100000000 1.0
C      1  0.4805700000000  0.4918030000000  0.5755120000000 1.0
C      1  0.4977550000000  0.5359700000000  0.5331280000000 1.0
C      1  0.5373260000000  0.5265830000000  0.4392490000000 1.0
C      1  0.4385820000000  0.5200490000000  0.5448060000000 1.0
C      1  0.5272590000000  0.5064280000000  0.5766340000000 1.0
C      1  0.5243440000000  0.5014730000000  0.5077260000000 1.0
C      1  0.4563360000000  0.4954400000000  0.4279240000000 1.0
C      1  0.4361040000000  0.5504710000000  0.5086990000000 1.0
C      1  0.5419950000000  0.5533010000000  0.4504680000000 1.0
C      1  0.5090500000000  0.5700280000000  0.4822990000000 1.0
C      1  0.5078970000000  0.4841010000000  0.5714650000000 1.0
C      1  0.4724650000000  0.5445060000000  0.5482170000000 1.0
C      1  0.5140420000000  0.5099610000000  0.4433100000000 1.0
C      1  0.4986260000000  0.5635110000000  0.4323820000000 1.0
C      1  0.4273360000000  0.4983600000000  0.4966390000000 1.0
C      1  0.5707780000000  0.4646520000000  0.5385100000000 1.0
C      1  0.5088750000000  0.4659760000000  0.5196780000000 1.0
C      1  0.4677960000000  0.4723460000000  0.4421130000000 1.0
C      1  0.5147110000000  0.4660860000000  0.5486750000000 1.0
C      1  0.4735670000000  0.5335250000000  0.4653820000000 1.0
C      1  0.4355680000000  0.4929050000000  0.5484350000000 1.0
C      1  0.5261680000000  0.4846120000000  0.4323680000000 1.0
C      1  0.5054390000000  0.4381020000000  0.5064690000000 1.0
C      1  0.4708280000000  0.4669950000000  0.4911300000000 1.0
C      1  0.4372740000000  0.5059740000000  0.4478650000000 1.0
C      1  0.5621250000000  0.5103940000000  0.4426890000000 1.0
C      1  0.4312500000000  0.5273000000000  0.4908020000000 1.0
C      1  0.4446330000000  0.5291610000000  0.4643240000000 1.0
C      1  0.5142110000000  0.5602780000000  0.5331160000000 1.0
C      1  0.5152960000000  0.5325190000000  0.5805560000000 1.0
C      1  0.4810840000000  0.4378680000000  0.5448150000000 1.0
C      1  0.4582240000000  0.4523820000000  0.5498600000000 1.0
C      1  0.5184870000000  0.5146370000000  0.5322740000000 1.0
C      1  0.5177680000000  0.5690020000000  0.4545800000000 1.0
C      1  0.5612360000000  0.5482310000000  0.4718330000000 1.0
C      1  0.5280290000000  0.4401320000000  0.5516540000000 1.0
C      1  0.4863190000000  0.4485960000000  0.4413270000000 1.0
C      1  0.4765770000000  0.4372270000000  0.4905470000000 1.0
C      1  0.5746000000000  0.4770290000000  0.4885500000000 1.0
C      1  0.5723890000000  0.4643290000000  0.5128770000000 1.0
C      1  0.5615480000000  0.4642790000000  0.4635980000000 1.0
C      1  0.5012600000000  0.5016360000000  0.4909380000000 1.0
C      1  0.4706810000000  0.5171830000000  0.4143190000000 1.0
C      1  0.4888900000000  0.4820240000000  0.5058860000000 1.0
C      1  0.4292310000000  0.4822150000000  0.5210830000000 1.0
C      1  0.4806260000000  0.5594950000000  0.4791320000000 1.0
C      1  0.5550480000000  0.4826730000000  0.4414890000000 1.0
C      1  0.4838240000000  0.5434860000000  0.4173060000000 1.0
C      1  0.5408990000000  0.5079190000000  0.5503760000000 1.0
C      1  0.4694610000000  0.5419690000000  0.5781890000000 1.0
C      1  0.5052240000000  0.4271280000000  0.5355440000000 1.0
C      1  0.4392300000000  0.4544990000000  0.5239500000000 1.0
END
