TITL C-884128-4793-302 11.1714531915731 125000 -20607.8343478173 0 0 137 (C1) n - 1
REM
REM in /home/nfs/bkarasulu/CARBON/AIRSS/Generating-Clusters/ReaxFF-fromJPCA2015/Units_Real/with-SteepDescent/Only-C1/SD-CG/Try1-3A/FIRE-CG
REM
REM
REM
REM
REM
REM ./C.cell (11c1c37f851c82e70ff6c80c92926a4b)
REM
REM compiler GCC version 9.2.1 20190827 (Red Hat 9.2.1-1)
REM options -cpp -mtune=generic -march=x86-64 -g -O0 -fpre-include=/usr/include/finclude/math-vector-fortran.h
REM seed -351034732 -12295278 -1154693141 1828324488 -1502258281 1781371874 1196448780 -814677171 868147012 -301982974 1071122645 1452122312 277136038 -2130871198 388492321 -1385679575 1143670302 475894332 -68529882 1304268610 -591188334 722112730 2007932222 -1609175754 -1767691537 -1357814275 -1445283416 -1931710093 -1161923308 339320033 223186429 1008190554 -1958468459
REM
CELL 1.54180   50.00000   50.00000   50.00000   90.00000   90.00000   90.00000
LATT -1
SFAC C  
C      1  0.4438340000000  0.4131780000000  0.4972180000000 1.0
C      1  0.4599060000000  0.4893330000000  0.4089880000000 1.0
C      1  0.4115520000000  0.4749840000000  0.5346200000000 1.0
C      1  0.5283190000000  0.5268660000000  0.5835600000000 1.0
C      1  0.4920210000000  0.4490730000000  0.5314630000000 1.0
C      1  0.5474190000000  0.4094780000000  0.5044600000000 1.0
C      1  0.4692670000000  0.5803250000000  0.4628280000000 1.0
C      1  0.5159310000000  0.4570240000000  0.4947490000000 1.0
C      1  0.4820110000000  0.5171290000000  0.4867880000000 1.0
C      1  0.4610190000000  0.4694180000000  0.5678100000000 1.0
C      1  0.5104060000000  0.5432120000000  0.4142820000000 1.0
C      1  0.4678270000000  0.4864630000000  0.5448300000000 1.0
C      1  0.4333390000000  0.5536790000000  0.5563090000000 1.0
C      1  0.5965830000000  0.4757320000000  0.5331510000000 1.0
C      1  0.5937660000000  0.5229360000000  0.5263770000000 1.0
C      1  0.4926310000000  0.5969960000000  0.5234410000000 1.0
C      1  0.4045840000000  0.5244390000000  0.5273530000000 1.0
C      1  0.4212480000000  0.5723780000000  0.4831400000000 1.0
C      1  0.4883160000000  0.5661080000000  0.5524130000000 1.0
C      1  0.5792020000000  0.5529180000000  0.4864900000000 1.0
C      1  0.5372880000000  0.4226420000000  0.5508610000000 1.0
C      1  0.4709930000000  0.5015300000000  0.5929020000000 1.0
C      1  0.4191970000000  0.4861820000000  0.4373210000000 1.0
C      1  0.4573520000000  0.5135970000000  0.5430610000000 1.0
C      1  0.5374040000000  0.6020020000000  0.5183550000000 1.0
C      1  0.5111870000000  0.5619490000000  0.4857050000000 1.0
C      1  0.5881920000000  0.4616490000000  0.5557380000000 1.0
C      1  0.4947200000000  0.4578570000000  0.4075210000000 1.0
C      1  0.4519060000000  0.5733620000000  0.5164020000000 1.0
C      1  0.5496650000000  0.4810970000000  0.5958130000000 1.0
C      1  0.5671760000000  0.5316720000000  0.4689190000000 1.0
C      1  0.5022470000000  0.5516930000000  0.5303610000000 1.0
C      1  0.5126420000000  0.4306910000000  0.5370540000000 1.0
C      1  0.5071980000000  0.5331130000000  0.4835880000000 1.0
C      1  0.5301720000000  0.5495420000000  0.5339700000000 1.0
C      1  0.5300140000000  0.4806600000000  0.4218840000000 1.0
C      1  0.4686090000000  0.4110400000000  0.5133890000000 1.0
C      1  0.4470370000000  0.4908570000000  0.5830880000000 1.0
C      1  0.5762430000000  0.4405300000000  0.4653430000000 1.0
C      1  0.5745240000000  0.4986600000000  0.4412980000000 1.0
C      1  0.4306690000000  0.5495970000000  0.4375780000000 1.0
C      1  0.4418870000000  0.5898690000000  0.4716800000000 1.0
C      1  0.5163620000000  0.5994710000000  0.5403580000000 1.0
C      1  0.4857810000000  0.5033540000000  0.4079520000000 1.0
C      1  0.4901670000000  0.5115620000000  0.4359400000000 1.0
C      1  0.5607630000000  0.4654930000000  0.4960250000000 1.0
C      1  0.4097860000000  0.5011940000000  0.5452870000000 1.0
C      1  0.5090840000000  0.4824130000000  0.5080290000000 1.0
C      1  0.5374910000000  0.4649440000000  0.4756110000000 1.0
C      1  0.5591530000000  0.4198990000000  0.5314650000000 1.0
C      1  0.4611150000000  0.5435840000000  0.5607400000000 1.0
C      1  0.4910140000000  0.4904040000000  0.4851670000000 1.0
C      1  0.5867240000000  0.4620430000000  0.4839360000000 1.0
C      1  0.4604860000000  0.5216600000000  0.5086110000000 1.0
C      1  0.5320150000000  0.5095110000000  0.5596550000000 1.0
C      1  0.5249680000000  0.5163650000000  0.4694440000000 1.0
C      1  0.5189790000000  0.4020170000000  0.4980680000000 1.0
C      1  0.5070680000000  0.5661030000000  0.4280220000000 1.0
C      1  0.5082860000000  0.4113720000000  0.4715770000000 1.0
C      1  0.5335300000000  0.5782480000000  0.4734990000000 1.0
C      1  0.4140500000000  0.5514170000000  0.5340480000000 1.0
C      1  0.5326200000000  0.6066270000000  0.4907360000000 1.0
C      1  0.5522050000000  0.5745300000000  0.5179370000000 1.0
C      1  0.5787740000000  0.4395780000000  0.5392250000000 1.0
C      1  0.5768810000000  0.5660510000000  0.5329940000000 1.0
C      1  0.4685690000000  0.5524620000000  0.4720330000000 1.0
C      1  0.4375060000000  0.4200810000000  0.4688100000000 1.0
C      1  0.5796200000000  0.5278960000000  0.5522310000000 1.0
C      1  0.4974420000000  0.5710050000000  0.5090750000000 1.0
C      1  0.5357720000000  0.5046890000000  0.5114210000000 1.0
C      1  0.4994750000000  0.4059900000000  0.5450430000000 1.0
C      1  0.4947360000000  0.4776260000000  0.5341250000000 1.0
C      1  0.4188110000000  0.4417280000000  0.4629720000000 1.0
C      1  0.5154630000000  0.4906450000000  0.4673390000000 1.0
C      1  0.4936670000000  0.5011180000000  0.5846210000000 1.0
C      1  0.4144420000000  0.4614440000000  0.4851970000000 1.0
C      1  0.4785510000000  0.4225300000000  0.5595310000000 1.0
C      1  0.5156730000000  0.5779710000000  0.5597150000000 1.0
C      1  0.4404830000000  0.4785850000000  0.4881550000000 1.0
C      1  0.5124830000000  0.4368860000000  0.4212470000000 1.0
C      1  0.4958460000000  0.3991230000000  0.5161000000000 1.0
C      1  0.6004690000000  0.4964000000000  0.5142020000000 1.0
C      1  0.4664360000000  0.4721190000000  0.4790630000000 1.0
C      1  0.4476790000000  0.4452110000000  0.4272380000000 1.0
C      1  0.5470130000000  0.4667820000000  0.5439550000000 1.0
C      1  0.5457360000000  0.5188040000000  0.4862480000000 1.0
C      1  0.4372900000000  0.5046090000000  0.4991750000000 1.0
C      1  0.5873760000000  0.5062940000000  0.4636720000000 1.0
C      1  0.5360610000000  0.5066310000000  0.6030960000000 1.0
C      1  0.5326980000000  0.5651280000000  0.4439100000000 1.0
C      1  0.5098840000000  0.4921720000000  0.4417650000000 1.0
C      1  0.4015750000000  0.4996830000000  0.4569350000000 1.0
C      1  0.4784830000000  0.5763750000000  0.4340260000000 1.0
C      1  0.5530830000000  0.4805960000000  0.5201540000000 1.0
C      1  0.5372240000000  0.4508370000000  0.4277330000000 1.0
C      1  0.5326530000000  0.4576220000000  0.5902900000000 1.0
C      1  0.5510350000000  0.5439000000000  0.4428040000000 1.0
C      1  0.4606300000000  0.5503100000000  0.4987560000000 1.0
C      1  0.4238400000000  0.4574360000000  0.4383620000000 1.0
C      1  0.4677050000000  0.4325820000000  0.5338230000000 1.0
C      1  0.4980600000000  0.4380920000000  0.4817280000000 1.0
C      1  0.4344590000000  0.5066060000000  0.5608520000000 1.0
C      1  0.5080160000000  0.5159470000000  0.6015870000000 1.0
C      1  0.4576830000000  0.4293780000000  0.4500180000000 1.0
C      1  0.5640630000000  0.4198520000000  0.4831430000000 1.0
C      1  0.4661740000000  0.4610150000000  0.4105270000000 1.0
C      1  0.4152820000000  0.5505740000000  0.4633640000000 1.0
C      1  0.5569380000000  0.4986900000000  0.4202370000000 1.0
C      1  0.5119480000000  0.4214950000000  0.4453930000000 1.0
C      1  0.5296880000000  0.5222480000000  0.5341140000000 1.0
C      1  0.5227240000000  0.5201270000000  0.4072930000000 1.0
C      1  0.5102280000000  0.4856780000000  0.5616150000000 1.0
C      1  0.5663850000000  0.5539490000000  0.5567530000000 1.0
C      1  0.4231070000000  0.5702930000000  0.5134610000000 1.0
C      1  0.4309240000000  0.4303370000000  0.5154960000000 1.0
C      1  0.4463220000000  0.5246940000000  0.4377130000000 1.0
C      1  0.4154840000000  0.4513730000000  0.5240780000000 1.0
C      1  0.5723510000000  0.4815790000000  0.5764930000000 1.0
C      1  0.5501420000000  0.4474230000000  0.4534290000000 1.0
C      1  0.5453960000000  0.4475690000000  0.5654900000000 1.0
C      1  0.5072620000000  0.4835640000000  0.4016910000000 1.0
C      1  0.5060040000000  0.4624840000000  0.5798510000000 1.0
C      1  0.5595770000000  0.5735120000000  0.4891170000000 1.0
C      1  0.4746260000000  0.4474870000000  0.4670690000000 1.0
C      1  0.4808350000000  0.4478750000000  0.5747960000000 1.0
C      1  0.5368310000000  0.5573280000000  0.5628950000000 1.0
C      1  0.4043050000000  0.5256400000000  0.4721770000000 1.0
C      1  0.4391420000000  0.5010280000000  0.4241340000000 1.0
C      1  0.5976310000000  0.4890050000000  0.4849420000000 1.0
C      1  0.5641110000000  0.5057920000000  0.5640930000000 1.0
C      1  0.4104050000000  0.5166810000000  0.4998920000000 1.0
C      1  0.3917640000000  0.4792830000000  0.4763200000000 1.0
C      1  0.5905480000000  0.5482690000000  0.5132470000000 1.0
C      1  0.5486810000000  0.5270100000000  0.4183850000000 1.0
C      1  0.4712050000000  0.5260270000000  0.4543370000000 1.0
C      1  0.4535790000000  0.5643300000000  0.4282970000000 1.0
C      1  0.4699130000000  0.5851920000000  0.5367210000000 1.0
END
