TITL C-884137-4758-125 32.4097139187742 125000 -18619.6808402868 0 0 125 (C1) n - 1
REM
REM in /home/nfs/bkarasulu/CARBON/AIRSS/Generating-Clusters/ReaxFF-fromJPCA2015/Units_Real/with-SteepDescent/Only-C1/SD-CG/Try1-3A/FIRE-CG
REM
REM
REM
REM
REM
REM ./C.cell (11c1c37f851c82e70ff6c80c92926a4b)
REM
REM compiler GCC version 9.2.1 20190827 (Red Hat 9.2.1-1)
REM options -cpp -mtune=generic -march=x86-64 -g -O0 -fpre-include=/usr/include/finclude/math-vector-fortran.h
REM seed 1099698358 -126563606 -764047444 -422916004 -1277926389 -1484309929 1651989302 1378095633 1615567621 -476219940 303337185 -819510115 1409764697 1204116127 -2116984063 -1965014034 -853629832 1484565885 -1819730270 1314400743 579149119 1878477103 766573530 385322903 1579469626 -1254390971 -2065668254 -253092200 -353955711 -69739119 -13541706 -1997287924 -1328601259
REM
CELL 1.54180   50.00000   50.00000   50.00000   90.00000   90.00000   90.00000
LATT -1
SFAC C  
C      1  0.4923700000000  0.4803090000000  0.4743140000000 1.0
C      1  0.4867150000000  0.4946790000000  0.4984760000000 1.0
C      1  0.4982080000000  0.5459430000000  0.5861140000000 1.0
C      1  0.4349940000000  0.3953160000000  0.5053040000000 1.0
C      1  0.5356520000000  0.5230380000000  0.4094600000000 1.0
C      1  0.4544980000000  0.5952290000000  0.5209950000000 1.0
C      1  0.5131730000000  0.5037990000000  0.5076590000000 1.0
C      1  0.4190940000000  0.5374410000000  0.5312740000000 1.0
C      1  0.5405190000000  0.4244580000000  0.4686150000000 1.0
C      1  0.5084020000000  0.5003860000000  0.4601300000000 1.0
C      1  0.4997900000000  0.4461740000000  0.5114860000000 1.0
C      1  0.4396330000000  0.4988230000000  0.4257020000000 1.0
C      1  0.5127570000000  0.5797540000000  0.5589860000000 1.0
C      1  0.5341700000000  0.5832640000000  0.4946670000000 1.0
C      1  0.4440070000000  0.4909890000000  0.4800160000000 1.0
C      1  0.5448080000000  0.4770870000000  0.4115790000000 1.0
C      1  0.4482840000000  0.5186970000000  0.5760730000000 1.0
C      1  0.4971020000000  0.5190560000000  0.4434460000000 1.0
C      1  0.5617280000000  0.4719030000000  0.4577370000000 1.0
C      1  0.5089200000000  0.5775560000000  0.4512130000000 1.0
C      1  0.4744980000000  0.5472280000000  0.4756660000000 1.0
C      1  0.4603780000000  0.4474470000000  0.5777700000000 1.0
C      1  0.4947450000000  0.6006760000000  0.5193640000000 1.0
C      1  0.4009140000000  0.5189610000000  0.5231570000000 1.0
C      1  0.4993590000000  0.4492170000000  0.4222450000000 1.0
C      1  0.5868010000000  0.4746620000000  0.5306190000000 1.0
C      1  0.4643370000000  0.5748490000000  0.4725250000000 1.0
C      1  0.5209630000000  0.5537260000000  0.5694610000000 1.0
C      1  0.4937240000000  0.4158030000000  0.5217340000000 1.0
C      1  0.5266410000000  0.4970970000000  0.4008850000000 1.0
C      1  0.4609010000000  0.4734000000000  0.5879640000000 1.0
C      1  0.4970300000000  0.3956210000000  0.5012040000000 1.0
C      1  0.5598740000000  0.5301660000000  0.4234190000000 1.0
C      1  0.5660820000000  0.4829830000000  0.4306940000000 1.0
C      1  0.4875300000000  0.5459230000000  0.4061110000000 1.0
C      1  0.4857720000000  0.5191260000000  0.3990100000000 1.0
C      1  0.5620100000000  0.4451040000000  0.5009170000000 1.0
C      1  0.4181600000000  0.5475960000000  0.4840110000000 1.0
C      1  0.5445450000000  0.4632850000000  0.5385570000000 1.0
C      1  0.4542200000000  0.4702310000000  0.4609060000000 1.0
C      1  0.4942180000000  0.3998410000000  0.4711190000000 1.0
C      1  0.4142990000000  0.4928270000000  0.4380520000000 1.0
C      1  0.4904300000000  0.5385530000000  0.5205540000000 1.0
C      1  0.4722410000000  0.4103740000000  0.5416180000000 1.0
C      1  0.4000110000000  0.4905710000000  0.4560790000000 1.0
C      1  0.4272670000000  0.5594210000000  0.4459520000000 1.0
C      1  0.4963200000000  0.4932380000000  0.4000080000000 1.0
C      1  0.4800530000000  0.5774060000000  0.4456540000000 1.0
C      1  0.4453330000000  0.5451370000000  0.5365990000000 1.0
C      1  0.4846280000000  0.5847570000000  0.5635360000000 1.0
C      1  0.4247100000000  0.5023630000000  0.5694780000000 1.0
C      1  0.5218980000000  0.5067620000000  0.6017990000000 1.0
C      1  0.4900530000000  0.4736430000000  0.5502660000000 1.0
C      1  0.4960940000000  0.4175240000000  0.5845150000000 1.0
C      1  0.4384310000000  0.4425990000000  0.5021960000000 1.0
C      1  0.5688120000000  0.5683030000000  0.5280880000000 1.0
C      1  0.4156030000000  0.4980160000000  0.4789430000000 1.0
C      1  0.5187190000000  0.5215770000000  0.4852620000000 1.0
C      1  0.5462120000000  0.4360480000000  0.5694470000000 1.0
C      1  0.5192920000000  0.5904540000000  0.5322990000000 1.0
C      1  0.4423730000000  0.5525840000000  0.4232440000000 1.0
C      1  0.4583430000000  0.4770520000000  0.4327610000000 1.0
C      1  0.5865590000000  0.5394330000000  0.4874610000000 1.0
C      1  0.4920110000000  0.4525670000000  0.4832230000000 1.0
C      1  0.5346000000000  0.4847900000000  0.5003210000000 1.0
C      1  0.4709190000000  0.4226990000000  0.5701520000000 1.0
C      1  0.4823950000000  0.4712740000000  0.4158970000000 1.0
C      1  0.4357560000000  0.4787120000000  0.5795320000000 1.0
C      1  0.5529910000000  0.4907670000000  0.4794380000000 1.0
C      1  0.5069430000000  0.4413540000000  0.5892820000000 1.0
C      1  0.5462370000000  0.5861050000000  0.5191380000000 1.0
C      1  0.5323700000000  0.4582380000000  0.5116510000000 1.0
C      1  0.4347070000000  0.4204790000000  0.4840390000000 1.0
C      1  0.5646870000000  0.5000640000000  0.5677530000000 1.0
C      1  0.5204100000000  0.4846340000000  0.4448440000000 1.0
C      1  0.5487110000000  0.4983010000000  0.5925990000000 1.0
C      1  0.6009120000000  0.5124000000000  0.4499190000000 1.0
C      1  0.4317550000000  0.4790410000000  0.5316640000000 1.0
C      1  0.5141350000000  0.5735720000000  0.4801120000000 1.0
C      1  0.5546480000000  0.5510330000000  0.4433750000000 1.0
C      1  0.5557390000000  0.5218910000000  0.5509810000000 1.0
C      1  0.4700870000000  0.5638960000000  0.4217900000000 1.0
C      1  0.4959390000000  0.5189660000000  0.5965930000000 1.0
C      1  0.4061550000000  0.5243390000000  0.4939750000000 1.0
C      1  0.4666940000000  0.4440820000000  0.4708690000000 1.0
C      1  0.5283840000000  0.5615670000000  0.4368100000000 1.0
C      1  0.5336940000000  0.4613620000000  0.5651000000000 1.0
C      1  0.5251550000000  0.4208840000000  0.5823420000000 1.0
C      1  0.5059020000000  0.4653460000000  0.5729940000000 1.0
C      1  0.5967850000000  0.4892790000000  0.4937010000000 1.0
C      1  0.4718830000000  0.5917650000000  0.5006930000000 1.0
C      1  0.4745290000000  0.5609230000000  0.5764230000000 1.0
C      1  0.4911100000000  0.4996230000000  0.5551640000000 1.0
C      1  0.4132000000000  0.4964700000000  0.5407030000000 1.0
C      1  0.5623580000000  0.5426770000000  0.4711380000000 1.0
C      1  0.4998360000000  0.5466500000000  0.4925550000000 1.0
C      1  0.4753110000000  0.5032380000000  0.5803610000000 1.0
C      1  0.4800420000000  0.4609400000000  0.5280780000000 1.0
C      1  0.4714570000000  0.5284100000000  0.4535660000000 1.0
C      1  0.5888570000000  0.4657190000000  0.5052550000000 1.0
C      1  0.4741850000000  0.6020100000000  0.5410460000000 1.0
C      1  0.5642800000000  0.4245350000000  0.5201130000000 1.0
C      1  0.4633160000000  0.5297190000000  0.5177720000000 1.0
C      1  0.4532520000000  0.4026010000000  0.5249610000000 1.0
C      1  0.5855810000000  0.5491000000000  0.5146470000000 1.0
C      1  0.4508480000000  0.4611060000000  0.5223610000000 1.0
C      1  0.5625220000000  0.4407380000000  0.5449850000000 1.0
C      1  0.5473300000000  0.5194110000000  0.4801370000000 1.0
C      1  0.4318690000000  0.5688180000000  0.4718630000000 1.0
C      1  0.4754840000000  0.4188650000000  0.4569740000000 1.0
C      1  0.5134920000000  0.5391200000000  0.4229980000000 1.0
C      1  0.5164980000000  0.4115760000000  0.4560890000000 1.0
C      1  0.4609310000000  0.5050280000000  0.5003340000000 1.0
C      1  0.5278340000000  0.4596680000000  0.4310710000000 1.0
C      1  0.5566670000000  0.4188120000000  0.4930360000000 1.0
C      1  0.5805080000000  0.5090210000000  0.4291790000000 1.0
C      1  0.5476020000000  0.4472660000000  0.4536420000000 1.0
C      1  0.5711700000000  0.5425870000000  0.5413980000000 1.0
C      1  0.5068660000000  0.5198940000000  0.5374490000000 1.0
C      1  0.4518600000000  0.5454540000000  0.5661260000000 1.0
C      1  0.6018470000000  0.5136320000000  0.4797800000000 1.0
C      1  0.4483440000000  0.5255710000000  0.4348540000000 1.0
C      1  0.5312130000000  0.5339900000000  0.5503050000000 1.0
C      1  0.4963840000000  0.4246030000000  0.4370030000000 1.0
C      1  0.5776000000000  0.4773400000000  0.5554480000000 1.0
END
