TITL C-883735-9890-130 -4.769698474329 125000 -4974.92391490644 0 0 35 (C1) n - 1
REM
REM in /home/nfs/bkarasulu/CARBON/AIRSS/Generating-Clusters/ReaxFF-fromJPCA2015/Units_Real/with-SteepDescent/Only-C1/SD-CG/Try1-3A/FIRE-CG
REM
REM
REM
REM
REM
REM ./C.cell (11c1c37f851c82e70ff6c80c92926a4b)
REM
REM compiler GCC version 9.2.1 20190827 (Red Hat 9.2.1-1)
REM options -cpp -mtune=generic -march=x86-64 -g -O0 -fpre-include=/usr/include/finclude/math-vector-fortran.h
REM seed 1831494429 -1824572049 27874445 -1878902635 556364145 -89111800 -1484490191 -885364758 912499438 317605202 -1877552259 -1424509657 636250406 -1009837851 -80575808 -1354334369 1342147069 -1597989888 34090574 361292421 -1189822225 -575378178 1176714230 1393355093 -340079566 1499151469 183169180 306918353 -1496152905 -946674384 -1175967541 -515017215 -864790176
REM
CELL 1.54180   50.00000   50.00000   50.00000   90.00000   90.00000   90.00000
LATT -1
SFAC C  
C      1  0.4468040000000  0.5239780000000  0.5260760000000 1.0
C      1  0.4903410000000  0.4331710000000  0.5377870000000 1.0
C      1  0.4571000000000  0.5296970000000  0.5485440000000 1.0
C      1  0.4741570000000  0.5312620000000  0.5665130000000 1.0
C      1  0.4866250000000  0.4540750000000  0.5230650000000 1.0
C      1  0.5231590000000  0.5108070000000  0.4449600000000 1.0
C      1  0.5400130000000  0.4860660000000  0.4424550000000 1.0
C      1  0.5502670000000  0.5297750000000  0.4867400000000 1.0
C      1  0.4601200000000  0.5102550000000  0.4801820000000 1.0
C      1  0.5327590000000  0.4609880000000  0.4584270000000 1.0
C      1  0.5564370000000  0.5266150000000  0.5280860000000 1.0
C      1  0.4822260000000  0.5233130000000  0.4659680000000 1.0
C      1  0.4937190000000  0.5664530000000  0.5055100000000 1.0
C      1  0.4643300000000  0.4637690000000  0.4571310000000 1.0
C      1  0.5480530000000  0.5221770000000  0.5572730000000 1.0
C      1  0.4858640000000  0.4788900000000  0.4405210000000 1.0
C      1  0.4938410000000  0.4134010000000  0.5516610000000 1.0
C      1  0.5394340000000  0.4626810000000  0.4882910000000 1.0
C      1  0.5106440000000  0.5430470000000  0.5100230000000 1.0
C      1  0.5558630000000  0.5068470000000  0.5056700000000 1.0
C      1  0.4940100000000  0.5070470000000  0.4444490000000 1.0
C      1  0.5015500000000  0.5177620000000  0.5272510000000 1.0
C      1  0.5430570000000  0.5453080000000  0.5102100000000 1.0
C      1  0.5285090000000  0.5309300000000  0.4663870000000 1.0
C      1  0.5247790000000  0.5217430000000  0.5735600000000 1.0
C      1  0.5067260000000  0.4916260000000  0.5162860000000 1.0
C      1  0.5036890000000  0.5393360000000  0.4778280000000 1.0
C      1  0.4598090000000  0.4806910000000  0.4867370000000 1.0
C      1  0.4318660000000  0.4854620000000  0.4992460000000 1.0
C      1  0.4977630000000  0.5221290000000  0.5563570000000 1.0
C      1  0.4835430000000  0.4747850000000  0.5088850000000 1.0
C      1  0.5357110000000  0.4849240000000  0.5063550000000 1.0
C      1  0.4523970000000  0.4422620000000  0.4506360000000 1.0
C      1  0.5058160000000  0.4632590000000  0.4503450000000 1.0
C      1  0.4390190000000  0.5154670000000  0.5005840000000 1.0
END
