TITL C-884138-6203-348 4.90165931337009 125000 -13896.8775281385 0 0 93 (C1) n - 1
REM
REM in /home/nfs/bkarasulu/CARBON/AIRSS/Generating-Clusters/ReaxFF-fromJPCA2015/Units_Real/with-SteepDescent/Only-C1/SD-CG/Try1-3A/FIRE-CG
REM
REM
REM
REM
REM
REM ./C.cell (11c1c37f851c82e70ff6c80c92926a4b)
REM
REM compiler GCC version 9.2.1 20190827 (Red Hat 9.2.1-1)
REM options -cpp -mtune=generic -march=x86-64 -g -O0 -fpre-include=/usr/include/finclude/math-vector-fortran.h
REM seed 1286465935 1613024398 -513667147 -1082914629 992904371 1777339843 -904875719 -158336992 -1920474467 324619626 1212471983 -93077652 42354793 1628028662 1498635531 1202023740 -1898062147 -1407767427 1221331554 657417640 -530302194 -1944365676 585304116 -1846982916 637276170 76490965 1084758641 605867690 939571338 -1366936292 1283346354 1185188794 760910118
REM
CELL 1.54180   50.00000   50.00000   50.00000   90.00000   90.00000   90.00000
LATT -1
SFAC C  
C      1  0.5378220000000  0.5161630000000  0.5762730000000 1.0
C      1  0.4508370000000  0.4911950000000  0.5637170000000 1.0
C      1  0.5241480000000  0.4711170000000  0.4759150000000 1.0
C      1  0.5301390000000  0.4200220000000  0.4954890000000 1.0
C      1  0.4175310000000  0.4903010000000  0.5234730000000 1.0
C      1  0.4778090000000  0.5775680000000  0.4667760000000 1.0
C      1  0.4884340000000  0.3996410000000  0.4940650000000 1.0
C      1  0.4699440000000  0.5116400000000  0.5724420000000 1.0
C      1  0.5718550000000  0.4813600000000  0.5553930000000 1.0
C      1  0.4744070000000  0.5779060000000  0.5476310000000 1.0
C      1  0.4826820000000  0.4636820000000  0.4285800000000 1.0
C      1  0.5408410000000  0.4664430000000  0.5169160000000 1.0
C      1  0.5004570000000  0.4580350000000  0.5674740000000 1.0
C      1  0.5091390000000  0.4318210000000  0.5560330000000 1.0
C      1  0.5290780000000  0.4502870000000  0.4966070000000 1.0
C      1  0.4741250000000  0.4911990000000  0.4888990000000 1.0
C      1  0.5619860000000  0.4521640000000  0.5500690000000 1.0
C      1  0.5679980000000  0.4570000000000  0.5207280000000 1.0
C      1  0.5359650000000  0.4410930000000  0.5537900000000 1.0
C      1  0.4976940000000  0.5362230000000  0.4800010000000 1.0
C      1  0.5482390000000  0.4821780000000  0.4361010000000 1.0
C      1  0.4738160000000  0.5327220000000  0.4634790000000 1.0
C      1  0.4978400000000  0.5895750000000  0.4885860000000 1.0
C      1  0.4181060000000  0.4612660000000  0.4867960000000 1.0
C      1  0.5288880000000  0.4970520000000  0.5162890000000 1.0
C      1  0.5003680000000  0.5548590000000  0.4245110000000 1.0
C      1  0.4382370000000  0.4387690000000  0.4889150000000 1.0
C      1  0.4255490000000  0.4995740000000  0.5506160000000 1.0
C      1  0.5424630000000  0.5320900000000  0.4616030000000 1.0
C      1  0.4879460000000  0.5298820000000  0.4155820000000 1.0
C      1  0.5478760000000  0.5777340000000  0.4804480000000 1.0
C      1  0.4607100000000  0.5502110000000  0.5143740000000 1.0
C      1  0.4610290000000  0.4414450000000  0.5380220000000 1.0
C      1  0.4176610000000  0.5254800000000  0.5447820000000 1.0
C      1  0.5616670000000  0.5376800000000  0.5126560000000 1.0
C      1  0.4767670000000  0.5379540000000  0.5602450000000 1.0
C      1  0.4161520000000  0.5066060000000  0.4986650000000 1.0
C      1  0.5842120000000  0.5098460000000  0.4680720000000 1.0
C      1  0.4808620000000  0.4168340000000  0.4713280000000 1.0
C      1  0.5549310000000  0.4981370000000  0.5665560000000 1.0
C      1  0.5114590000000  0.4031840000000  0.5122220000000 1.0
C      1  0.4575190000000  0.5566300000000  0.4690750000000 1.0
C      1  0.4652270000000  0.4409100000000  0.4776430000000 1.0
C      1  0.5266060000000  0.5459930000000  0.4150560000000 1.0
C      1  0.4372420000000  0.4408580000000  0.5182640000000 1.0
C      1  0.5720250000000  0.5634990000000  0.4379800000000 1.0
C      1  0.5247050000000  0.4971240000000  0.4866570000000 1.0
C      1  0.5199400000000  0.5204000000000  0.4729520000000 1.0
C      1  0.4851460000000  0.5359920000000  0.5064410000000 1.0
C      1  0.5389930000000  0.5249140000000  0.5270520000000 1.0
C      1  0.4149800000000  0.5401150000000  0.5240050000000 1.0
C      1  0.4857370000000  0.4014800000000  0.5219160000000 1.0
C      1  0.5672580000000  0.5334810000000  0.4781120000000 1.0
C      1  0.5187710000000  0.5094170000000  0.5991600000000 1.0
C      1  0.4379730000000  0.5129650000000  0.4293160000000 1.0
C      1  0.5026130000000  0.5781630000000  0.5436460000000 1.0
C      1  0.4775630000000  0.4605390000000  0.5227100000000 1.0
C      1  0.4822860000000  0.5074740000000  0.5122890000000 1.0
C      1  0.4579250000000  0.4625230000000  0.5640250000000 1.0
C      1  0.5320220000000  0.4996420000000  0.4226840000000 1.0
C      1  0.5269770000000  0.4649900000000  0.4473590000000 1.0
C      1  0.5002480000000  0.5729060000000  0.4492550000000 1.0
C      1  0.5874660000000  0.4830590000000  0.4797750000000 1.0
C      1  0.5026040000000  0.4964100000000  0.5293360000000 1.0
C      1  0.4998970000000  0.5846540000000  0.5160930000000 1.0
C      1  0.5034920000000  0.5491290000000  0.5555160000000 1.0
C      1  0.4932510000000  0.4731580000000  0.5424500000000 1.0
C      1  0.4404900000000  0.5543000000000  0.4933900000000 1.0
C      1  0.4168640000000  0.4886770000000  0.4761910000000 1.0
C      1  0.5858570000000  0.4771610000000  0.5087340000000 1.0
C      1  0.4759460000000  0.4549440000000  0.5860620000000 1.0
C      1  0.5223390000000  0.4192720000000  0.4687080000000 1.0
C      1  0.4903280000000  0.5053320000000  0.5929760000000 1.0
C      1  0.4707330000000  0.4901190000000  0.4366460000000 1.0
C      1  0.5868600000000  0.4960170000000  0.5313900000000 1.0
C      1  0.4580680000000  0.5548940000000  0.5438630000000 1.0
C      1  0.5719110000000  0.5626090000000  0.4674650000000 1.0
C      1  0.4212870000000  0.5015560000000  0.4484300000000 1.0
C      1  0.5158420000000  0.5184640000000  0.4090820000000 1.0
C      1  0.4693110000000  0.5036330000000  0.4634280000000 1.0
C      1  0.4768060000000  0.4627860000000  0.4937610000000 1.0
C      1  0.4636510000000  0.5131930000000  0.4179790000000 1.0
C      1  0.5740020000000  0.4876280000000  0.4537580000000 1.0
C      1  0.4164300000000  0.4615440000000  0.5163470000000 1.0
C      1  0.4863550000000  0.4226840000000  0.5388610000000 1.0
C      1  0.5556540000000  0.5692460000000  0.5062670000000 1.0
C      1  0.5860740000000  0.5243890000000  0.5271020000000 1.0
C      1  0.4168400000000  0.5366510000000  0.4966950000000 1.0
C      1  0.5017560000000  0.4212460000000  0.4501590000000 1.0
C      1  0.5194520000000  0.5829840000000  0.4695750000000 1.0
C      1  0.5057930000000  0.4474390000000  0.4350420000000 1.0
C      1  0.5469200000000  0.5455340000000  0.4364470000000 1.0
C      1  0.5282900000000  0.5333340000000  0.5527500000000 1.0
END
