TITL C-884137-4758-153 10.6026771668246 125000 -17676.3487390915 0 0 120 (C1) n - 1
REM
REM in /home/nfs/bkarasulu/CARBON/AIRSS/Generating-Clusters/ReaxFF-fromJPCA2015/Units_Real/with-SteepDescent/Only-C1/SD-CG/Try1-3A/FIRE-CG
REM
REM
REM
REM
REM
REM ./C.cell (11c1c37f851c82e70ff6c80c92926a4b)
REM
REM compiler GCC version 9.2.1 20190827 (Red Hat 9.2.1-1)
REM options -cpp -mtune=generic -march=x86-64 -g -O0 -fpre-include=/usr/include/finclude/math-vector-fortran.h
REM seed -929890699 -2016696196 1643309388 1718023932 -1968877703 126837453 -170302780 -1702473511 -1262832627 -1157421791 -356368923 1036793646 -1901881362 -1876278290 584360195 1438511883 239724292 -1296578511 -1393803640 -1242821390 1959696804 1821362232 -1331245858 1116669949 -570818375 2033217606 -1419022103 302437138 148787297 -1901334713 1873730630 1349452062 2029635908
REM
CELL 1.54180   50.00000   50.00000   50.00000   90.00000   90.00000   90.00000
LATT -1
SFAC C  
C      1  0.4707680000000  0.4889850000000  0.4663600000000 1.0
C      1  0.5291860000000  0.4484940000000  0.5213910000000 1.0
C      1  0.5731260000000  0.5074890000000  0.4536620000000 1.0
C      1  0.4485400000000  0.4355840000000  0.5676000000000 1.0
C      1  0.5357390000000  0.5545350000000  0.5555460000000 1.0
C      1  0.4587080000000  0.5351270000000  0.5174830000000 1.0
C      1  0.5182500000000  0.5282770000000  0.4281980000000 1.0
C      1  0.4237770000000  0.5325840000000  0.4814910000000 1.0
C      1  0.4686660000000  0.4627150000000  0.4979760000000 1.0
C      1  0.4365700000000  0.5573790000000  0.5220710000000 1.0
C      1  0.4635780000000  0.5051190000000  0.5178580000000 1.0
C      1  0.4959140000000  0.4734640000000  0.4965910000000 1.0
C      1  0.5446420000000  0.4825950000000  0.4890550000000 1.0
C      1  0.5515270000000  0.4913910000000  0.5138630000000 1.0
C      1  0.5397450000000  0.5161680000000  0.5719680000000 1.0
C      1  0.4032500000000  0.4774720000000  0.5000480000000 1.0
C      1  0.5526470000000  0.4456700000000  0.4526120000000 1.0
C      1  0.5440990000000  0.4890090000000  0.4215840000000 1.0
C      1  0.4653620000000  0.5208230000000  0.4059020000000 1.0
C      1  0.5013660000000  0.5004250000000  0.5035940000000 1.0
C      1  0.4718910000000  0.4935640000000  0.5889030000000 1.0
C      1  0.5649940000000  0.5486090000000  0.5075260000000 1.0
C      1  0.4954760000000  0.4733820000000  0.5835590000000 1.0
C      1  0.4470290000000  0.5783880000000  0.5036400000000 1.0
C      1  0.4707890000000  0.5478730000000  0.5778100000000 1.0
C      1  0.5042310000000  0.5979540000000  0.5132170000000 1.0
C      1  0.4224180000000  0.5197120000000  0.4547420000000 1.0
C      1  0.5119520000000  0.4171430000000  0.4716940000000 1.0
C      1  0.4971440000000  0.5484480000000  0.4844900000000 1.0
C      1  0.6031500000000  0.4901220000000  0.4933760000000 1.0
C      1  0.4872260000000  0.4374890000000  0.5457580000000 1.0
C      1  0.4454580000000  0.5675250000000  0.4764700000000 1.0
C      1  0.5145030000000  0.5726970000000  0.5555740000000 1.0
C      1  0.4986210000000  0.4856580000000  0.4126490000000 1.0
C      1  0.5637520000000  0.4267490000000  0.4998100000000 1.0
C      1  0.4237220000000  0.4574460000000  0.5438400000000 1.0
C      1  0.5451280000000  0.5168090000000  0.4179280000000 1.0
C      1  0.4762320000000  0.5855300000000  0.5110380000000 1.0
C      1  0.5290960000000  0.5188290000000  0.4591990000000 1.0
C      1  0.5320650000000  0.5690120000000  0.4470780000000 1.0
C      1  0.5647200000000  0.5304080000000  0.4348950000000 1.0
C      1  0.5306600000000  0.5897230000000  0.4688610000000 1.0
C      1  0.5571860000000  0.5541730000000  0.4488260000000 1.0
C      1  0.5270270000000  0.4740210000000  0.5874540000000 1.0
C      1  0.5900070000000  0.5018040000000  0.5451810000000 1.0
C      1  0.5897300000000  0.4655170000000  0.4867580000000 1.0
C      1  0.4987140000000  0.5082910000000  0.4320120000000 1.0
C      1  0.4679080000000  0.4131380000000  0.4398970000000 1.0
C      1  0.4953600000000  0.4662080000000  0.5507670000000 1.0
C      1  0.4744220000000  0.5221660000000  0.5970210000000 1.0
C      1  0.4402360000000  0.4329090000000  0.5404950000000 1.0
C      1  0.5730190000000  0.4831540000000  0.5578560000000 1.0
C      1  0.4564250000000  0.4588410000000  0.4243390000000 1.0
C      1  0.4256310000000  0.4794140000000  0.4814920000000 1.0
C      1  0.3973420000000  0.5053950000000  0.4981790000000 1.0
C      1  0.4803130000000  0.5622220000000  0.4366080000000 1.0
C      1  0.4130580000000  0.5259280000000  0.5090960000000 1.0
C      1  0.4805660000000  0.5120260000000  0.4539800000000 1.0
C      1  0.5139700000000  0.4596310000000  0.4178010000000 1.0
C      1  0.4784950000000  0.4982640000000  0.3990940000000 1.0
C      1  0.4506930000000  0.4209310000000  0.4594020000000 1.0
C      1  0.4965760000000  0.4168250000000  0.4458880000000 1.0
C      1  0.5997710000000  0.5587070000000  0.4716420000000 1.0
C      1  0.4876910000000  0.4213290000000  0.5214560000000 1.0
C      1  0.4621870000000  0.4191740000000  0.4793350000000 1.0
C      1  0.5748320000000  0.5555120000000  0.4751400000000 1.0
C      1  0.5086160000000  0.5571670000000  0.4341390000000 1.0
C      1  0.4199870000000  0.5072740000000  0.5341730000000 1.0
C      1  0.5159190000000  0.5210020000000  0.5162760000000 1.0
C      1  0.5447000000000  0.5194550000000  0.5204330000000 1.0
C      1  0.5482210000000  0.4975490000000  0.4658180000000 1.0
C      1  0.5171540000000  0.5321860000000  0.4761220000000 1.0
C      1  0.4697140000000  0.4328050000000  0.4182910000000 1.0
C      1  0.5327170000000  0.4317470000000  0.4613560000000 1.0
C      1  0.4515100000000  0.5395540000000  0.4838650000000 1.0
C      1  0.5365750000000  0.4213520000000  0.5122170000000 1.0
C      1  0.4869930000000  0.5602080000000  0.5567480000000 1.0
C      1  0.6008270000000  0.5091070000000  0.5200810000000 1.0
C      1  0.4538470000000  0.4378710000000  0.4954830000000 1.0
C      1  0.4603850000000  0.5290450000000  0.5586280000000 1.0
C      1  0.4581240000000  0.4231070000000  0.5193610000000 1.0
C      1  0.5029390000000  0.5257730000000  0.6049330000000 1.0
C      1  0.4981680000000  0.4356030000000  0.4232930000000 1.0
C      1  0.4751240000000  0.4303060000000  0.5710570000000 1.0
C      1  0.5416110000000  0.4623790000000  0.4274680000000 1.0
C      1  0.4369860000000  0.5104280000000  0.5576030000000 1.0
C      1  0.4543730000000  0.4856830000000  0.4921760000000 1.0
C      1  0.4466980000000  0.4885900000000  0.5752480000000 1.0
C      1  0.4200280000000  0.4884280000000  0.4541690000000 1.0
C      1  0.5475330000000  0.5821320000000  0.4898610000000 1.0
C      1  0.4123470000000  0.4798520000000  0.5287410000000 1.0
C      1  0.4871340000000  0.5162130000000  0.5562570000000 1.0
C      1  0.5042200000000  0.5465550000000  0.5115990000000 1.0
C      1  0.4823930000000  0.5560320000000  0.5267790000000 1.0
C      1  0.5494620000000  0.4892270000000  0.5764690000000 1.0
C      1  0.4346050000000  0.4725100000000  0.4359490000000 1.0
C      1  0.4356330000000  0.4616480000000  0.5702090000000 1.0
C      1  0.5711720000000  0.4454000000000  0.5190450000000 1.0
C      1  0.4761330000000  0.5341580000000  0.4705970000000 1.0
C      1  0.5246110000000  0.4648420000000  0.4973300000000 1.0
C      1  0.4669200000000  0.5769580000000  0.4586480000000 1.0
C      1  0.5102820000000  0.5201570000000  0.5757050000000 1.0
C      1  0.4396040000000  0.5304320000000  0.4357780000000 1.0
C      1  0.5847350000000  0.5315660000000  0.5185040000000 1.0
C      1  0.5721040000000  0.4454610000000  0.4767560000000 1.0
C      1  0.5493720000000  0.5313100000000  0.5482660000000 1.0
C      1  0.5247870000000  0.5856000000000  0.5300750000000 1.0
C      1  0.5942550000000  0.5023710000000  0.4703180000000 1.0
C      1  0.5096410000000  0.4159830000000  0.5020260000000 1.0
C      1  0.5655580000000  0.4710860000000  0.5309510000000 1.0
C      1  0.4915900000000  0.4438710000000  0.5913210000000 1.0
C      1  0.4746050000000  0.4662340000000  0.4480830000000 1.0
C      1  0.4798600000000  0.5913050000000  0.4802670000000 1.0
C      1  0.5175760000000  0.4295720000000  0.5916200000000 1.0
C      1  0.5069350000000  0.5998200000000  0.4840050000000 1.0
C      1  0.4809090000000  0.4942920000000  0.5386020000000 1.0
C      1  0.5494550000000  0.5755760000000  0.5160780000000 1.0
C      1  0.5242960000000  0.4583970000000  0.5480250000000 1.0
C      1  0.4595630000000  0.5439500000000  0.4216410000000 1.0
C      1  0.5346170000000  0.4489170000000  0.5749290000000 1.0
END
