TITL C-884139-6216-292 1.01402228878416 125000 -4518.92247926139 0 0 31 (C1) n - 1
REM
REM in /home/nfs/bkarasulu/CARBON/AIRSS/Generating-Clusters/ReaxFF-fromJPCA2015/Units_Real/with-SteepDescent/Only-C1/SD-CG/Try1-3A/FIRE-CG
REM
REM
REM
REM
REM
REM ./C.cell (11c1c37f851c82e70ff6c80c92926a4b)
REM
REM compiler GCC version 9.2.1 20190827 (Red Hat 9.2.1-1)
REM options -cpp -mtune=generic -march=x86-64 -g -O0 -fpre-include=/usr/include/finclude/math-vector-fortran.h
REM seed 791159773 -421144393 668689071 1749588190 -1750287588 1112757530 -33181700 -1851140430 1846570210 1187176507 601278582 1254935241 -1290262234 1666474465 -414783911 -418974965 -1842008912 853347491 2005337708 1823879258 -176224817 -448411656 -1423119183 772971738 27357241 241335393 -1169194025 930351416 -1603165860 152564612 764317414 1853319381 -649564554
REM
CELL 1.54180   50.00000   50.00000   50.00000   90.00000   90.00000   90.00000
LATT -1
SFAC C  
C      1  0.5116830000000  0.4921600000000  0.5502530000000 1.0
C      1  0.5534760000000  0.5210650000000  0.4776940000000 1.0
C      1  0.5553010000000  0.4929140000000  0.4887300000000 1.0
C      1  0.4916640000000  0.4738950000000  0.5387870000000 1.0
C      1  0.5220910000000  0.4562450000000  0.5012460000000 1.0
C      1  0.4518410000000  0.4761760000000  0.5004150000000 1.0
C      1  0.5498540000000  0.4851640000000  0.5649600000000 1.0
C      1  0.5498120000000  0.5305460000000  0.5061790000000 1.0
C      1  0.4830060000000  0.5168740000000  0.4598350000000 1.0
C      1  0.4647830000000  0.5199900000000  0.4791170000000 1.0
C      1  0.4540670000000  0.5503910000000  0.5095870000000 1.0
C      1  0.4939980000000  0.5154000000000  0.5441270000000 1.0
C      1  0.5050100000000  0.5530120000000  0.4914060000000 1.0
C      1  0.5326700000000  0.5305610000000  0.4582390000000 1.0
C      1  0.5354870000000  0.4716560000000  0.4805620000000 1.0
C      1  0.5155880000000  0.4792500000000  0.4592190000000 1.0
C      1  0.4892570000000  0.4883020000000  0.4525180000000 1.0
C      1  0.5050320000000  0.5374330000000  0.4660620000000 1.0
C      1  0.4554860000000  0.4543340000000  0.4841340000000 1.0
C      1  0.5019680000000  0.5407650000000  0.5312940000000 1.0
C      1  0.4462440000000  0.5231600000000  0.4987340000000 1.0
C      1  0.5240800000000  0.5444760000000  0.5119880000000 1.0
C      1  0.4975830000000  0.4522600000000  0.5177180000000 1.0
C      1  0.5559570000000  0.5037660000000  0.5155660000000 1.0
C      1  0.4745510000000  0.4402570000000  0.5031960000000 1.0
C      1  0.5420560000000  0.4919060000000  0.5419230000000 1.0
C      1  0.4640890000000  0.4430370000000  0.4454150000000 1.0
C      1  0.4678780000000  0.4654400000000  0.4562430000000 1.0
C      1  0.4496500000000  0.4976730000000  0.5166080000000 1.0
C      1  0.4831990000000  0.5556600000000  0.5125980000000 1.0
C      1  0.4726410000000  0.4962310000000  0.5356490000000 1.0
END
