TITL C-883733-4178-56 1655365.59110722 125000 -12242.4041616441 0 0 84 (C1) n - 1
REM
REM in /home/nfs/bkarasulu/CARBON/AIRSS/Generating-Clusters/ReaxFF-fromJPCA2015/Units_Real/with-SteepDescent/Only-C1/SD-CG/Try1-3A/FIRE-CG
REM
REM
REM
REM
REM
REM ./C.cell (11c1c37f851c82e70ff6c80c92926a4b)
REM
REM compiler GCC version 9.2.1 20190827 (Red Hat 9.2.1-1)
REM options -cpp -mtune=generic -march=x86-64 -g -O0 -fpre-include=/usr/include/finclude/math-vector-fortran.h
REM seed -491032721 -802527402 1426498383 1738400210 -1003098485 -948195231 432595667 2001565579 -2128168630 -482228075 1259877827 -486365947 -830484589 150014838 790932735 -353933583 -93323177 238757958 1286518576 627445192 1097234910 954638003 -2066382590 1743247805 1088107477 -2005645664 -1722242235 -1653236827 987581171 1163535515 249781836 -614290463 440153382
REM
CELL 1.54180   50.00000   50.00000   50.00000   90.00000   90.00000   90.00000
LATT -1
SFAC C  
C      1  0.4240300000000  0.4843220000000  0.5230270000000 1.0
C      1  0.4859640000000  0.4441030000000  0.5542110000000 1.0
C      1  0.4918760000000  0.5147900000000  0.5716110000000 1.0
C      1  0.5467940000000  0.5278160000000  0.4410890000000 1.0
C      1  0.5062090000000  0.5787680000000  0.5228650000000 1.0
C      1  0.4210060000000  0.4792090000000  0.4941300000000 1.0
C      1  0.4484220000000  0.5254830000000  0.4490100000000 1.0
C      1  0.4211160000000  0.5120770000000  0.5338710000000 1.0
C      1  0.4773140000000  0.5830860000000  0.4699110000000 1.0
C      1  0.5566070000000  0.4640290000000  0.4746630000000 1.0
C      1  0.4794700000000  0.4545410000000  0.4688690000000 1.0
C      1  0.4791880000000  0.4834760000000  0.4650130000000 1.0
C      1  0.5342890000000  0.4621850000000  0.5095670000000 1.0
C      1  0.5026270000000  0.5788750000000  0.4601150000000 1.0
C      1  0.5461510000000  0.4591530000000  0.5595700000000 1.0
C      1  0.4190120000000  0.5007570000000  0.4736230000000 1.0
C      1  0.5467880000000  0.4215190000000  0.4937760000000 1.0
C      1  0.4695090000000  0.5377540000000  0.4340830000000 1.0
C      1  0.5708400000000  0.5272030000000  0.4761030000000 1.0
C      1  0.5229630000000  0.4916060000000  0.4644510000000 1.0
C      1  0.5197680000000  0.4691970000000  0.4458020000000 1.0
C      1  0.5902200000000  0.4857740000000  0.4761510000000 1.0
C      1  0.5055470000000  0.4894660000000  0.5745440000000 1.0
C      1  0.4474100000000  0.4441190000000  0.4997710000000 1.0
C      1  0.4831880000000  0.5393960000000  0.5392180000000 1.0
C      1  0.5872510000000  0.5348480000000  0.5344100000000 1.0
C      1  0.4449540000000  0.4700060000000  0.5398860000000 1.0
C      1  0.5002230000000  0.4983100000000  0.5112810000000 1.0
C      1  0.5029470000000  0.5378860000000  0.5569260000000 1.0
C      1  0.4816490000000  0.5668410000000  0.5366410000000 1.0
C      1  0.4329980000000  0.4577650000000  0.4776670000000 1.0
C      1  0.5567200000000  0.5011330000000  0.5185110000000 1.0
C      1  0.4654850000000  0.5580320000000  0.4877120000000 1.0
C      1  0.5700090000000  0.4803580000000  0.4546180000000 1.0
C      1  0.5661760000000  0.5117960000000  0.4503910000000 1.0
C      1  0.5275240000000  0.5685440000000  0.4531050000000 1.0
C      1  0.5008440000000  0.5285110000000  0.4377510000000 1.0
C      1  0.5763060000000  0.5053690000000  0.4947240000000 1.0
C      1  0.4199990000000  0.5303870000000  0.4827100000000 1.0
C      1  0.4589350000000  0.5653990000000  0.5173760000000 1.0
C      1  0.5409370000000  0.4511230000000  0.4555440000000 1.0
C      1  0.4884650000000  0.5011160000000  0.4834470000000 1.0
C      1  0.4442700000000  0.4394260000000  0.5550280000000 1.0
C      1  0.5592590000000  0.4458180000000  0.5097620000000 1.0
C      1  0.4910780000000  0.4649900000000  0.5115260000000 1.0
C      1  0.4442930000000  0.5432370000000  0.4722040000000 1.0
C      1  0.4864850000000  0.5245820000000  0.5160440000000 1.0
C      1  0.5286420000000  0.5097160000000  0.5222340000000 1.0
C      1  0.4358610000000  0.4950440000000  0.4513760000000 1.0
C      1  0.4930560000000  0.5405150000000  0.4922070000000 1.0
C      1  0.4851850000000  0.4139730000000  0.4962920000000 1.0
C      1  0.4844880000000  0.4691810000000  0.5699550000000 1.0
C      1  0.5281990000000  0.5314970000000  0.5410760000000 1.0
C      1  0.5129350000000  0.5615620000000  0.4993570000000 1.0
C      1  0.4933220000000  0.5076860000000  0.4188580000000 1.0
C      1  0.4988420000000  0.4406270000000  0.4869580000000 1.0
C      1  0.4695780000000  0.4521790000000  0.4417200000000 1.0
C      1  0.5273400000000  0.4619100000000  0.5368040000000 1.0
C      1  0.5610450000000  0.5511530000000  0.4895730000000 1.0
C      1  0.5303100000000  0.5732570000000  0.5356020000000 1.0
C      1  0.4770500000000  0.4940240000000  0.4381190000000 1.0
C      1  0.5267250000000  0.5451290000000  0.4344150000000 1.0
C      1  0.4655330000000  0.4257360000000  0.5426230000000 1.0
C      1  0.4604560000000  0.4832800000000  0.5632570000000 1.0
C      1  0.5557000000000  0.4993990000000  0.5624740000000 1.0
C      1  0.5375740000000  0.4817020000000  0.4877100000000 1.0
C      1  0.5495380000000  0.5535710000000  0.5405030000000 1.0
C      1  0.4437640000000  0.4670960000000  0.4515110000000 1.0
C      1  0.5352320000000  0.4844410000000  0.5738480000000 1.0
C      1  0.4448540000000  0.5480250000000  0.5342310000000 1.0
C      1  0.5034850000000  0.4514390000000  0.5329330000000 1.0
C      1  0.4845010000000  0.4798600000000  0.4146020000000 1.0
C      1  0.4614230000000  0.4201820000000  0.5113200000000 1.0
C      1  0.5365390000000  0.5650380000000  0.4811650000000 1.0
C      1  0.4621430000000  0.4647370000000  0.5145440000000 1.0
C      1  0.4190480000000  0.5262360000000  0.5100950000000 1.0
C      1  0.5656600000000  0.4495670000000  0.5392190000000 1.0
C      1  0.5730700000000  0.5082540000000  0.5426550000000 1.0
C      1  0.5066910000000  0.5173740000000  0.4674280000000 1.0
C      1  0.4628610000000  0.5113730000000  0.5670020000000 1.0
C      1  0.5703750000000  0.5526500000000  0.5181040000000 1.0
C      1  0.4961020000000  0.4590240000000  0.4307320000000 1.0
C      1  0.5277370000000  0.4328900000000  0.4753370000000 1.0
C      1  0.4420220000000  0.5264980000000  0.5518500000000 1.0
END
