TITL C-884134-5972-181 34.3122555324987 125000 -27017.8809662701 0 0 178 (C1) n - 1
REM
REM in /home/nfs/bkarasulu/CARBON/AIRSS/Generating-Clusters/ReaxFF-fromJPCA2015/Units_Real/with-SteepDescent/Only-C1/SD-CG/Try1-3A/FIRE-CG
REM
REM
REM
REM
REM
REM ./C.cell (11c1c37f851c82e70ff6c80c92926a4b)
REM
REM compiler GCC version 9.2.1 20190827 (Red Hat 9.2.1-1)
REM options -cpp -mtune=generic -march=x86-64 -g -O0 -fpre-include=/usr/include/finclude/math-vector-fortran.h
REM seed -1278738646 -1114790757 810223122 1278145623 -173596678 1578098658 814632531 1589709401 -1084874723 -692868939 -178082801 448757256 1951095913 -1467062255 -825560776 -1283438581 1333408969 -353397594 311748516 -1817865408 -1894689798 -1183164072 -1498306862 1732830740 1465264688 764171335 -517174609 -456270138 -398346857 -1963359119 776624541 -609140785 1933653388
REM
CELL 1.54180   50.00000   50.00000   50.00000   90.00000   90.00000   90.00000
LATT -1
SFAC C  
C      1  0.4701780000000  0.4589660000000  0.6114490000000 1.0
C      1  0.5575960000000  0.4747670000000  0.5954200000000 1.0
C      1  0.4479910000000  0.4830350000000  0.4007070000000 1.0
C      1  0.5159020000000  0.5969060000000  0.5339930000000 1.0
C      1  0.5623000000000  0.5301210000000  0.5277920000000 1.0
C      1  0.6014440000000  0.5378910000000  0.4857040000000 1.0
C      1  0.4079200000000  0.5298910000000  0.4226280000000 1.0
C      1  0.5645130000000  0.5148800000000  0.3993900000000 1.0
C      1  0.4856970000000  0.3909470000000  0.4834140000000 1.0
C      1  0.4639320000000  0.4687460000000  0.4837280000000 1.0
C      1  0.4855310000000  0.5728890000000  0.4764670000000 1.0
C      1  0.4491290000000  0.5472150000000  0.5789530000000 1.0
C      1  0.4777420000000  0.5080030000000  0.3853800000000 1.0
C      1  0.4531850000000  0.5143070000000  0.4663830000000 1.0
C      1  0.5139630000000  0.4454670000000  0.6027410000000 1.0
C      1  0.4404540000000  0.4907510000000  0.4582370000000 1.0
C      1  0.5505150000000  0.4155410000000  0.4549110000000 1.0
C      1  0.3798040000000  0.4788260000000  0.4849300000000 1.0
C      1  0.4970160000000  0.5029720000000  0.5560510000000 1.0
C      1  0.4731380000000  0.4790600000000  0.3896170000000 1.0
C      1  0.3964560000000  0.4712550000000  0.5367740000000 1.0
C      1  0.4536130000000  0.4095500000000  0.4499380000000 1.0
C      1  0.4710260000000  0.3959890000000  0.5317440000000 1.0
C      1  0.4768570000000  0.5399030000000  0.5000530000000 1.0
C      1  0.5937500000000  0.4402960000000  0.5445220000000 1.0
C      1  0.4263620000000  0.5004210000000  0.5754190000000 1.0
C      1  0.5975490000000  0.4254460000000  0.4968770000000 1.0
C      1  0.4730010000000  0.4178930000000  0.5793830000000 1.0
C      1  0.4034840000000  0.4893860000000  0.5575780000000 1.0
C      1  0.4769000000000  0.4423960000000  0.4860370000000 1.0
C      1  0.4426730000000  0.4455410000000  0.5186630000000 1.0
C      1  0.5450680000000  0.6019200000000  0.5289520000000 1.0
C      1  0.5101200000000  0.5819760000000  0.4213330000000 1.0
C      1  0.3836890000000  0.4628810000000  0.5102780000000 1.0
C      1  0.4383220000000  0.4310010000000  0.4440280000000 1.0
C      1  0.4734480000000  0.4008980000000  0.5571530000000 1.0
C      1  0.4870870000000  0.6074060000000  0.4531120000000 1.0
C      1  0.5438690000000  0.5016390000000  0.5976360000000 1.0
C      1  0.5337710000000  0.4764950000000  0.5461660000000 1.0
C      1  0.5862450000000  0.4438010000000  0.4744000000000 1.0
C      1  0.5191790000000  0.4580680000000  0.4130810000000 1.0
C      1  0.5034890000000  0.5609340000000  0.4020420000000 1.0
C      1  0.5048750000000  0.5280570000000  0.4679290000000 1.0
C      1  0.5331730000000  0.5106990000000  0.4342690000000 1.0
C      1  0.4690140000000  0.4963890000000  0.5514660000000 1.0
C      1  0.4964290000000  0.4636430000000  0.6191040000000 1.0
C      1  0.4837290000000  0.4865780000000  0.4741820000000 1.0
C      1  0.5702960000000  0.4589660000000  0.4292720000000 1.0
C      1  0.4687230000000  0.5063120000000  0.6005750000000 1.0
C      1  0.3902390000000  0.4404260000000  0.4952840000000 1.0
C      1  0.5236370000000  0.4997850000000  0.5015020000000 1.0
C      1  0.5986200000000  0.4890160000000  0.5614360000000 1.0
C      1  0.6113860000000  0.5047750000000  0.5181870000000 1.0
C      1  0.3948900000000  0.5138400000000  0.5421630000000 1.0
C      1  0.5633620000000  0.5015610000000  0.5275920000000 1.0
C      1  0.4214970000000  0.4888560000000  0.4800980000000 1.0
C      1  0.5941920000000  0.5524190000000  0.4591820000000 1.0
C      1  0.5383020000000  0.4964800000000  0.4565590000000 1.0
C      1  0.5493600000000  0.4055950000000  0.5082480000000 1.0
C      1  0.5540510000000  0.4314570000000  0.5227120000000 1.0
C      1  0.5988100000000  0.4882550000000  0.4626080000000 1.0
C      1  0.5998220000000  0.4261820000000  0.5193210000000 1.0
C      1  0.4911190000000  0.4623700000000  0.4082550000000 1.0
C      1  0.4622340000000  0.5750260000000  0.4216200000000 1.0
C      1  0.5262420000000  0.4194570000000  0.4400760000000 1.0
C      1  0.5233970000000  0.3955720000000  0.5180160000000 1.0
C      1  0.4494560000000  0.4360530000000  0.5749420000000 1.0
C      1  0.4573000000000  0.4935720000000  0.5241790000000 1.0
C      1  0.4460160000000  0.4485120000000  0.5483290000000 1.0
C      1  0.4476100000000  0.4580830000000  0.5957350000000 1.0
C      1  0.4694700000000  0.5932110000000  0.4728090000000 1.0
C      1  0.5482400000000  0.4549320000000  0.5075270000000 1.0
C      1  0.4003700000000  0.4754890000000  0.4639250000000 1.0
C      1  0.5154530000000  0.5265680000000  0.5595550000000 1.0
C      1  0.5289290000000  0.5145590000000  0.4784420000000 1.0
C      1  0.5414390000000  0.4500730000000  0.5937410000000 1.0
C      1  0.4753460000000  0.4572480000000  0.4319100000000 1.0
C      1  0.5457200000000  0.6021490000000  0.5001750000000 1.0
C      1  0.4929320000000  0.4944540000000  0.6151200000000 1.0
C      1  0.4466100000000  0.4636150000000  0.4380860000000 1.0
C      1  0.5848700000000  0.4833040000000  0.4353050000000 1.0
C      1  0.5074480000000  0.5686870000000  0.5397480000000 1.0
C      1  0.5465480000000  0.4305230000000  0.5721690000000 1.0
C      1  0.5183610000000  0.4981990000000  0.6064450000000 1.0
C      1  0.4168060000000  0.4207420000000  0.4582520000000 1.0
C      1  0.3849850000000  0.5120510000000  0.5165150000000 1.0
C      1  0.5207630000000  0.4501290000000  0.4421690000000 1.0
C      1  0.5381520000000  0.5737710000000  0.5804670000000 1.0
C      1  0.4432810000000  0.5925920000000  0.5095530000000 1.0
C      1  0.4426870000000  0.4722550000000  0.5041010000000 1.0
C      1  0.4780610000000  0.3959200000000  0.4552220000000 1.0
C      1  0.4463790000000  0.5241280000000  0.5210610000000 1.0
C      1  0.5719540000000  0.4360410000000  0.4481330000000 1.0
C      1  0.5094850000000  0.4784190000000  0.5579430000000 1.0
C      1  0.5466630000000  0.5380520000000  0.4050010000000 1.0
C      1  0.5559810000000  0.4919420000000  0.5542600000000 1.0
C      1  0.5688810000000  0.5873830000000  0.5394320000000 1.0
C      1  0.4522860000000  0.5283830000000  0.4919890000000 1.0
C      1  0.4895240000000  0.4420480000000  0.4527720000000 1.0
C      1  0.5992320000000  0.5504250000000  0.5129890000000 1.0
C      1  0.5829960000000  0.5738040000000  0.5165500000000 1.0
C      1  0.3798230000000  0.5085840000000  0.4899700000000 1.0
C      1  0.4461380000000  0.5737480000000  0.5662110000000 1.0
C      1  0.4964220000000  0.6048630000000  0.5143190000000 1.0
C      1  0.4832740000000  0.4791380000000  0.5179660000000 1.0
C      1  0.5545490000000  0.4554560000000  0.4802750000000 1.0
C      1  0.4212500000000  0.5800410000000  0.5537000000000 1.0
C      1  0.4722440000000  0.5335320000000  0.5911400000000 1.0
C      1  0.4356130000000  0.5718340000000  0.4347700000000 1.0
C      1  0.4194970000000  0.5336970000000  0.5409110000000 1.0
C      1  0.5561750000000  0.5814110000000  0.5634110000000 1.0
C      1  0.5957180000000  0.5183980000000  0.5563590000000 1.0
C      1  0.5143740000000  0.6026010000000  0.4630440000000 1.0
C      1  0.5414280000000  0.5454860000000  0.5132760000000 1.0
C      1  0.5479110000000  0.4631630000000  0.4075480000000 1.0
C      1  0.4980800000000  0.4917140000000  0.4978250000000 1.0
C      1  0.5095030000000  0.4098550000000  0.5405500000000 1.0
C      1  0.4909570000000  0.4521310000000  0.5115200000000 1.0
C      1  0.4199070000000  0.5855410000000  0.5261890000000 1.0
C      1  0.5017860000000  0.4242310000000  0.5867410000000 1.0
C      1  0.5209970000000  0.5401250000000  0.3912210000000 1.0
C      1  0.6079210000000  0.4780730000000  0.5119220000000 1.0
C      1  0.4462470000000  0.4887860000000  0.5927800000000 1.0
C      1  0.4271730000000  0.5690500000000  0.4642340000000 1.0
C      1  0.4099150000000  0.5613980000000  0.5375030000000 1.0
C      1  0.5760070000000  0.4759050000000  0.5734380000000 1.0
C      1  0.4697870000000  0.5419370000000  0.5268190000000 1.0
C      1  0.6090570000000  0.5292400000000  0.5318730000000 1.0
C      1  0.4669810000000  0.5837330000000  0.5490610000000 1.0
C      1  0.5064770000000  0.5143970000000  0.3900380000000 1.0
C      1  0.4980690000000  0.4149490000000  0.4437490000000 1.0
C      1  0.5452780000000  0.5177040000000  0.5712950000000 1.0
C      1  0.5138340000000  0.3921930000000  0.4902770000000 1.0
C      1  0.4067600000000  0.5198420000000  0.4817420000000 1.0
C      1  0.5178110000000  0.6045780000000  0.4919310000000 1.0
C      1  0.4658500000000  0.3990070000000  0.5041260000000 1.0
C      1  0.4668700000000  0.4679630000000  0.5565360000000 1.0
C      1  0.5424260000000  0.5373490000000  0.4338490000000 1.0
C      1  0.4019650000000  0.4281150000000  0.4769620000000 1.0
C      1  0.5217550000000  0.5446420000000  0.5347370000000 1.0
C      1  0.5002140000000  0.5415080000000  0.5829910000000 1.0
C      1  0.5260980000000  0.5815170000000  0.4462090000000 1.0
C      1  0.4196530000000  0.5516740000000  0.4264040000000 1.0
C      1  0.6022860000000  0.4682110000000  0.5404400000000 1.0
C      1  0.4013910000000  0.5057480000000  0.4242180000000 1.0
C      1  0.4296440000000  0.5282310000000  0.5691870000000 1.0
C      1  0.5377060000000  0.4683370000000  0.4603330000000 1.0
C      1  0.5407410000000  0.4032350000000  0.4802090000000 1.0
C      1  0.4017220000000  0.4805110000000  0.4343660000000 1.0
C      1  0.4269820000000  0.4737640000000  0.4172900000000 1.0
C      1  0.5388170000000  0.5567910000000  0.4556960000000 1.0
C      1  0.5108820000000  0.5053750000000  0.4176650000000 1.0
C      1  0.5705640000000  0.5864520000000  0.4926570000000 1.0
C      1  0.4694700000000  0.5251880000000  0.4079870000000 1.0
C      1  0.5687440000000  0.5301690000000  0.5569460000000 1.0
C      1  0.4840400000000  0.5937860000000  0.4273480000000 1.0
C      1  0.4160720000000  0.5440600000000  0.4736510000000 1.0
C      1  0.4988770000000  0.4374650000000  0.5342950000000 1.0
C      1  0.5904130000000  0.5333610000000  0.4378340000000 1.0
C      1  0.5796430000000  0.5778630000000  0.4659990000000 1.0
C      1  0.5658120000000  0.4325560000000  0.5499540000000 1.0
C      1  0.4409760000000  0.5889110000000  0.4812100000000 1.0
C      1  0.4983990000000  0.5499980000000  0.4842740000000 1.0
C      1  0.5169510000000  0.5616530000000  0.5886380000000 1.0
C      1  0.4556350000000  0.4264990000000  0.5009840000000 1.0
C      1  0.4834480000000  0.5116690000000  0.4569120000000 1.0
C      1  0.4689730000000  0.5979570000000  0.5232040000000 1.0
C      1  0.4812770000000  0.5615340000000  0.5439120000000 1.0
C      1  0.5406370000000  0.4847820000000  0.5183530000000 1.0
C      1  0.6013780000000  0.5114770000000  0.4782970000000 1.0
C      1  0.4750910000000  0.5543930000000  0.4060380000000 1.0
C      1  0.4852190000000  0.5105450000000  0.4274940000000 1.0
C      1  0.5851130000000  0.5095180000000  0.4215420000000 1.0
C      1  0.5384450000000  0.5457440000000  0.4832980000000 1.0
C      1  0.5217040000000  0.4156350000000  0.5676030000000 1.0
C      1  0.5558230000000  0.4884320000000  0.3999070000000 1.0
C      1  0.6006090000000  0.4691510000000  0.4836680000000 1.0
C      1  0.4931820000000  0.4565840000000  0.5558970000000 1.0
END
