TITL C-884141-4321-299 -1.20774777485734 125000 -14003.5216145073 0 0 95 (C1) n - 1
REM
REM in /home/nfs/bkarasulu/CARBON/AIRSS/Generating-Clusters/ReaxFF-fromJPCA2015/Units_Real/with-SteepDescent/Only-C1/SD-CG/Try1-3A/FIRE-CG
REM
REM
REM
REM
REM
REM ./C.cell (11c1c37f851c82e70ff6c80c92926a4b)
REM
REM compiler GCC version 9.2.1 20190827 (Red Hat 9.2.1-1)
REM options -cpp -mtune=generic -march=x86-64 -g -O0 -fpre-include=/usr/include/finclude/math-vector-fortran.h
REM seed -1284187 1233650739 -1344076229 -837340156 1409773356 1398332976 833367370 336995492 -754241542 1696708491 372411420 -2028389390 -971627718 -717093269 1819292693 350559367 -2074768463 1355231850 -787211878 -1950091274 -1992147300 1810157630 2036286749 619358815 -725555832 1639528018 -1028030520 1459822152 -18937244 1063410137 1587117316 -1773287906 1240898763
REM
CELL 1.54180   50.00000   50.00000   50.00000   90.00000   90.00000   90.00000
LATT -1
SFAC C  
C      1  0.5805950000000  0.4939930000000  0.4930480000000 1.0
C      1  0.5514100000000  0.4992530000000  0.4903390000000 1.0
C      1  0.4856700000000  0.5227460000000  0.4200570000000 1.0
C      1  0.4941900000000  0.4091480000000  0.4877540000000 1.0
C      1  0.4188650000000  0.5058280000000  0.5507390000000 1.0
C      1  0.5030150000000  0.4715150000000  0.4986360000000 1.0
C      1  0.5128980000000  0.5305800000000  0.4182190000000 1.0
C      1  0.4534750000000  0.4491300000000  0.5412190000000 1.0
C      1  0.4898190000000  0.5495920000000  0.5633180000000 1.0
C      1  0.5402280000000  0.4273650000000  0.5276390000000 1.0
C      1  0.5522370000000  0.4276300000000  0.5007280000000 1.0
C      1  0.4922530000000  0.4824660000000  0.5239230000000 1.0
C      1  0.5077180000000  0.5075740000000  0.5212210000000 1.0
C      1  0.5364450000000  0.5700130000000  0.4471030000000 1.0
C      1  0.4699190000000  0.5393720000000  0.4406960000000 1.0
C      1  0.4256570000000  0.5062260000000  0.4924780000000 1.0
C      1  0.4813670000000  0.5643520000000  0.5375600000000 1.0
C      1  0.5121950000000  0.4211920000000  0.4668530000000 1.0
C      1  0.4947340000000  0.4893240000000  0.4758860000000 1.0
C      1  0.5866340000000  0.4972800000000  0.5219170000000 1.0
C      1  0.4751830000000  0.4578440000000  0.4460690000000 1.0
C      1  0.4653890000000  0.4773070000000  0.5701740000000 1.0
C      1  0.5209990000000  0.5049100000000  0.5719110000000 1.0
C      1  0.5044810000000  0.5621980000000  0.5195580000000 1.0
C      1  0.4908220000000  0.4610160000000  0.5735740000000 1.0
C      1  0.5603220000000  0.5285010000000  0.5391020000000 1.0
C      1  0.5163810000000  0.5492590000000  0.4443380000000 1.0
C      1  0.4117790000000  0.5272100000000  0.5054740000000 1.0
C      1  0.4867860000000  0.5562090000000  0.4561700000000 1.0
C      1  0.5484980000000  0.4963110000000  0.5608930000000 1.0
C      1  0.5711250000000  0.4570870000000  0.4799870000000 1.0
C      1  0.5744230000000  0.5425330000000  0.4704710000000 1.0
C      1  0.4440590000000  0.4892600000000  0.4552880000000 1.0
C      1  0.4405400000000  0.5636540000000  0.4929200000000 1.0
C      1  0.4938470000000  0.4943110000000  0.4136390000000 1.0
C      1  0.5523520000000  0.4675050000000  0.5631620000000 1.0
C      1  0.5403200000000  0.4847240000000  0.4683120000000 1.0
C      1  0.4675830000000  0.4988090000000  0.4710500000000 1.0
C      1  0.5631680000000  0.5044320000000  0.5386340000000 1.0
C      1  0.4152690000000  0.5288080000000  0.5332730000000 1.0
C      1  0.4334400000000  0.4381000000000  0.5225470000000 1.0
C      1  0.4686790000000  0.4659170000000  0.5211160000000 1.0
C      1  0.5831360000000  0.5398220000000  0.4986720000000 1.0
C      1  0.4948160000000  0.4677410000000  0.4267750000000 1.0
C      1  0.5615690000000  0.4925890000000  0.4471030000000 1.0
C      1  0.5506010000000  0.5717390000000  0.5207100000000 1.0
C      1  0.4405240000000  0.5355680000000  0.4412730000000 1.0
C      1  0.4186740000000  0.5400780000000  0.4592930000000 1.0
C      1  0.5302280000000  0.4701140000000  0.5094250000000 1.0
C      1  0.4580630000000  0.4515970000000  0.4682250000000 1.0
C      1  0.5369410000000  0.5812980000000  0.4973170000000 1.0
C      1  0.5094620000000  0.4809250000000  0.5733770000000 1.0
C      1  0.5356020000000  0.4461510000000  0.5692660000000 1.0
C      1  0.4542040000000  0.5112790000000  0.4931620000000 1.0
C      1  0.4589050000000  0.5503090000000  0.5264110000000 1.0
C      1  0.5223310000000  0.5028880000000  0.4125260000000 1.0
C      1  0.5231330000000  0.4615160000000  0.4343340000000 1.0
C      1  0.5950930000000  0.5157410000000  0.5035330000000 1.0
C      1  0.5158170000000  0.5552750000000  0.5587060000000 1.0
C      1  0.4685860000000  0.5064980000000  0.5687460000000 1.0
C      1  0.5096900000000  0.5781510000000  0.4953190000000 1.0
C      1  0.4643150000000  0.4032990000000  0.4890670000000 1.0
C      1  0.5396780000000  0.4248730000000  0.4736850000000 1.0
C      1  0.4250960000000  0.5119930000000  0.4522370000000 1.0
C      1  0.5675620000000  0.5484240000000  0.5221220000000 1.0
C      1  0.5539760000000  0.4546560000000  0.5009170000000 1.0
C      1  0.5369030000000  0.4980640000000  0.5159450000000 1.0
C      1  0.4466390000000  0.4251670000000  0.4993230000000 1.0
C      1  0.4431060000000  0.5194720000000  0.5616820000000 1.0
C      1  0.4169880000000  0.5503920000000  0.4873180000000 1.0
C      1  0.5811060000000  0.4758240000000  0.4638580000000 1.0
C      1  0.5626870000000  0.5665370000000  0.4582470000000 1.0
C      1  0.4707230000000  0.4449630000000  0.4995520000000 1.0
C      1  0.5120610000000  0.4304190000000  0.5330720000000 1.0
C      1  0.5285770000000  0.5698480000000  0.5392000000000 1.0
C      1  0.4943510000000  0.5207500000000  0.5691950000000 1.0
C      1  0.4636170000000  0.5731330000000  0.5009520000000 1.0
C      1  0.4853780000000  0.5722050000000  0.4798560000000 1.0
C      1  0.4373070000000  0.5421000000000  0.5442050000000 1.0
C      1  0.4330630000000  0.4668680000000  0.4705890000000 1.0
C      1  0.5419650000000  0.5846180000000  0.4708780000000 1.0
C      1  0.5395920000000  0.4835390000000  0.4266450000000 1.0
C      1  0.5257690000000  0.4480160000000  0.4611360000000 1.0
C      1  0.4931140000000  0.4264250000000  0.5111430000000 1.0
C      1  0.4186470000000  0.4633950000000  0.5194520000000 1.0
C      1  0.4193810000000  0.4773450000000  0.5453530000000 1.0
C      1  0.4975160000000  0.5314300000000  0.5113530000000 1.0
C      1  0.5580790000000  0.5243790000000  0.4550800000000 1.0
C      1  0.4403050000000  0.4650180000000  0.5618680000000 1.0
C      1  0.5089240000000  0.4412680000000  0.5604520000000 1.0
C      1  0.4206140000000  0.4778520000000  0.4944700000000 1.0
C      1  0.5540090000000  0.4417540000000  0.5488470000000 1.0
C      1  0.5298660000000  0.5269160000000  0.4583400000000 1.0
C      1  0.5174360000000  0.5015520000000  0.4629160000000 1.0
C      1  0.4695060000000  0.5277400000000  0.5098790000000 1.0
END
