TITL C-883727-9645-312 -16.7163361037992 125000 -17443.1157923737 0 0 117 (C1) n - 1
REM
REM in /home/nfs/bkarasulu/CARBON/AIRSS/Generating-Clusters/ReaxFF-fromJPCA2015/Units_Real/with-SteepDescent/Only-C1/SD-CG/Try1-3A/FIRE-CG
REM
REM
REM
REM
REM
REM ./C.cell (11c1c37f851c82e70ff6c80c92926a4b)
REM
REM compiler GCC version 9.2.1 20190827 (Red Hat 9.2.1-1)
REM options -cpp -mtune=generic -march=x86-64 -g -O0 -fpre-include=/usr/include/finclude/math-vector-fortran.h
REM seed 841034897 1314579416 144368276 832115624 -1222526314 -1998106814 261862698 1534502279 1847484915 840982246 1668219321 694446632 179791279 -1323665391 1308463838 112258895 -1669711655 357845322 254235270 -789004340 2016189394 881573038 -1450203284 -937775475 1599704102 -427265772 1076719979 1044452063 -930334265 -1907925639 1515523891 325858529 1909481544
REM
CELL 1.54180   50.00000   50.00000   50.00000   90.00000   90.00000   90.00000
LATT -1
SFAC C  
C      1  0.4805160000000  0.5109080000000  0.4980680000000 1.0
C      1  0.5210050000000  0.4390680000000  0.5593140000000 1.0
C      1  0.5069700000000  0.5948360000000  0.4802230000000 1.0
C      1  0.5228300000000  0.4708630000000  0.4916750000000 1.0
C      1  0.4050460000000  0.5062020000000  0.4777640000000 1.0
C      1  0.4455390000000  0.4347790000000  0.5559300000000 1.0
C      1  0.4152060000000  0.5002840000000  0.4518610000000 1.0
C      1  0.4876780000000  0.5123260000000  0.4000280000000 1.0
C      1  0.4298630000000  0.5206640000000  0.4359440000000 1.0
C      1  0.4101650000000  0.4697780000000  0.5159770000000 1.0
C      1  0.5489480000000  0.4315130000000  0.4376650000000 1.0
C      1  0.4641650000000  0.4293970000000  0.5192740000000 1.0
C      1  0.5912540000000  0.5328090000000  0.5095870000000 1.0
C      1  0.5245660000000  0.5790240000000  0.4611870000000 1.0
C      1  0.4413990000000  0.4621210000000  0.4651990000000 1.0
C      1  0.4690760000000  0.4214700000000  0.5477350000000 1.0
C      1  0.5214730000000  0.5703720000000  0.5576520000000 1.0
C      1  0.4495580000000  0.4438320000000  0.4501330000000 1.0
C      1  0.4136640000000  0.4593000000000  0.4763570000000 1.0
C      1  0.4701400000000  0.5841340000000  0.4986530000000 1.0
C      1  0.5321460000000  0.5101440000000  0.5611350000000 1.0
C      1  0.5670720000000  0.5498970000000  0.4626530000000 1.0
C      1  0.4646930000000  0.5546690000000  0.5383500000000 1.0
C      1  0.4855070000000  0.4979510000000  0.5450740000000 1.0
C      1  0.4003100000000  0.4800970000000  0.4915230000000 1.0
C      1  0.5861950000000  0.4969040000000  0.5441630000000 1.0
C      1  0.4967720000000  0.5267050000000  0.5796540000000 1.0
C      1  0.4386430000000  0.5387620000000  0.5381850000000 1.0
C      1  0.5869840000000  0.5269890000000  0.5371350000000 1.0
C      1  0.4481360000000  0.5741100000000  0.5176880000000 1.0
C      1  0.5726970000000  0.4746050000000  0.5574530000000 1.0
C      1  0.4239610000000  0.5650720000000  0.5069060000000 1.0
C      1  0.5132720000000  0.4596960000000  0.4213060000000 1.0
C      1  0.5501110000000  0.4283770000000  0.5115210000000 1.0
C      1  0.4632970000000  0.4728450000000  0.4151850000000 1.0
C      1  0.5139780000000  0.5020910000000  0.5339840000000 1.0
C      1  0.5145140000000  0.5051950000000  0.4099490000000 1.0
C      1  0.4758910000000  0.5285040000000  0.4228340000000 1.0
C      1  0.5497110000000  0.5688630000000  0.5510100000000 1.0
C      1  0.5522270000000  0.4747120000000  0.5781180000000 1.0
C      1  0.5530190000000  0.5005530000000  0.5100930000000 1.0
C      1  0.5685210000000  0.5053210000000  0.4385560000000 1.0
C      1  0.5684140000000  0.5460330000000  0.5547010000000 1.0
C      1  0.5611580000000  0.5358990000000  0.4376300000000 1.0
C      1  0.4733470000000  0.5607330000000  0.4806930000000 1.0
C      1  0.5574560000000  0.4820390000000  0.4237680000000 1.0
C      1  0.4901070000000  0.5446980000000  0.5242520000000 1.0
C      1  0.5813240000000  0.5290310000000  0.4809310000000 1.0
C      1  0.4165090000000  0.4734950000000  0.5423900000000 1.0
C      1  0.4922260000000  0.4339840000000  0.5619170000000 1.0
C      1  0.4770780000000  0.4097410000000  0.5033290000000 1.0
C      1  0.5010710000000  0.5207210000000  0.5151040000000 1.0
C      1  0.5834070000000  0.5029030000000  0.4626960000000 1.0
C      1  0.4924300000000  0.4998740000000  0.5943710000000 1.0
C      1  0.4756420000000  0.4371800000000  0.4423700000000 1.0
C      1  0.4644180000000  0.5358050000000  0.4922720000000 1.0
C      1  0.5540890000000  0.4144940000000  0.4613180000000 1.0
C      1  0.5281300000000  0.4583250000000  0.5799840000000 1.0
C      1  0.5431780000000  0.4339540000000  0.5399730000000 1.0
C      1  0.5201320000000  0.5093690000000  0.4365180000000 1.0
C      1  0.4732280000000  0.4721110000000  0.5429410000000 1.0
C      1  0.5376490000000  0.5505320000000  0.4324090000000 1.0
C      1  0.4540450000000  0.4659970000000  0.5831800000000 1.0
C      1  0.4890770000000  0.5061550000000  0.4707080000000 1.0
C      1  0.5158560000000  0.5854370000000  0.5290930000000 1.0
C      1  0.5027700000000  0.5558080000000  0.5745840000000 1.0
C      1  0.4794630000000  0.4592380000000  0.5696250000000 1.0
C      1  0.5381350000000  0.4627270000000  0.4693230000000 1.0
C      1  0.5133440000000  0.5645040000000  0.4366960000000 1.0
C      1  0.5240060000000  0.4481920000000  0.4474510000000 1.0
C      1  0.4158670000000  0.5034080000000  0.5401910000000 1.0
C      1  0.4480450000000  0.5187750000000  0.4128140000000 1.0
C      1  0.4645980000000  0.4920360000000  0.5917350000000 1.0
C      1  0.5392000000000  0.4145300000000  0.4872540000000 1.0
C      1  0.4674050000000  0.4596650000000  0.5172360000000 1.0
C      1  0.5653650000000  0.4557190000000  0.4336430000000 1.0
C      1  0.4851990000000  0.4531560000000  0.4195100000000 1.0
C      1  0.4963910000000  0.4625450000000  0.4829450000000 1.0
C      1  0.4138830000000  0.5283160000000  0.4941820000000 1.0
C      1  0.5688540000000  0.4487870000000  0.5432280000000 1.0
C      1  0.4318030000000  0.4572410000000  0.5647090000000 1.0
C      1  0.5451570000000  0.5799890000000  0.5244730000000 1.0
C      1  0.4399830000000  0.5418400000000  0.4531110000000 1.0
C      1  0.4974190000000  0.4380420000000  0.4640350000000 1.0
C      1  0.5103720000000  0.4129260000000  0.4784090000000 1.0
C      1  0.5461940000000  0.5654250000000  0.4754640000000 1.0
C      1  0.5882260000000  0.4670060000000  0.5020040000000 1.0
C      1  0.4752870000000  0.4770990000000  0.4957840000000 1.0
C      1  0.4376970000000  0.5342870000000  0.4816280000000 1.0
C      1  0.5295680000000  0.4854090000000  0.5155520000000 1.0
C      1  0.5112020000000  0.5597010000000  0.5142950000000 1.0
C      1  0.4288210000000  0.5211650000000  0.5590520000000 1.0
C      1  0.5656770000000  0.4601350000000  0.4628530000000 1.0
C      1  0.4951410000000  0.5967800000000  0.5065460000000 1.0
C      1  0.4262840000000  0.5209530000000  0.5181190000000 1.0
C      1  0.5325880000000  0.5195090000000  0.4746050000000 1.0
C      1  0.4757280000000  0.5186790000000  0.5612990000000 1.0
C      1  0.4568680000000  0.5490830000000  0.5895690000000 1.0
C      1  0.4642330000000  0.5589410000000  0.4521730000000 1.0
C      1  0.4626850000000  0.4972350000000  0.3989930000000 1.0
C      1  0.5803560000000  0.4915320000000  0.5162210000000 1.0
C      1  0.5507610000000  0.5240200000000  0.4944190000000 1.0
C      1  0.5369730000000  0.4971630000000  0.5863040000000 1.0
C      1  0.4717370000000  0.5066750000000  0.4479510000000 1.0
C      1  0.5135980000000  0.5156490000000  0.4600900000000 1.0
C      1  0.5309440000000  0.4799680000000  0.4098520000000 1.0
C      1  0.5873330000000  0.4765800000000  0.4744660000000 1.0
C      1  0.4732930000000  0.5608520000000  0.5696340000000 1.0
C      1  0.5502000000000  0.5274660000000  0.5634900000000 1.0
C      1  0.4905810000000  0.3965770000000  0.4898460000000 1.0
C      1  0.4194340000000  0.4706170000000  0.4506730000000 1.0
C      1  0.4509590000000  0.5183750000000  0.5800930000000 1.0
C      1  0.4852580000000  0.5557500000000  0.4330880000000 1.0
C      1  0.4579190000000  0.4829130000000  0.4423550000000 1.0
C      1  0.5146600000000  0.4812220000000  0.5939090000000 1.0
C      1  0.5399970000000  0.5579550000000  0.5042410000000 1.0
C      1  0.5758520000000  0.4435780000000  0.5150300000000 1.0
END
