TITL C-884135-4325-366 15.7056757294718 125000 -6184.03730041257 0 0 43 (C1) n - 1
REM
REM in /home/nfs/bkarasulu/CARBON/AIRSS/Generating-Clusters/ReaxFF-fromJPCA2015/Units_Real/with-SteepDescent/Only-C1/SD-CG/Try1-3A/FIRE-CG
REM
REM
REM
REM
REM
REM ./C.cell (11c1c37f851c82e70ff6c80c92926a4b)
REM
REM compiler GCC version 9.2.1 20190827 (Red Hat 9.2.1-1)
REM options -cpp -mtune=generic -march=x86-64 -g -O0 -fpre-include=/usr/include/finclude/math-vector-fortran.h
REM seed -564054971 -1737349665 -490696905 -1921452009 1129992903 1765066146 -600683021 1761480797 698694909 1833540589 1306246087 -996067145 632325509 62819152 -894294530 1651296484 1187688757 1203448702 1931607444 -1183167421 1874060456 2094696521 -1456032728 -2141516430 2043816273 -816082826 1531605013 -2085536926 -98300699 -2055499619 1255733788 1857946814 -292265146
REM
CELL 1.54180   50.00000   50.00000   50.00000   90.00000   90.00000   90.00000
LATT -1
SFAC C  
C      1  0.5822680000000  0.4708570000000  0.5254190000000 1.0
C      1  0.5153300000000  0.4642160000000  0.5391920000000 1.0
C      1  0.4894570000000  0.5113200000000  0.4374220000000 1.0
C      1  0.5117020000000  0.4825190000000  0.5603710000000 1.0
C      1  0.5351510000000  0.4665240000000  0.4551120000000 1.0
C      1  0.4527590000000  0.5254380000000  0.5022030000000 1.0
C      1  0.5377490000000  0.5387010000000  0.4799010000000 1.0
C      1  0.5224240000000  0.4947460000000  0.4948470000000 1.0
C      1  0.5053090000000  0.5541880000000  0.5416860000000 1.0
C      1  0.4785150000000  0.5126220000000  0.4658940000000 1.0
C      1  0.4780780000000  0.5472570000000  0.5468790000000 1.0
C      1  0.5375060000000  0.4925470000000  0.4685560000000 1.0
C      1  0.5278270000000  0.5405440000000  0.5272710000000 1.0
C      1  0.4733090000000  0.4993510000000  0.5621610000000 1.0
C      1  0.4964030000000  0.4843990000000  0.4309400000000 1.0
C      1  0.4993630000000  0.5751770000000  0.4804360000000 1.0
C      1  0.5397280000000  0.5195900000000  0.4561030000000 1.0
C      1  0.4898780000000  0.4942990000000  0.4838890000000 1.0
C      1  0.5274540000000  0.5666770000000  0.4844360000000 1.0
C      1  0.4809990000000  0.4327440000000  0.5176830000000 1.0
C      1  0.4845540000000  0.5681320000000  0.5288640000000 1.0
C      1  0.5390250000000  0.4417470000000  0.4695160000000 1.0
C      1  0.5305050000000  0.5232920000000  0.5028650000000 1.0
C      1  0.4740990000000  0.4782100000000  0.4878410000000 1.0
C      1  0.4467740000000  0.4833180000000  0.5261940000000 1.0
C      1  0.4994110000000  0.4991280000000  0.5737810000000 1.0
C      1  0.4451740000000  0.5135420000000  0.5261690000000 1.0
C      1  0.4960320000000  0.4275660000000  0.4938180000000 1.0
C      1  0.4876280000000  0.4555510000000  0.5376240000000 1.0
C      1  0.5173090000000  0.5173110000000  0.4396750000000 1.0
C      1  0.5111190000000  0.4272380000000  0.4698280000000 1.0
C      1  0.5322660000000  0.5640280000000  0.5124900000000 1.0
C      1  0.4811100000000  0.5764020000000  0.5020520000000 1.0
C      1  0.4596260000000  0.4431580000000  0.5021050000000 1.0
C      1  0.4978910000000  0.4347770000000  0.4436410000000 1.0
C      1  0.4487230000000  0.4692220000000  0.5000290000000 1.0
C      1  0.4629930000000  0.5229970000000  0.5482850000000 1.0
C      1  0.4670470000000  0.4751780000000  0.5445600000000 1.0
C      1  0.5321730000000  0.4738790000000  0.5161200000000 1.0
C      1  0.5583350000000  0.4722940000000  0.5209870000000 1.0
C      1  0.4628680000000  0.5351390000000  0.4783710000000 1.0
C      1  0.4739040000000  0.5631030000000  0.4789190000000 1.0
C      1  0.5102260000000  0.4610700000000  0.4358650000000 1.0
END
