TITL C-884140-4336-4 -44942.1062547569 125000 -17278.9480307825 0 0 116 (C1) n - 1
REM
REM in /home/nfs/bkarasulu/CARBON/AIRSS/Generating-Clusters/ReaxFF-fromJPCA2015/Units_Real/with-SteepDescent/Only-C1/SD-CG/Try1-3A/FIRE-CG
REM
REM
REM
REM
REM
REM ./C.cell (11c1c37f851c82e70ff6c80c92926a4b)
REM
REM compiler GCC version 9.2.1 20190827 (Red Hat 9.2.1-1)
REM options -cpp -mtune=generic -march=x86-64 -g -O0 -fpre-include=/usr/include/finclude/math-vector-fortran.h
REM seed 1938063340 -1851480610 -1547337956 836776538 215655194 -550728007 -225688958 -916717917 -889646050 270899722 -75338036 -1669326077 -1311238257 122331306 -1496523594 894003889 127621988 1159012214 1965283121 -2023526266 2139431204 803876273 -1263044405 220954515 -887894191 2142420712 -195168795 -402288659 457019438 -1992468565 -7713712 -2060294953 1121267375
REM
CELL 1.54180   50.00000   50.00000   50.00000   90.00000   90.00000   90.00000
LATT -1
SFAC C  
C      1  0.4820860000000  0.5695850000000  0.4321580000000 1.0
C      1  0.5330630000000  0.5547650000000  0.5714120000000 1.0
C      1  0.4707450000000  0.5417510000000  0.5001040000000 1.0
C      1  0.4526950000000  0.5298700000000  0.4191430000000 1.0
C      1  0.5026900000000  0.4581560000000  0.4985750000000 1.0
C      1  0.4389030000000  0.5369740000000  0.4449230000000 1.0
C      1  0.4915000000000  0.4413460000000  0.5196860000000 1.0
C      1  0.4612150000000  0.5755920000000  0.5335750000000 1.0
C      1  0.5346440000000  0.4887330000000  0.4386340000000 1.0
C      1  0.4247460000000  0.4671530000000  0.4577910000000 1.0
C      1  0.5065030000000  0.4725720000000  0.5776140000000 1.0
C      1  0.5390240000000  0.4775690000000  0.4999960000000 1.0
C      1  0.4148800000000  0.5190620000000  0.5570300000000 1.0
C      1  0.4869020000000  0.4177820000000  0.4576100000000 1.0
C      1  0.4976150000000  0.5285790000000  0.5894370000000 1.0
C      1  0.4623260000000  0.4301150000000  0.4470210000000 1.0
C      1  0.5634900000000  0.5366610000000  0.5482650000000 1.0
C      1  0.4506240000000  0.5216850000000  0.5080290000000 1.0
C      1  0.4728010000000  0.5076380000000  0.4180900000000 1.0
C      1  0.4175450000000  0.4921430000000  0.5494440000000 1.0
C      1  0.4004640000000  0.5254770000000  0.5337120000000 1.0
C      1  0.5129810000000  0.4817720000000  0.5107020000000 1.0
C      1  0.5289930000000  0.5218460000000  0.4732030000000 1.0
C      1  0.5503900000000  0.4247480000000  0.4540450000000 1.0
C      1  0.4613350000000  0.5220730000000  0.5639120000000 1.0
C      1  0.5626900000000  0.4286660000000  0.5016740000000 1.0
C      1  0.5851550000000  0.4900280000000  0.5007240000000 1.0
C      1  0.4385580000000  0.5388710000000  0.5591860000000 1.0
C      1  0.5809940000000  0.5180660000000  0.5348260000000 1.0
C      1  0.5027680000000  0.5504510000000  0.4193440000000 1.0
C      1  0.5139360000000  0.5859780000000  0.4770600000000 1.0
C      1  0.4855690000000  0.5857370000000  0.4824050000000 1.0
C      1  0.4998290000000  0.5876840000000  0.5289110000000 1.0
C      1  0.4855380000000  0.5071440000000  0.5465550000000 1.0
C      1  0.5757030000000  0.5539200000000  0.4723710000000 1.0
C      1  0.5156540000000  0.3993140000000  0.4969260000000 1.0
C      1  0.5754290000000  0.4903660000000  0.5453930000000 1.0
C      1  0.4906600000000  0.4099920000000  0.4865690000000 1.0
C      1  0.5124080000000  0.5184750000000  0.5424960000000 1.0
C      1  0.5796140000000  0.4708230000000  0.5256390000000 1.0
C      1  0.4341150000000  0.5040710000000  0.4857940000000 1.0
C      1  0.5451090000000  0.4054310000000  0.5016860000000 1.0
C      1  0.5024250000000  0.4338440000000  0.4371680000000 1.0
C      1  0.4321460000000  0.5599400000000  0.4879980000000 1.0
C      1  0.4383950000000  0.5590850000000  0.5367570000000 1.0
C      1  0.4667860000000  0.4649680000000  0.4745730000000 1.0
C      1  0.5394610000000  0.5701030000000  0.4423760000000 1.0
C      1  0.4331570000000  0.5112220000000  0.4555770000000 1.0
C      1  0.5465170000000  0.5592960000000  0.5043990000000 1.0
C      1  0.5926510000000  0.5183840000000  0.5077120000000 1.0
C      1  0.5243840000000  0.5072960000000  0.4139890000000 1.0
C      1  0.5316240000000  0.5546520000000  0.4193120000000 1.0
C      1  0.4143050000000  0.4796640000000  0.4821100000000 1.0
C      1  0.4826910000000  0.4493100000000  0.5830800000000 1.0
C      1  0.4545030000000  0.4759740000000  0.5270840000000 1.0
C      1  0.5384560000000  0.5030430000000  0.5817060000000 1.0
C      1  0.5281650000000  0.3983190000000  0.5236720000000 1.0
C      1  0.4449250000000  0.4451160000000  0.4684380000000 1.0
C      1  0.5690210000000  0.4336780000000  0.4730820000000 1.0
C      1  0.5552020000000  0.5008630000000  0.5022690000000 1.0
C      1  0.4388300000000  0.4862000000000  0.4411990000000 1.0
C      1  0.5413890000000  0.5829150000000  0.4879050000000 1.0
C      1  0.4629180000000  0.5035480000000  0.5255540000000 1.0
C      1  0.5109410000000  0.4159540000000  0.5673740000000 1.0
C      1  0.5511760000000  0.5706310000000  0.5258080000000 1.0
C      1  0.5306300000000  0.4156430000000  0.5479720000000 1.0
C      1  0.5126340000000  0.5266440000000  0.5161260000000 1.0
C      1  0.5753630000000  0.5088310000000  0.4616520000000 1.0
C      1  0.5473110000000  0.5094980000000  0.4555270000000 1.0
C      1  0.5589140000000  0.5747820000000  0.4645660000000 1.0
C      1  0.4707670000000  0.5750970000000  0.4599150000000 1.0
C      1  0.5720490000000  0.4600430000000  0.4578510000000 1.0
C      1  0.5048180000000  0.5531100000000  0.5739860000000 1.0
C      1  0.5875310000000  0.5302310000000  0.4802990000000 1.0
C      1  0.4827490000000  0.5338740000000  0.4746310000000 1.0
C      1  0.4606260000000  0.4887970000000  0.4868910000000 1.0
C      1  0.4325870000000  0.4338160000000  0.4972220000000 1.0
C      1  0.4446270000000  0.5614430000000  0.4633260000000 1.0
C      1  0.4846240000000  0.5048150000000  0.4808600000000 1.0
C      1  0.3917630000000  0.5428870000000  0.5131930000000 1.0
C      1  0.5440480000000  0.4423580000000  0.5469330000000 1.0
C      1  0.4751700000000  0.4193520000000  0.5103540000000 1.0
C      1  0.4904340000000  0.5648050000000  0.5441980000000 1.0
C      1  0.4604560000000  0.4414640000000  0.5680990000000 1.0
C      1  0.5642380000000  0.4463500000000  0.5252130000000 1.0
C      1  0.5508960000000  0.4619080000000  0.4369190000000 1.0
C      1  0.5055240000000  0.5046660000000  0.4998040000000 1.0
C      1  0.5250170000000  0.4600730000000  0.4791550000000 1.0
C      1  0.4924160000000  0.4233260000000  0.5818470000000 1.0
C      1  0.4772210000000  0.5898050000000  0.5117210000000 1.0
C      1  0.5112980000000  0.5007310000000  0.5893920000000 1.0
C      1  0.4779400000000  0.4475600000000  0.4298810000000 1.0
C      1  0.4669750000000  0.4808390000000  0.4300540000000 1.0
C      1  0.4623680000000  0.5563460000000  0.4173600000000 1.0
C      1  0.5088720000000  0.5407920000000  0.4648100000000 1.0
C      1  0.4983460000000  0.5208490000000  0.4151370000000 1.0
C      1  0.5163800000000  0.5670470000000  0.4571790000000 1.0
C      1  0.5420420000000  0.5269420000000  0.4980800000000 1.0
C      1  0.5551110000000  0.5645890000000  0.5528050000000 1.0
C      1  0.4480820000000  0.4258660000000  0.5200530000000 1.0
C      1  0.4203670000000  0.5580840000000  0.5123490000000 1.0
C      1  0.4158930000000  0.4555400000000  0.4962360000000 1.0
C      1  0.4703570000000  0.5353840000000  0.5849900000000 1.0
C      1  0.5144350000000  0.4731730000000  0.4556090000000 1.0
C      1  0.5362450000000  0.4630950000000  0.5652440000000 1.0
C      1  0.4925150000000  0.5491680000000  0.5179920000000 1.0
C      1  0.4856190000000  0.4784990000000  0.4563050000000 1.0
C      1  0.5554040000000  0.4835800000000  0.5672980000000 1.0
C      1  0.5843830000000  0.4831110000000  0.4698350000000 1.0
C      1  0.5340570000000  0.4379010000000  0.4359500000000 1.0
C      1  0.4286230000000  0.4685690000000  0.5399430000000 1.0
C      1  0.5435310000000  0.5284320000000  0.4079020000000 1.0
C      1  0.4783500000000  0.4616060000000  0.5363510000000 1.0
C      1  0.5355900000000  0.5256910000000  0.5597890000000 1.0
C      1  0.4902340000000  0.4794390000000  0.5544600000000 1.0
C      1  0.4426100000000  0.4408820000000  0.5459250000000 1.0
END
