TITL C-884131-4643-497 41.7546205815584 125000 -20297.7587816703 0 0 137 (C1) n - 1
REM
REM in /home/nfs/bkarasulu/CARBON/AIRSS/Generating-Clusters/ReaxFF-fromJPCA2015/Units_Real/with-SteepDescent/Only-C1/SD-CG/Try1-3A/FIRE-CG
REM
REM
REM
REM
REM
REM ./C.cell (11c1c37f851c82e70ff6c80c92926a4b)
REM
REM compiler GCC version 9.2.1 20190827 (Red Hat 9.2.1-1)
REM options -cpp -mtune=generic -march=x86-64 -g -O0 -fpre-include=/usr/include/finclude/math-vector-fortran.h
REM seed 140446255 896222549 -2041736154 2039202101 345819247 830635639 77795946 -2068755849 1837290890 -489913376 1215130844 -588932399 -488119500 1930191661 1013039684 -713473542 1064204026 1966383430 -316059692 -1934682921 -1476911726 -379380782 -2118282053 2141683441 -1541202162 -269015232 -852098324 -633625955 1249418102 -862190311 619751975 -1032042356 1598900334
REM
CELL 1.54180   50.00000   50.00000   50.00000   90.00000   90.00000   90.00000
LATT -1
SFAC C  
C      1  0.4984100000000  0.5079510000000  0.4040480000000 1.0
C      1  0.4731890000000  0.5296910000000  0.5069420000000 1.0
C      1  0.5648420000000  0.4111130000000  0.5120400000000 1.0
C      1  0.5006490000000  0.4552720000000  0.5932780000000 1.0
C      1  0.5098400000000  0.4678610000000  0.4784880000000 1.0
C      1  0.5106370000000  0.4620880000000  0.4193960000000 1.0
C      1  0.5482250000000  0.5807250000000  0.5160740000000 1.0
C      1  0.5573310000000  0.5407360000000  0.5645180000000 1.0
C      1  0.4667830000000  0.5537860000000  0.4108130000000 1.0
C      1  0.5771600000000  0.5607430000000  0.4876440000000 1.0
C      1  0.5582120000000  0.5524210000000  0.5253310000000 1.0
C      1  0.4756360000000  0.5897930000000  0.5262430000000 1.0
C      1  0.4918460000000  0.4168370000000  0.5302830000000 1.0
C      1  0.5186690000000  0.4878960000000  0.5457690000000 1.0
C      1  0.4866540000000  0.4264460000000  0.5563860000000 1.0
C      1  0.4857690000000  0.4616890000000  0.4035220000000 1.0
C      1  0.4567440000000  0.5771910000000  0.4829500000000 1.0
C      1  0.4999060000000  0.5988540000000  0.5134340000000 1.0
C      1  0.5363150000000  0.5526900000000  0.4267620000000 1.0
C      1  0.5532330000000  0.4976570000000  0.5165670000000 1.0
C      1  0.4636520000000  0.4446840000000  0.5619200000000 1.0
C      1  0.5525980000000  0.5839710000000  0.4881040000000 1.0
C      1  0.5149750000000  0.5621130000000  0.5387690000000 1.0
C      1  0.5825220000000  0.5004950000000  0.5141130000000 1.0
C      1  0.4830730000000  0.5181650000000  0.5439700000000 1.0
C      1  0.5746710000000  0.4964530000000  0.4252350000000 1.0
C      1  0.4638120000000  0.4992490000000  0.5504900000000 1.0
C      1  0.4856360000000  0.5348500000000  0.4163570000000 1.0
C      1  0.4690750000000  0.4777950000000  0.5162740000000 1.0
C      1  0.4429070000000  0.4317800000000  0.4615000000000 1.0
C      1  0.4618590000000  0.4873390000000  0.5937960000000 1.0
C      1  0.4183050000000  0.4576440000000  0.4979960000000 1.0
C      1  0.5332660000000  0.4475440000000  0.4799190000000 1.0
C      1  0.4260770000000  0.5627330000000  0.5491740000000 1.0
C      1  0.5368070000000  0.5251710000000  0.5191510000000 1.0
C      1  0.5091930000000  0.5483920000000  0.5820880000000 1.0
C      1  0.4208980000000  0.4659100000000  0.5665940000000 1.0
C      1  0.4584700000000  0.4792410000000  0.4608580000000 1.0
C      1  0.5041320000000  0.5973420000000  0.4840770000000 1.0
C      1  0.5236440000000  0.4392780000000  0.4328300000000 1.0
C      1  0.5090330000000  0.4148080000000  0.4448340000000 1.0
C      1  0.4771250000000  0.4890740000000  0.3977890000000 1.0
C      1  0.5573860000000  0.4845180000000  0.4620530000000 1.0
C      1  0.4739590000000  0.5145310000000  0.5908300000000 1.0
C      1  0.5288990000000  0.5867220000000  0.4717260000000 1.0
C      1  0.4166490000000  0.5367640000000  0.5412580000000 1.0
C      1  0.4744100000000  0.4561770000000  0.4990520000000 1.0
C      1  0.5980780000000  0.4798510000000  0.4673510000000 1.0
C      1  0.4235340000000  0.5261160000000  0.5654780000000 1.0
C      1  0.5840180000000  0.5535320000000  0.5143960000000 1.0
C      1  0.5156070000000  0.4914420000000  0.4215930000000 1.0
C      1  0.4633560000000  0.5416930000000  0.5849680000000 1.0
C      1  0.4303040000000  0.4724860000000  0.4220760000000 1.0
C      1  0.5382460000000  0.5040180000000  0.4694530000000 1.0
C      1  0.5604530000000  0.4428220000000  0.4692110000000 1.0
C      1  0.4821870000000  0.5016500000000  0.5052420000000 1.0
C      1  0.4523200000000  0.5465570000000  0.4472290000000 1.0
C      1  0.5116310000000  0.5414560000000  0.5146690000000 1.0
C      1  0.5206330000000  0.5029390000000  0.6033780000000 1.0
C      1  0.4373840000000  0.5028220000000  0.5625040000000 1.0
C      1  0.5320520000000  0.5533310000000  0.5645490000000 1.0
C      1  0.4374040000000  0.5139120000000  0.4149040000000 1.0
C      1  0.5233750000000  0.5887710000000  0.5278600000000 1.0
C      1  0.4788520000000  0.4237700000000  0.4180460000000 1.0
C      1  0.4227300000000  0.5222060000000  0.5153700000000 1.0
C      1  0.4400010000000  0.4396880000000  0.5401650000000 1.0
C      1  0.5602010000000  0.5505910000000  0.4451470000000 1.0
C      1  0.5537600000000  0.5145010000000  0.4189420000000 1.0
C      1  0.3997170000000  0.5040610000000  0.5109030000000 1.0
C      1  0.4208840000000  0.5082110000000  0.4532440000000 1.0
C      1  0.4774290000000  0.5331560000000  0.4450700000000 1.0
C      1  0.5020790000000  0.4549310000000  0.5036010000000 1.0
C      1  0.5243180000000  0.4227880000000  0.4907330000000 1.0
C      1  0.4799450000000  0.5895640000000  0.4686440000000 1.0
C      1  0.5771820000000  0.4734470000000  0.5657840000000 1.0
C      1  0.5156450000000  0.4327420000000  0.5167100000000 1.0
C      1  0.4170000000000  0.4575880000000  0.5399210000000 1.0
C      1  0.4437670000000  0.5019020000000  0.4707760000000 1.0
C      1  0.4827280000000  0.5668930000000  0.5457070000000 1.0
C      1  0.5062860000000  0.4087580000000  0.4734570000000 1.0
C      1  0.4989900000000  0.4988420000000  0.4830020000000 1.0
C      1  0.5406260000000  0.4770120000000  0.5317520000000 1.0
C      1  0.5021980000000  0.5187310000000  0.5811490000000 1.0
C      1  0.4369850000000  0.5494460000000  0.5741270000000 1.0
C      1  0.5903350000000  0.5131130000000  0.5390620000000 1.0
C      1  0.4517820000000  0.5851070000000  0.5105650000000 1.0
C      1  0.5099940000000  0.4430940000000  0.5656310000000 1.0
C      1  0.4298590000000  0.5306910000000  0.4356470000000 1.0
C      1  0.5963440000000  0.5001670000000  0.4454680000000 1.0
C      1  0.5507060000000  0.4464870000000  0.4392620000000 1.0
C      1  0.5806970000000  0.5429790000000  0.5421560000000 1.0
C      1  0.4471130000000  0.4553330000000  0.4419990000000 1.0
C      1  0.5713210000000  0.4156290000000  0.4869940000000 1.0
C      1  0.4330600000000  0.4838700000000  0.5850050000000 1.0
C      1  0.4788100000000  0.4048760000000  0.4838050000000 1.0
C      1  0.5646670000000  0.4520570000000  0.5644160000000 1.0
C      1  0.5412800000000  0.5258690000000  0.4883590000000 1.0
C      1  0.4475040000000  0.5515810000000  0.4744240000000 1.0
C      1  0.4743780000000  0.4722070000000  0.5446630000000 1.0
C      1  0.5097860000000  0.5137750000000  0.5489720000000 1.0
C      1  0.5863700000000  0.5583460000000  0.4400140000000 1.0
C      1  0.4453310000000  0.4263830000000  0.5151260000000 1.0
C      1  0.5019580000000  0.4676690000000  0.5509080000000 1.0
C      1  0.4705620000000  0.4112750000000  0.5114920000000 1.0
C      1  0.4070330000000  0.4757160000000  0.5137440000000 1.0
C      1  0.4083490000000  0.4854280000000  0.4368940000000 1.0
C      1  0.4618440000000  0.4101610000000  0.4609020000000 1.0
C      1  0.5210710000000  0.5721900000000  0.4447500000000 1.0
C      1  0.5561510000000  0.4743780000000  0.4336920000000 1.0
C      1  0.4478940000000  0.5262930000000  0.4905330000000 1.0
C      1  0.5310620000000  0.5280790000000  0.4134980000000 1.0
C      1  0.5563200000000  0.4091750000000  0.5379330000000 1.0
C      1  0.4796410000000  0.4629690000000  0.4716680000000 1.0
C      1  0.4064710000000  0.5592650000000  0.5044240000000 1.0
C      1  0.5437260000000  0.4337170000000  0.5574390000000 1.0
C      1  0.5651850000000  0.5170000000000  0.5798800000000 1.0
C      1  0.4837970000000  0.5601900000000  0.5760870000000 1.0
C      1  0.5179850000000  0.4755960000000  0.6010870000000 1.0
C      1  0.4631610000000  0.4460940000000  0.4156350000000 1.0
C      1  0.4721420000000  0.5409530000000  0.5337430000000 1.0
C      1  0.4965210000000  0.5178100000000  0.4612020000000 1.0
C      1  0.4820280000000  0.4051820000000  0.4381870000000 1.0
C      1  0.4477160000000  0.4912040000000  0.4033260000000 1.0
C      1  0.4956040000000  0.5781220000000  0.4483350000000 1.0
C      1  0.6003640000000  0.5211250000000  0.4657610000000 1.0
C      1  0.5565840000000  0.5450380000000  0.4750670000000 1.0
C      1  0.4266540000000  0.5732280000000  0.5216560000000 1.0
C      1  0.5860540000000  0.4998250000000  0.5640570000000 1.0
C      1  0.5194380000000  0.5062670000000  0.4477240000000 1.0
C      1  0.3989430000000  0.5316150000000  0.4985800000000 1.0
C      1  0.4322090000000  0.4358240000000  0.4888650000000 1.0
C      1  0.5744470000000  0.4678390000000  0.4777660000000 1.0
C      1  0.5401710000000  0.4473840000000  0.5316210000000 1.0
C      1  0.5464520000000  0.5024220000000  0.5945080000000 1.0
C      1  0.5977870000000  0.5509440000000  0.4644760000000 1.0
C      1  0.5979800000000  0.5010300000000  0.4876440000000 1.0
C      1  0.4723740000000  0.4610210000000  0.5869920000000 1.0
END
