TITL C-884133-6611-272 29.0892882471012 125000 -27425.8454532455 0 0 184 (C1) n - 1
REM
REM in /home/nfs/bkarasulu/CARBON/AIRSS/Generating-Clusters/ReaxFF-fromJPCA2015/Units_Real/with-SteepDescent/Only-C1/SD-CG/Try1-3A/FIRE-CG
REM
REM
REM
REM
REM
REM ./C.cell (11c1c37f851c82e70ff6c80c92926a4b)
REM
REM compiler GCC version 9.2.1 20190827 (Red Hat 9.2.1-1)
REM options -cpp -mtune=generic -march=x86-64 -g -O0 -fpre-include=/usr/include/finclude/math-vector-fortran.h
REM seed -337540354 -442864838 -1126422526 -95876910 481654737 1616094164 741074470 124040704 -1899822324 -308196218 2135551417 34674414 -1701388691 598449350 -301945332 1702486216 -413259735 60223348 1427931505 1622296540 -149217940 -995555672 -1354590737 875318109 -186058030 -1699364346 453640212 2055645656 855356291 -1849241505 -57239826 -1828166141 110814549
REM
CELL 1.54180   50.00000   50.00000   50.00000   90.00000   90.00000   90.00000
LATT -1
SFAC C  
C      1  0.5165890000000  0.5804910000000  0.5679460000000 1.0
C      1  0.5407200000000  0.5319800000000  0.5595340000000 1.0
C      1  0.4254060000000  0.5405430000000  0.4318170000000 1.0
C      1  0.5168430000000  0.5258060000000  0.4443400000000 1.0
C      1  0.5174530000000  0.5194290000000  0.6117430000000 1.0
C      1  0.5487320000000  0.5964420000000  0.5012980000000 1.0
C      1  0.4228020000000  0.4408130000000  0.5497430000000 1.0
C      1  0.4695110000000  0.3966330000000  0.5049980000000 1.0
C      1  0.4044580000000  0.5259800000000  0.5363070000000 1.0
C      1  0.5356300000000  0.5463930000000  0.4777780000000 1.0
C      1  0.4499990000000  0.5853230000000  0.5088060000000 1.0
C      1  0.5315310000000  0.4129270000000  0.4381790000000 1.0
C      1  0.5832930000000  0.4655480000000  0.4451230000000 1.0
C      1  0.4874720000000  0.5715180000000  0.4152090000000 1.0
C      1  0.4561690000000  0.4105640000000  0.4412880000000 1.0
C      1  0.5099570000000  0.3904640000000  0.4964400000000 1.0
C      1  0.5415680000000  0.4623710000000  0.4087570000000 1.0
C      1  0.4593770000000  0.4188990000000  0.5526970000000 1.0
C      1  0.4551320000000  0.5992350000000  0.4698960000000 1.0
C      1  0.5299650000000  0.5507930000000  0.4403560000000 1.0
C      1  0.4880190000000  0.4018320000000  0.5263220000000 1.0
C      1  0.5400760000000  0.4859160000000  0.5416080000000 1.0
C      1  0.4225540000000  0.5141800000000  0.4225450000000 1.0
C      1  0.4072840000000  0.5395710000000  0.4819940000000 1.0
C      1  0.5575900000000  0.5558310000000  0.4343470000000 1.0
C      1  0.5090130000000  0.5273530000000  0.4169110000000 1.0
C      1  0.4845780000000  0.4907450000000  0.5497330000000 1.0
C      1  0.5254130000000  0.5676410000000  0.5941220000000 1.0
C      1  0.4842930000000  0.6074860000000  0.4874520000000 1.0
C      1  0.5436810000000  0.4296660000000  0.5698860000000 1.0
C      1  0.4889990000000  0.5643700000000  0.4834350000000 1.0
C      1  0.4967840000000  0.5935790000000  0.4648470000000 1.0
C      1  0.4392400000000  0.4225110000000  0.5311400000000 1.0
C      1  0.4026950000000  0.4653200000000  0.4462230000000 1.0
C      1  0.5773310000000  0.4338360000000  0.4947930000000 1.0
C      1  0.4723320000000  0.6024750000000  0.4478180000000 1.0
C      1  0.5001650000000  0.4707570000000  0.5106370000000 1.0
C      1  0.4261260000000  0.4836250000000  0.5165700000000 1.0
C      1  0.5062840000000  0.5468440000000  0.6038250000000 1.0
C      1  0.5660760000000  0.4923980000000  0.4375010000000 1.0
C      1  0.5771930000000  0.4653030000000  0.5832750000000 1.0
C      1  0.4559290000000  0.5426400000000  0.5864250000000 1.0
C      1  0.5123470000000  0.4306310000000  0.5667240000000 1.0
C      1  0.5678800000000  0.5319540000000  0.5702050000000 1.0
C      1  0.4134470000000  0.4418190000000  0.4894790000000 1.0
C      1  0.4665830000000  0.5190170000000  0.5735680000000 1.0
C      1  0.5102010000000  0.4803350000000  0.4366700000000 1.0
C      1  0.5522150000000  0.4512080000000  0.5873640000000 1.0
C      1  0.4480940000000  0.4666270000000  0.4478470000000 1.0
C      1  0.5795180000000  0.4556360000000  0.5511900000000 1.0
C      1  0.5850770000000  0.5729570000000  0.5505000000000 1.0
C      1  0.4674730000000  0.5761190000000  0.5478580000000 1.0
C      1  0.5628850000000  0.5884680000000  0.5463060000000 1.0
C      1  0.4298760000000  0.5211990000000  0.4856180000000 1.0
C      1  0.4265310000000  0.4172180000000  0.4816420000000 1.0
C      1  0.5176740000000  0.5169610000000  0.5676530000000 1.0
C      1  0.4461280000000  0.5732340000000  0.4172850000000 1.0
C      1  0.4961740000000  0.6052370000000  0.5130080000000 1.0
C      1  0.4817910000000  0.5565460000000  0.5913550000000 1.0
C      1  0.4334500000000  0.5804070000000  0.4681540000000 1.0
C      1  0.4793500000000  0.4889240000000  0.4761030000000 1.0
C      1  0.4179340000000  0.4426020000000  0.4367020000000 1.0
C      1  0.4618570000000  0.5640870000000  0.4927830000000 1.0
C      1  0.4729840000000  0.4500440000000  0.5924520000000 1.0
C      1  0.5136840000000  0.4688550000000  0.4070070000000 1.0
C      1  0.5738750000000  0.4385610000000  0.4435650000000 1.0
C      1  0.5027510000000  0.4118500000000  0.4334780000000 1.0
C      1  0.4355640000000  0.4812710000000  0.5893150000000 1.0
C      1  0.5577410000000  0.5293830000000  0.4695490000000 1.0
C      1  0.5406070000000  0.4917630000000  0.4758830000000 1.0
C      1  0.5361220000000  0.4478570000000  0.4596950000000 1.0
C      1  0.6143550000000  0.4657090000000  0.5124410000000 1.0
C      1  0.4657370000000  0.5531140000000  0.4070780000000 1.0
C      1  0.5118950000000  0.4699590000000  0.6048450000000 1.0
C      1  0.4643810000000  0.5249800000000  0.3998190000000 1.0
C      1  0.4092010000000  0.4680410000000  0.5517370000000 1.0
C      1  0.5651390000000  0.4751720000000  0.5313290000000 1.0
C      1  0.4321490000000  0.5329740000000  0.5275930000000 1.0
C      1  0.5695790000000  0.4222890000000  0.4675320000000 1.0
C      1  0.4715920000000  0.4655010000000  0.4617000000000 1.0
C      1  0.4322340000000  0.5435670000000  0.5683310000000 1.0
C      1  0.3968070000000  0.4813210000000  0.5295000000000 1.0
C      1  0.3926000000000  0.5191690000000  0.4673640000000 1.0
C      1  0.4428530000000  0.4521980000000  0.4212250000000 1.0
C      1  0.5467520000000  0.3997830000000  0.5105360000000 1.0
C      1  0.4719440000000  0.4966210000000  0.6213590000000 1.0
C      1  0.5434700000000  0.5082960000000  0.6079270000000 1.0
C      1  0.5854720000000  0.5135640000000  0.4458410000000 1.0
C      1  0.5641770000000  0.5073360000000  0.4854450000000 1.0
C      1  0.4613730000000  0.4520490000000  0.5036700000000 1.0
C      1  0.4906730000000  0.5127780000000  0.4056980000000 1.0
C      1  0.4675040000000  0.4955550000000  0.5279270000000 1.0
C      1  0.5652370000000  0.4166390000000  0.5223020000000 1.0
C      1  0.6051020000000  0.4678420000000  0.5404190000000 1.0
C      1  0.5576720000000  0.4865900000000  0.4093990000000 1.0
C      1  0.5909330000000  0.4932540000000  0.5334050000000 1.0
C      1  0.5787110000000  0.5427490000000  0.4537190000000 1.0
C      1  0.4815370000000  0.4935670000000  0.4276620000000 1.0
C      1  0.5643990000000  0.5286330000000  0.6006960000000 1.0
C      1  0.4878540000000  0.4566380000000  0.4040080000000 1.0
C      1  0.5774350000000  0.4904310000000  0.5951360000000 1.0
C      1  0.4681020000000  0.5907140000000  0.4227020000000 1.0
C      1  0.4825290000000  0.4360270000000  0.4924110000000 1.0
C      1  0.5321660000000  0.4988040000000  0.4475220000000 1.0
C      1  0.4617000000000  0.4782960000000  0.4104850000000 1.0
C      1  0.5634170000000  0.5851650000000  0.4770940000000 1.0
C      1  0.5265250000000  0.5622560000000  0.5006960000000 1.0
C      1  0.5534900000000  0.5133370000000  0.3969420000000 1.0
C      1  0.4968120000000  0.5211750000000  0.4970290000000 1.0
C      1  0.6007780000000  0.4519710000000  0.4903940000000 1.0
C      1  0.5624840000000  0.5322960000000  0.5173340000000 1.0
C      1  0.5501400000000  0.5827570000000  0.4508800000000 1.0
C      1  0.5234870000000  0.5907260000000  0.4465380000000 1.0
C      1  0.4883460000000  0.4136780000000  0.5509600000000 1.0
C      1  0.5003080000000  0.5596110000000  0.5127590000000 1.0
C      1  0.5904800000000  0.5595960000000  0.5074260000000 1.0
C      1  0.4939760000000  0.5363080000000  0.4703080000000 1.0
C      1  0.4395540000000  0.4325030000000  0.5719040000000 1.0
C      1  0.4362730000000  0.4911010000000  0.4530090000000 1.0
C      1  0.4312870000000  0.4205800000000  0.4528830000000 1.0
C      1  0.5005600000000  0.4702740000000  0.5386080000000 1.0
C      1  0.5306840000000  0.4406220000000  0.5184470000000 1.0
C      1  0.5273470000000  0.5289980000000  0.3969700000000 1.0
C      1  0.3801110000000  0.5079710000000  0.4913230000000 1.0
C      1  0.3871440000000  0.5072300000000  0.5214190000000 1.0
C      1  0.6027870000000  0.4682400000000  0.4655270000000 1.0
C      1  0.4540050000000  0.5363480000000  0.4933280000000 1.0
C      1  0.5084570000000  0.4444960000000  0.5007800000000 1.0
C      1  0.4731400000000  0.4790990000000  0.5041680000000 1.0
C      1  0.5641480000000  0.4292020000000  0.5488000000000 1.0
C      1  0.4399820000000  0.5591330000000  0.5429370000000 1.0
C      1  0.4289950000000  0.5665070000000  0.4404020000000 1.0
C      1  0.5483210000000  0.5524360000000  0.6006750000000 1.0
C      1  0.4084390000000  0.4976900000000  0.4460560000000 1.0
C      1  0.4603670000000  0.4274620000000  0.4176630000000 1.0
C      1  0.4918750000000  0.5195160000000  0.5532200000000 1.0
C      1  0.5930910000000  0.5054710000000  0.4873480000000 1.0
C      1  0.5468340000000  0.4397300000000  0.4304360000000 1.0
C      1  0.4421010000000  0.5064130000000  0.5285670000000 1.0
C      1  0.5135740000000  0.5712860000000  0.4280870000000 1.0
C      1  0.5313940000000  0.4919820000000  0.5676640000000 1.0
C      1  0.5900050000000  0.5350010000000  0.5259800000000 1.0
C      1  0.5180980000000  0.4492860000000  0.5441710000000 1.0
C      1  0.4337680000000  0.4572400000000  0.5035800000000 1.0
C      1  0.4580230000000  0.4993730000000  0.5945520000000 1.0
C      1  0.4636380000000  0.5041310000000  0.4557230000000 1.0
C      1  0.4429120000000  0.4098780000000  0.5052400000000 1.0
C      1  0.4174690000000  0.5682680000000  0.4904000000000 1.0
C      1  0.4936300000000  0.5333640000000  0.5225080000000 1.0
C      1  0.4459010000000  0.4529850000000  0.5929600000000 1.0
C      1  0.4254710000000  0.5736550000000  0.5178780000000 1.0
C      1  0.5391140000000  0.5266100000000  0.5316640000000 1.0
C      1  0.3945780000000  0.4573850000000  0.4725170000000 1.0
C      1  0.5514360000000  0.5515490000000  0.5011380000000 1.0
C      1  0.5823830000000  0.5631310000000  0.4802090000000 1.0
C      1  0.5266610000000  0.5028070000000  0.5228980000000 1.0
C      1  0.4457830000000  0.5037100000000  0.4062140000000 1.0
C      1  0.5467220000000  0.4055330000000  0.4618930000000 1.0
C      1  0.5525720000000  0.5400590000000  0.4069060000000 1.0
C      1  0.5139740000000  0.4966890000000  0.4967450000000 1.0
C      1  0.5810190000000  0.5825170000000  0.5238750000000 1.0
C      1  0.5880010000000  0.5447480000000  0.5535080000000 1.0
C      1  0.6086170000000  0.4956940000000  0.5102040000000 1.0
C      1  0.3960120000000  0.4834820000000  0.4866080000000 1.0
C      1  0.5367090000000  0.4777070000000  0.5935040000000 1.0
C      1  0.5094390000000  0.4554710000000  0.4540440000000 1.0
C      1  0.4720000000000  0.5955030000000  0.5277070000000 1.0
C      1  0.5264950000000  0.5999390000000  0.5194580000000 1.0
C      1  0.4226220000000  0.4936370000000  0.4911040000000 1.0
C      1  0.4994000000000  0.4471760000000  0.5919570000000 1.0
C      1  0.4651700000000  0.5306170000000  0.4673730000000 1.0
C      1  0.4885360000000  0.4291130000000  0.4121300000000 1.0
C      1  0.4176250000000  0.4906160000000  0.5693510000000 1.0
C      1  0.4825960000000  0.4020270000000  0.4517630000000 1.0
C      1  0.6048060000000  0.4983250000000  0.4613610000000 1.0
C      1  0.5012110000000  0.4940580000000  0.6167740000000 1.0
C      1  0.4878040000000  0.5738640000000  0.5682150000000 1.0
C      1  0.5336190000000  0.5896230000000  0.5466080000000 1.0
C      1  0.4871620000000  0.3930450000000  0.4802480000000 1.0
C      1  0.5473950000000  0.4646080000000  0.4797030000000 1.0
C      1  0.4148700000000  0.5202530000000  0.5631840000000 1.0
C      1  0.5368150000000  0.3896590000000  0.4866970000000 1.0
C      1  0.4869290000000  0.4423290000000  0.4650230000000 1.0
C      1  0.5549650000000  0.4552120000000  0.5064600000000 1.0
END
