TITL C-883737-113-52 -315561.504885274 125000 -6327.64380551917 0 0 44 (C1) n - 1
REM
REM in /home/nfs/bkarasulu/CARBON/AIRSS/Generating-Clusters/ReaxFF-fromJPCA2015/Units_Real/with-SteepDescent/Only-C1/SD-CG/Try1-3A/FIRE-CG
REM
REM
REM
REM
REM
REM ./C.cell (11c1c37f851c82e70ff6c80c92926a4b)
REM
REM compiler GCC version 9.2.1 20190827 (Red Hat 9.2.1-1)
REM options -cpp -mtune=generic -march=x86-64 -g -O0 -fpre-include=/usr/include/finclude/math-vector-fortran.h
REM seed 328765061 299982589 1167507434 -987087305 -86331117 -796402346 1315244916 -399759587 -590287935 -919205836 1097069961 1273747149 -1004350849 -1601524381 -615182124 1292725915 -1600780013 423558899 1500697850 1481259873 857746586 850870604 1802558306 -1087486265 -1469579233 -1330151160 -940836992 -2014328930 237605796 -828867671 -212820368 -626272443 -672877909
REM
CELL 1.54180   50.00000   50.00000   50.00000   90.00000   90.00000   90.00000
LATT -1
SFAC C  
C      1  0.4298080000000  0.4776820000000  0.5164190000000 1.0
C      1  0.4853680000000  0.4381750000000  0.4801080000000 1.0
C      1  0.4986570000000  0.5233080000000  0.5091140000000 1.0
C      1  0.4765580000000  0.4815520000000  0.5077290000000 1.0
C      1  0.4895040000000  0.5419760000000  0.5560560000000 1.0
C      1  0.4949060000000  0.5616080000000  0.5351410000000 1.0
C      1  0.5639150000000  0.4787290000000  0.4734600000000 1.0
C      1  0.4821140000000  0.5283220000000  0.4551130000000 1.0
C      1  0.4676890000000  0.4528060000000  0.4963150000000 1.0
C      1  0.5507040000000  0.4822020000000  0.5225030000000 1.0
C      1  0.4714800000000  0.4908780000000  0.5356370000000 1.0
C      1  0.5260050000000  0.5366620000000  0.5127760000000 1.0
C      1  0.4679970000000  0.4425770000000  0.5242570000000 1.0
C      1  0.5345320000000  0.4436830000000  0.4922110000000 1.0
C      1  0.4984350000000  0.4767040000000  0.4464560000000 1.0
C      1  0.5426320000000  0.4540870000000  0.5183650000000 1.0
C      1  0.4450520000000  0.4580040000000  0.5357140000000 1.0
C      1  0.4974230000000  0.4422740000000  0.5262610000000 1.0
C      1  0.5620770000000  0.4965190000000  0.4982400000000 1.0
C      1  0.5235730000000  0.5547740000000  0.5359880000000 1.0
C      1  0.5434160000000  0.4571530000000  0.4678410000000 1.0
C      1  0.4830630000000  0.5530280000000  0.5081180000000 1.0
C      1  0.4367280000000  0.5167080000000  0.4759920000000 1.0
C      1  0.5191730000000  0.5573800000000  0.4706070000000 1.0
C      1  0.5400810000000  0.5479330000000  0.4896550000000 1.0
C      1  0.4817830000000  0.4984680000000  0.4616170000000 1.0
C      1  0.4688820000000  0.5581310000000  0.4810310000000 1.0
C      1  0.5249360000000  0.4659980000000  0.4444460000000 1.0
C      1  0.4321500000000  0.4972210000000  0.4971300000000 1.0
C      1  0.5374860000000  0.4919160000000  0.4450400000000 1.0
C      1  0.4892740000000  0.5148920000000  0.5403180000000 1.0
C      1  0.4562440000000  0.4755880000000  0.5571610000000 1.0
C      1  0.4897300000000  0.5004770000000  0.4924100000000 1.0
C      1  0.4484700000000  0.4974790000000  0.4579090000000 1.0
C      1  0.5261590000000  0.5150780000000  0.4472010000000 1.0
C      1  0.5155010000000  0.5086070000000  0.5548440000000 1.0
C      1  0.5185290000000  0.5375750000000  0.5599420000000 1.0
C      1  0.4586850000000  0.5359950000000  0.4676280000000 1.0
C      1  0.5067600000000  0.4342800000000  0.4981600000000 1.0
C      1  0.5199590000000  0.4573490000000  0.5372440000000 1.0
C      1  0.5099050000000  0.5376550000000  0.4507670000000 1.0
C      1  0.4958650000000  0.5674190000000  0.4839770000000 1.0
C      1  0.5594330000000  0.5251980000000  0.4904310000000 1.0
C      1  0.5293590000000  0.4859500000000  0.5426720000000 1.0
END
