TITL C-883739-1268-307 51.8372546104431 125000 -18700.8848071657 0 0 127 (C1) n - 1
REM
REM in /home/nfs/bkarasulu/CARBON/AIRSS/Generating-Clusters/ReaxFF-fromJPCA2015/Units_Real/with-SteepDescent/Only-C1/SD-CG/Try1-3A/FIRE-CG
REM
REM
REM
REM
REM
REM ./C.cell (11c1c37f851c82e70ff6c80c92926a4b)
REM
REM compiler GCC version 9.2.1 20190827 (Red Hat 9.2.1-1)
REM options -cpp -mtune=generic -march=x86-64 -g -O0 -fpre-include=/usr/include/finclude/math-vector-fortran.h
REM seed -1664980401 1954431906 -1429600613 1010111289 -473278805 -1460067486 43781911 -627939531 -1615747457 -1314352700 1311835524 -1022830521 -1369519463 1217959015 1445603649 -418541311 1582828619 -261939474 -88236400 -1988856931 -1014286101 -1027667817 1217852697 -1636614090 237288221 -1148678722 -2041677592 845663259 707209707 1703985809 -994961421 -414376186 1375828200
REM
CELL 1.54180   50.00000   50.00000   50.00000   90.00000   90.00000   90.00000
LATT -1
SFAC C  
C      1  0.4894570000000  0.5261000000000  0.5272870000000 1.0
C      1  0.4944430000000  0.6003910000000  0.5077440000000 1.0
C      1  0.4178340000000  0.5365940000000  0.5296170000000 1.0
C      1  0.5359990000000  0.4983690000000  0.5770330000000 1.0
C      1  0.5150360000000  0.5926020000000  0.5278730000000 1.0
C      1  0.4942090000000  0.4718140000000  0.5428050000000 1.0
C      1  0.4276300000000  0.4434470000000  0.5126010000000 1.0
C      1  0.5359510000000  0.5176760000000  0.5092240000000 1.0
C      1  0.4035910000000  0.5127430000000  0.5390770000000 1.0
C      1  0.4588530000000  0.4503680000000  0.4151170000000 1.0
C      1  0.4940790000000  0.4623510000000  0.5156000000000 1.0
C      1  0.5597880000000  0.5450070000000  0.5723950000000 1.0
C      1  0.5441690000000  0.4614160000000  0.5433570000000 1.0
C      1  0.4860140000000  0.5825080000000  0.4589840000000 1.0
C      1  0.4782340000000  0.5263070000000  0.6024390000000 1.0
C      1  0.4896610000000  0.4531720000000  0.5668340000000 1.0
C      1  0.5047530000000  0.5009750000000  0.5370390000000 1.0
C      1  0.5394260000000  0.5603480000000  0.4207910000000 1.0
C      1  0.5327670000000  0.5383390000000  0.4661460000000 1.0
C      1  0.4643030000000  0.4203760000000  0.4853170000000 1.0
C      1  0.5102070000000  0.5337560000000  0.5087790000000 1.0
C      1  0.5152680000000  0.5405980000000  0.5627820000000 1.0
C      1  0.4765040000000  0.5246230000000  0.4081360000000 1.0
C      1  0.5889510000000  0.5019500000000  0.4295940000000 1.0
C      1  0.4610390000000  0.5074650000000  0.5218430000000 1.0
C      1  0.5546050000000  0.5745410000000  0.4729580000000 1.0
C      1  0.4375790000000  0.4595650000000  0.4353740000000 1.0
C      1  0.4208680000000  0.5282360000000  0.5016190000000 1.0
C      1  0.4899600000000  0.5511660000000  0.5505240000000 1.0
C      1  0.4474300000000  0.5778150000000  0.5236300000000 1.0
C      1  0.4930610000000  0.4701600000000  0.4866240000000 1.0
C      1  0.4342160000000  0.4483910000000  0.4620190000000 1.0
C      1  0.4565330000000  0.4639840000000  0.5872910000000 1.0
C      1  0.5546330000000  0.5273700000000  0.4832850000000 1.0
C      1  0.4596270000000  0.5502190000000  0.5606660000000 1.0
C      1  0.5650410000000  0.4278460000000  0.5128210000000 1.0
C      1  0.4596420000000  0.4815770000000  0.5064200000000 1.0
C      1  0.4733190000000  0.4803830000000  0.4688020000000 1.0
C      1  0.4562600000000  0.4281870000000  0.4629610000000 1.0
C      1  0.4051380000000  0.4809180000000  0.4959450000000 1.0
C      1  0.5973420000000  0.5026300000000  0.4603910000000 1.0
C      1  0.4692430000000  0.5491970000000  0.4222650000000 1.0
C      1  0.5622830000000  0.4742130000000  0.4597260000000 1.0
C      1  0.5631870000000  0.4348520000000  0.5741590000000 1.0
C      1  0.5812230000000  0.5306050000000  0.5571980000000 1.0
C      1  0.4818170000000  0.5427500000000  0.4701320000000 1.0
C      1  0.4606740000000  0.4989230000000  0.4077050000000 1.0
C      1  0.5525920000000  0.5375290000000  0.4075670000000 1.0
C      1  0.4361990000000  0.4551790000000  0.5671330000000 1.0
C      1  0.5147300000000  0.4794340000000  0.4484200000000 1.0
C      1  0.5449580000000  0.5591550000000  0.4494470000000 1.0
C      1  0.4475850000000  0.5186880000000  0.4973290000000 1.0
C      1  0.4574860000000  0.5340450000000  0.5847150000000 1.0
C      1  0.5646770000000  0.5547940000000  0.4925760000000 1.0
C      1  0.4439110000000  0.5432680000000  0.4370200000000 1.0
C      1  0.5891170000000  0.4582160000000  0.5503760000000 1.0
C      1  0.4509030000000  0.4943260000000  0.4815440000000 1.0
C      1  0.5875220000000  0.4518130000000  0.5797940000000 1.0
C      1  0.5195160000000  0.4780820000000  0.4776530000000 1.0
C      1  0.5018840000000  0.4127210000000  0.4995430000000 1.0
C      1  0.5367150000000  0.4715460000000  0.5184040000000 1.0
C      1  0.5039820000000  0.5320810000000  0.4045880000000 1.0
C      1  0.5199300000000  0.4181090000000  0.4814180000000 1.0
C      1  0.5118690000000  0.4304390000000  0.4519370000000 1.0
C      1  0.5397810000000  0.5858020000000  0.5142100000000 1.0
C      1  0.4032150000000  0.5090700000000  0.4865290000000 1.0
C      1  0.4852750000000  0.4424840000000  0.4226530000000 1.0
C      1  0.4515200000000  0.5735220000000  0.4970130000000 1.0
C      1  0.5981820000000  0.4707890000000  0.5065160000000 1.0
C      1  0.4169020000000  0.5053450000000  0.4366390000000 1.0
C      1  0.4796120000000  0.4294040000000  0.5522960000000 1.0
C      1  0.5036210000000  0.5925890000000  0.4804350000000 1.0
C      1  0.5600170000000  0.5648450000000  0.5195510000000 1.0
C      1  0.5209270000000  0.4941370000000  0.5136270000000 1.0
C      1  0.4218700000000  0.4475350000000  0.5432880000000 1.0
C      1  0.5627960000000  0.4521030000000  0.4792880000000 1.0
C      1  0.4739290000000  0.5905350000000  0.5269990000000 1.0
C      1  0.4762760000000  0.4879220000000  0.5870960000000 1.0
C      1  0.5328210000000  0.5894980000000  0.4861150000000 1.0
C      1  0.5104490000000  0.5583920000000  0.4164160000000 1.0
C      1  0.4001790000000  0.4876800000000  0.5242560000000 1.0
C      1  0.5834210000000  0.4458560000000  0.4987990000000 1.0
C      1  0.4091440000000  0.5437860000000  0.4613160000000 1.0
C      1  0.4702160000000  0.4735890000000  0.4038580000000 1.0
C      1  0.5509710000000  0.5162090000000  0.5336100000000 1.0
C      1  0.4353020000000  0.4862490000000  0.4237790000000 1.0
C      1  0.4384890000000  0.5545180000000  0.5418950000000 1.0
C      1  0.5086490000000  0.5454390000000  0.4828300000000 1.0
C      1  0.5222760000000  0.4534550000000  0.4366400000000 1.0
C      1  0.5658590000000  0.4837150000000  0.4185750000000 1.0
C      1  0.5174450000000  0.3909280000000  0.5527480000000 1.0
C      1  0.5035370000000  0.4106170000000  0.5629930000000 1.0
C      1  0.5516430000000  0.4633920000000  0.4346550000000 1.0
C      1  0.4765660000000  0.4127480000000  0.5055760000000 1.0
C      1  0.4577830000000  0.5689510000000  0.4707310000000 1.0
C      1  0.4574240000000  0.5056140000000  0.5732670000000 1.0
C      1  0.4195580000000  0.4564860000000  0.4871900000000 1.0
C      1  0.5326460000000  0.5390170000000  0.5855080000000 1.0
C      1  0.5416460000000  0.4203550000000  0.4993760000000 1.0
C      1  0.4851730000000  0.5192080000000  0.4591620000000 1.0
C      1  0.4888060000000  0.4939230000000  0.4474390000000 1.0
C      1  0.5925170000000  0.4821960000000  0.5337220000000 1.0
C      1  0.4938740000000  0.5787780000000  0.5427000000000 1.0
C      1  0.5635490000000  0.4402290000000  0.5439380000000 1.0
C      1  0.4960210000000  0.5050170000000  0.6042240000000 1.0
C      1  0.3983850000000  0.5173080000000  0.4583660000000 1.0
C      1  0.4530480000000  0.4554480000000  0.5168210000000 1.0
C      1  0.4887710000000  0.5694360000000  0.4330140000000 1.0
C      1  0.5686020000000  0.5026140000000  0.4659210000000 1.0
C      1  0.4189450000000  0.4886330000000  0.5481770000000 1.0
C      1  0.4390490000000  0.5173620000000  0.4502390000000 1.0
C      1  0.5377380000000  0.4458030000000  0.5851100000000 1.0
C      1  0.4650210000000  0.4302420000000  0.5276310000000 1.0
C      1  0.5113250000000  0.4360000000000  0.5790930000000 1.0
C      1  0.5786860000000  0.5263290000000  0.4180240000000 1.0
C      1  0.6021590000000  0.4868210000000  0.4830470000000 1.0
C      1  0.4300660000000  0.5614940000000  0.4553710000000 1.0
C      1  0.5434860000000  0.4962650000000  0.4095520000000 1.0
C      1  0.5242070000000  0.5133870000000  0.5984240000000 1.0
C      1  0.5291780000000  0.5148300000000  0.5532550000000 1.0
C      1  0.4462180000000  0.4996370000000  0.5471420000000 1.0
C      1  0.5386900000000  0.4710280000000  0.5698740000000 1.0
C      1  0.4839540000000  0.4277560000000  0.4458680000000 1.0
C      1  0.5689670000000  0.5559570000000  0.5470310000000 1.0
C      1  0.5306260000000  0.5184590000000  0.3995750000000 1.0
C      1  0.5780000000000  0.5077640000000  0.5387710000000 1.0
C      1  0.5395690000000  0.4632530000000  0.4918370000000 1.0
END
