TITL C-883734-4173-483 0.105857216937266 125000 -23095.303086444 0 0 155 (C1) n - 1
REM
REM in /home/nfs/bkarasulu/CARBON/AIRSS/Generating-Clusters/ReaxFF-fromJPCA2015/Units_Real/with-SteepDescent/Only-C1/SD-CG/Try1-3A/FIRE-CG
REM
REM
REM
REM
REM
REM ./C.cell (11c1c37f851c82e70ff6c80c92926a4b)
REM
REM compiler GCC version 9.2.1 20190827 (Red Hat 9.2.1-1)
REM options -cpp -mtune=generic -march=x86-64 -g -O0 -fpre-include=/usr/include/finclude/math-vector-fortran.h
REM seed -1043018665 -509277580 -1839434902 301298096 -494534699 613330681 -984528396 82060299 668124368 481401038 1759131575 446101699 -634166383 632728614 2014356668 828247568 56718391 -2075682562 1356470333 -905936371 -1260033732 244617356 -1868104539 -824345108 -749664861 -1101528730 1001118102 -1650569450 2076704961 -1541279858 -518328088 2145045641 1850669369
REM
CELL 1.54180   50.00000   50.00000   50.00000   90.00000   90.00000   90.00000
LATT -1
SFAC C  
C      1  0.4810310000000  0.4582740000000  0.4881970000000 1.0
C      1  0.3927600000000  0.5071140000000  0.4825470000000 1.0
C      1  0.4305130000000  0.3995580000000  0.4851070000000 1.0
C      1  0.5525200000000  0.4074710000000  0.4520540000000 1.0
C      1  0.4013770000000  0.5367580000000  0.5427270000000 1.0
C      1  0.4592000000000  0.5255150000000  0.4185460000000 1.0
C      1  0.5192340000000  0.6057640000000  0.4870830000000 1.0
C      1  0.5924290000000  0.5105380000000  0.5009330000000 1.0
C      1  0.5986530000000  0.4609310000000  0.4832020000000 1.0
C      1  0.5109370000000  0.5386140000000  0.5524810000000 1.0
C      1  0.4044210000000  0.4898860000000  0.4620790000000 1.0
C      1  0.5728460000000  0.5666200000000  0.4537210000000 1.0
C      1  0.4294280000000  0.4968520000000  0.5056420000000 1.0
C      1  0.4677800000000  0.5341500000000  0.4599630000000 1.0
C      1  0.4971980000000  0.4008310000000  0.5257610000000 1.0
C      1  0.4258990000000  0.4460650000000  0.4600290000000 1.0
C      1  0.4464550000000  0.5437960000000  0.5064530000000 1.0
C      1  0.4505600000000  0.4215050000000  0.5335080000000 1.0
C      1  0.5348460000000  0.5963600000000  0.4634750000000 1.0
C      1  0.5174370000000  0.4362590000000  0.4407360000000 1.0
C      1  0.5738590000000  0.5173580000000  0.4536320000000 1.0
C      1  0.4377930000000  0.5190300000000  0.4909130000000 1.0
C      1  0.4784290000000  0.5548860000000  0.5880280000000 1.0
C      1  0.4866240000000  0.4258990000000  0.5674020000000 1.0
C      1  0.5492520000000  0.5118820000000  0.4680120000000 1.0
C      1  0.4558710000000  0.4312920000000  0.4352130000000 1.0
C      1  0.5868970000000  0.5428700000000  0.4632150000000 1.0
C      1  0.5720960000000  0.5107090000000  0.5515630000000 1.0
C      1  0.5492880000000  0.5702090000000  0.5441270000000 1.0
C      1  0.4821590000000  0.5417690000000  0.4350360000000 1.0
C      1  0.4974870000000  0.4808040000000  0.4378020000000 1.0
C      1  0.4857830000000  0.4708560000000  0.5688880000000 1.0
C      1  0.5120860000000  0.4784070000000  0.3944460000000 1.0
C      1  0.5231090000000  0.4537870000000  0.3995220000000 1.0
C      1  0.5235030000000  0.5500560000000  0.4556060000000 1.0
C      1  0.5445980000000  0.4311190000000  0.4929970000000 1.0
C      1  0.5523120000000  0.5228490000000  0.5691600000000 1.0
C      1  0.4976480000000  0.4013770000000  0.4971520000000 1.0
C      1  0.5661600000000  0.5066360000000  0.5184230000000 1.0
C      1  0.5393960000000  0.4544900000000  0.4422310000000 1.0
C      1  0.5416970000000  0.5190930000000  0.5154990000000 1.0
C      1  0.5602290000000  0.5903830000000  0.5005480000000 1.0
C      1  0.4786170000000  0.4166930000000  0.4305250000000 1.0
C      1  0.4539310000000  0.5805430000000  0.4720230000000 1.0
C      1  0.4213760000000  0.5422950000000  0.5611250000000 1.0
C      1  0.4856630000000  0.5816430000000  0.5744340000000 1.0
C      1  0.4938800000000  0.5367980000000  0.5067650000000 1.0
C      1  0.4917140000000  0.3995640000000  0.4496080000000 1.0
C      1  0.4556520000000  0.5346980000000  0.5826450000000 1.0
C      1  0.4114060000000  0.4515070000000  0.5023170000000 1.0
C      1  0.6060710000000  0.4956430000000  0.5214190000000 1.0
C      1  0.6011270000000  0.5094640000000  0.5476650000000 1.0
C      1  0.5663260000000  0.4797420000000  0.5077220000000 1.0
C      1  0.5064200000000  0.4501500000000  0.4766160000000 1.0
C      1  0.4827000000000  0.4627080000000  0.4216920000000 1.0
C      1  0.4650390000000  0.5062140000000  0.5360790000000 1.0
C      1  0.5362220000000  0.6019780000000  0.5112080000000 1.0
C      1  0.4921480000000  0.4722680000000  0.5977110000000 1.0
C      1  0.5167070000000  0.4222570000000  0.4833880000000 1.0
C      1  0.5351300000000  0.5061040000000  0.5865950000000 1.0
C      1  0.4502720000000  0.4868980000000  0.5224590000000 1.0
C      1  0.5349870000000  0.4743520000000  0.5332690000000 1.0
C      1  0.5217530000000  0.4713710000000  0.4888250000000 1.0
C      1  0.5096090000000  0.4405410000000  0.5276310000000 1.0
C      1  0.5127550000000  0.5557420000000  0.4987760000000 1.0
C      1  0.5428380000000  0.4631700000000  0.5064730000000 1.0
C      1  0.4751660000000  0.4677300000000  0.4492570000000 1.0
C      1  0.5198370000000  0.4113490000000  0.4534220000000 1.0
C      1  0.5538040000000  0.5635380000000  0.4313300000000 1.0
C      1  0.4008440000000  0.4973890000000  0.5102200000000 1.0
C      1  0.4901080000000  0.4585990000000  0.5178080000000 1.0
C      1  0.4839580000000  0.5851510000000  0.4639820000000 1.0
C      1  0.5928340000000  0.5532230000000  0.5155680000000 1.0
C      1  0.4767890000000  0.4112760000000  0.5440390000000 1.0
C      1  0.4537990000000  0.4360520000000  0.5083510000000 1.0
C      1  0.6012650000000  0.5353160000000  0.5356160000000 1.0
C      1  0.5794620000000  0.4914240000000  0.4401740000000 1.0
C      1  0.5373830000000  0.4269350000000  0.5587940000000 1.0
C      1  0.4166620000000  0.4855050000000  0.5481130000000 1.0
C      1  0.5515250000000  0.4114620000000  0.5132620000000 1.0
C      1  0.5748100000000  0.4215920000000  0.5239820000000 1.0
C      1  0.5967580000000  0.5376460000000  0.4904180000000 1.0
C      1  0.5630580000000  0.4434330000000  0.5559180000000 1.0
C      1  0.4816010000000  0.4994320000000  0.5990300000000 1.0
C      1  0.4642860000000  0.5949790000000  0.5595820000000 1.0
C      1  0.4029910000000  0.5580310000000  0.5204610000000 1.0
C      1  0.5234830000000  0.4789350000000  0.4456210000000 1.0
C      1  0.4664190000000  0.5080940000000  0.4783030000000 1.0
C      1  0.4425170000000  0.4825270000000  0.4248400000000 1.0
C      1  0.4902580000000  0.6055930000000  0.4850620000000 1.0
C      1  0.5381900000000  0.4777520000000  0.5834090000000 1.0
C      1  0.4296060000000  0.5687860000000  0.5120480000000 1.0
C      1  0.3993790000000  0.5457230000000  0.4956040000000 1.0
C      1  0.4453430000000  0.5472450000000  0.5593750000000 1.0
C      1  0.4386570000000  0.4524540000000  0.4350190000000 1.0
C      1  0.4676100000000  0.4792110000000  0.4735680000000 1.0
C      1  0.4677030000000  0.6051120000000  0.5043340000000 1.0
C      1  0.5147210000000  0.4341000000000  0.5749640000000 1.0
C      1  0.5612160000000  0.5879360000000  0.4711180000000 1.0
C      1  0.4605050000000  0.4598510000000  0.5236100000000 1.0
C      1  0.4150610000000  0.4586720000000  0.5303270000000 1.0
C      1  0.5174570000000  0.4584230000000  0.5921180000000 1.0
C      1  0.5158210000000  0.5170470000000  0.4090290000000 1.0
C      1  0.5088790000000  0.5144230000000  0.5993100000000 1.0
C      1  0.4411910000000  0.4570780000000  0.5685770000000 1.0
C      1  0.5329460000000  0.5939640000000  0.5403970000000 1.0
C      1  0.5006010000000  0.4386440000000  0.4175720000000 1.0
C      1  0.5607520000000  0.4881950000000  0.4179430000000 1.0
C      1  0.5376210000000  0.5466590000000  0.5575500000000 1.0
C      1  0.5512640000000  0.5386840000000  0.4192820000000 1.0
C      1  0.5642950000000  0.5660980000000  0.5178120000000 1.0
C      1  0.5931130000000  0.4707630000000  0.4568390000000 1.0
C      1  0.4000110000000  0.5074850000000  0.5378370000000 1.0
C      1  0.5140480000000  0.4987230000000  0.4850080000000 1.0
C      1  0.4809310000000  0.3915860000000  0.4753090000000 1.0
C      1  0.4685860000000  0.4477210000000  0.5724710000000 1.0
C      1  0.4617440000000  0.5352280000000  0.5326830000000 1.0
C      1  0.4895260000000  0.5479410000000  0.5335530000000 1.0
C      1  0.5046550000000  0.5638650000000  0.4733770000000 1.0
C      1  0.4369740000000  0.4864070000000  0.5699360000000 1.0
C      1  0.4512180000000  0.3924500000000  0.4803810000000 1.0
C      1  0.5257770000000  0.5016850000000  0.5308840000000 1.0
C      1  0.4115380000000  0.5289680000000  0.4766570000000 1.0
C      1  0.4841670000000  0.4955750000000  0.5541550000000 1.0
C      1  0.4971070000000  0.5376850000000  0.5941790000000 1.0
C      1  0.5932180000000  0.4677500000000  0.5127580000000 1.0
C      1  0.5502900000000  0.4697340000000  0.5576020000000 1.0
C      1  0.5593300000000  0.4334170000000  0.4636320000000 1.0
C      1  0.5233920000000  0.5038310000000  0.4576700000000 1.0
C      1  0.4465730000000  0.5737460000000  0.5620980000000 1.0
C      1  0.4646290000000  0.4977670000000  0.4115190000000 1.0
C      1  0.4942910000000  0.4990800000000  0.3992090000000 1.0
C      1  0.5271080000000  0.5780980000000  0.4407930000000 1.0
C      1  0.5452920000000  0.5394470000000  0.4738220000000 1.0
C      1  0.5866740000000  0.4449070000000  0.4648600000000 1.0
C      1  0.5844350000000  0.4444480000000  0.5347630000000 1.0
C      1  0.4565770000000  0.5525490000000  0.4772840000000 1.0
C      1  0.5099040000000  0.5830300000000  0.5570200000000 1.0
C      1  0.5472140000000  0.4625480000000  0.4131390000000 1.0
C      1  0.5403620000000  0.5450140000000  0.5028340000000 1.0
C      1  0.4756160000000  0.6003780000000  0.5321160000000 1.0
C      1  0.4952640000000  0.5744030000000  0.4345510000000 1.0
C      1  0.4310030000000  0.5249350000000  0.4281050000000 1.0
C      1  0.5087920000000  0.5103930000000  0.5522300000000 1.0
C      1  0.4564630000000  0.5058760000000  0.5841730000000 1.0
C      1  0.4312070000000  0.4406770000000  0.5459430000000 1.0
C      1  0.5460510000000  0.5135370000000  0.4089370000000 1.0
C      1  0.4954740000000  0.5793010000000  0.5320010000000 1.0
C      1  0.4301920000000  0.4311740000000  0.4897650000000 1.0
C      1  0.4086120000000  0.4634730000000  0.4744850000000 1.0
C      1  0.4222030000000  0.4975670000000  0.4381920000000 1.0
C      1  0.4425410000000  0.5904670000000  0.4967680000000 1.0
C      1  0.5265340000000  0.4152210000000  0.5329100000000 1.0
C      1  0.4901290000000  0.5114050000000  0.4947250000000 1.0
C      1  0.5086610000000  0.5275170000000  0.4360830000000 1.0
END
