TITL C-884133-6611-5 51925.3588201125 125000 -8356.20992466136 0 0 57 (C1) n - 1
REM
REM in /home/nfs/bkarasulu/CARBON/AIRSS/Generating-Clusters/ReaxFF-fromJPCA2015/Units_Real/with-SteepDescent/Only-C1/SD-CG/Try1-3A/FIRE-CG
REM
REM
REM
REM
REM
REM ./C.cell (11c1c37f851c82e70ff6c80c92926a4b)
REM
REM compiler GCC version 9.2.1 20190827 (Red Hat 9.2.1-1)
REM options -cpp -mtune=generic -march=x86-64 -g -O0 -fpre-include=/usr/include/finclude/math-vector-fortran.h
REM seed -1278410240 -1069997301 1490771180 -1852119724 1688254060 542827654 -119476923 1042345831 422936042 1344060034 -1131166575 488594202 -40128726 820225802 1277994891 2020307205 1694831608 1282143714 -1165896584 2053402299 529500559 -1450787397 -852138736 701727547 99891870 2031312128 -662919216 -883036432 -370153776 -2140564684 -535162514 -947981216 -1605379530
REM
CELL 1.54180   50.00000   50.00000   50.00000   90.00000   90.00000   90.00000
LATT -1
SFAC C  
C      1  0.4540330000000  0.4791310000000  0.4543780000000 1.0
C      1  0.5482030000000  0.5025980000000  0.4599820000000 1.0
C      1  0.4279080000000  0.5239470000000  0.4945090000000 1.0
C      1  0.4971270000000  0.4950970000000  0.5134900000000 1.0
C      1  0.4747100000000  0.4432010000000  0.5721770000000 1.0
C      1  0.5110910000000  0.4534720000000  0.5591070000000 1.0
C      1  0.5198120000000  0.4955680000000  0.4299980000000 1.0
C      1  0.4715510000000  0.4877220000000  0.4997650000000 1.0
C      1  0.5083780000000  0.5033780000000  0.5758020000000 1.0
C      1  0.5184110000000  0.5477740000000  0.5289640000000 1.0
C      1  0.5451580000000  0.4850890000000  0.5530220000000 1.0
C      1  0.5235670000000  0.5487560000000  0.4492590000000 1.0
C      1  0.5435350000000  0.4564000000000  0.4504530000000 1.0
C      1  0.5365700000000  0.4362710000000  0.4628500000000 1.0
C      1  0.5225200000000  0.4779700000000  0.5698590000000 1.0
C      1  0.5383430000000  0.5267970000000  0.4925710000000 1.0
C      1  0.5263860000000  0.5255310000000  0.5709360000000 1.0
C      1  0.4206670000000  0.4973540000000  0.4837000000000 1.0
C      1  0.4821350000000  0.4553060000000  0.5467720000000 1.0
C      1  0.4559130000000  0.4644610000000  0.4987910000000 1.0
C      1  0.5115400000000  0.5360900000000  0.4897970000000 1.0
C      1  0.4834690000000  0.5101840000000  0.5613390000000 1.0
C      1  0.4997350000000  0.5278650000000  0.5139710000000 1.0
C      1  0.5250980000000  0.4842690000000  0.5069160000000 1.0
C      1  0.4461610000000  0.5058700000000  0.4454580000000 1.0
C      1  0.5513410000000  0.5139410000000  0.5592060000000 1.0
C      1  0.5112640000000  0.4279580000000  0.5208010000000 1.0
C      1  0.4270760000000  0.5179530000000  0.4652960000000 1.0
C      1  0.4789690000000  0.5464130000000  0.4242040000000 1.0
C      1  0.5309680000000  0.5202290000000  0.4442150000000 1.0
C      1  0.4821480000000  0.5370720000000  0.5507270000000 1.0
C      1  0.5091690000000  0.5455140000000  0.5563370000000 1.0
C      1  0.4946420000000  0.5577080000000  0.4488400000000 1.0
C      1  0.5233680000000  0.4281100000000  0.4987270000000 1.0
C      1  0.5436530000000  0.4981720000000  0.4891850000000 1.0
C      1  0.5277460000000  0.4442960000000  0.5365170000000 1.0
C      1  0.5466990000000  0.5537700000000  0.5224550000000 1.0
C      1  0.4780800000000  0.4892540000000  0.5410550000000 1.0
C      1  0.4623810000000  0.5248010000000  0.4333610000000 1.0
C      1  0.4389440000000  0.4741310000000  0.4786230000000 1.0
C      1  0.4784800000000  0.5664280000000  0.4714150000000 1.0
C      1  0.4752950000000  0.5642660000000  0.5006650000000 1.0
C      1  0.4725470000000  0.4420840000000  0.4961120000000 1.0
C      1  0.5544770000000  0.5522280000000  0.4922150000000 1.0
C      1  0.4698960000000  0.5430180000000  0.5222420000000 1.0
C      1  0.5422820000000  0.5589070000000  0.4682270000000 1.0
C      1  0.4554510000000  0.4968610000000  0.5229050000000 1.0
C      1  0.4998900000000  0.4802400000000  0.4404310000000 1.0
C      1  0.5117200000000  0.4276870000000  0.4736390000000 1.0
C      1  0.4469570000000  0.5240960000000  0.5164000000000 1.0
C      1  0.4795920000000  0.4643210000000  0.4514440000000 1.0
C      1  0.5396090000000  0.4705800000000  0.5282850000000 1.0
C      1  0.4852630000000  0.4369620000000  0.5213560000000 1.0
C      1  0.4861220000000  0.4424280000000  0.4709950000000 1.0
C      1  0.5019150000000  0.5639390000000  0.4893880000000 1.0
C      1  0.5464870000000  0.4812200000000  0.4395330000000 1.0
C      1  0.5555500000000  0.5353150000000  0.5413320000000 1.0
END
