TITL C-883727-9645-476 1.57722869053151 125000 -18240.4853604398 0 0 120 (C1) n - 1
REM
REM in /home/nfs/bkarasulu/CARBON/AIRSS/Generating-Clusters/ReaxFF-fromJPCA2015/Units_Real/with-SteepDescent/Only-C1/SD-CG/Try1-3A/FIRE-CG
REM
REM
REM
REM
REM
REM ./C.cell (11c1c37f851c82e70ff6c80c92926a4b)
REM
REM compiler GCC version 9.2.1 20190827 (Red Hat 9.2.1-1)
REM options -cpp -mtune=generic -march=x86-64 -g -O0 -fpre-include=/usr/include/finclude/math-vector-fortran.h
REM seed -391024857 1360017336 1910921190 -2008772270 341542084 -1502994094 72661764 -1639766601 -1575927499 611143115 1551925111 2032921973 2039790030 -2008370516 2023221912 -1261110228 -15067620 -1369779656 1363019665 -1176148682 1152714651 -1768333636 -442239171 863489031 616219884 -522579823 -1157179866 1562514734 -758790444 1158151889 144277501 -1882210352 -838827140
REM
CELL 1.54180   50.00000   50.00000   50.00000   90.00000   90.00000   90.00000
LATT -1
SFAC C  
C      1  0.4976470000000  0.4355600000000  0.5711100000000 1.0
C      1  0.4051990000000  0.5554420000000  0.5033070000000 1.0
C      1  0.5597970000000  0.5747690000000  0.5126950000000 1.0
C      1  0.5206010000000  0.5241830000000  0.5987570000000 1.0
C      1  0.4950250000000  0.5403670000000  0.4816280000000 1.0
C      1  0.5541340000000  0.5511370000000  0.5748900000000 1.0
C      1  0.5744680000000  0.5193130000000  0.5401060000000 1.0
C      1  0.5219860000000  0.4922870000000  0.4930030000000 1.0
C      1  0.4335400000000  0.5884420000000  0.4648570000000 1.0
C      1  0.4580760000000  0.5792820000000  0.4538090000000 1.0
C      1  0.5278930000000  0.4009210000000  0.4974100000000 1.0
C      1  0.4400030000000  0.4269490000000  0.4794230000000 1.0
C      1  0.4276690000000  0.4939700000000  0.4788750000000 1.0
C      1  0.5488410000000  0.5197690000000  0.4525680000000 1.0
C      1  0.5046980000000  0.5814940000000  0.4837680000000 1.0
C      1  0.4400420000000  0.4942290000000  0.4336360000000 1.0
C      1  0.5255930000000  0.5621590000000  0.4435990000000 1.0
C      1  0.4752400000000  0.5238050000000  0.5218760000000 1.0
C      1  0.5278470000000  0.5424800000000  0.5780600000000 1.0
C      1  0.4181560000000  0.5574700000000  0.5280230000000 1.0
C      1  0.4297120000000  0.5397030000000  0.4547430000000 1.0
C      1  0.5283690000000  0.4541040000000  0.5269520000000 1.0
C      1  0.4733740000000  0.4036420000000  0.4854200000000 1.0
C      1  0.5573350000000  0.4948560000000  0.4207440000000 1.0
C      1  0.5754850000000  0.4636910000000  0.5339590000000 1.0
C      1  0.5352950000000  0.4871990000000  0.4052020000000 1.0
C      1  0.4718610000000  0.4314210000000  0.5340780000000 1.0
C      1  0.5587160000000  0.5539290000000  0.4772540000000 1.0
C      1  0.4508640000000  0.5121970000000  0.5767030000000 1.0
C      1  0.5103320000000  0.4683560000000  0.5921470000000 1.0
C      1  0.4805210000000  0.4994430000000  0.4605500000000 1.0
C      1  0.5391220000000  0.4305970000000  0.5385040000000 1.0
C      1  0.5618850000000  0.4504250000000  0.5536380000000 1.0
C      1  0.4659190000000  0.5332320000000  0.4246880000000 1.0
C      1  0.5106140000000  0.4588670000000  0.5679560000000 1.0
C      1  0.4970410000000  0.4673910000000  0.4089410000000 1.0
C      1  0.4713070000000  0.5305510000000  0.5875600000000 1.0
C      1  0.5602570000000  0.4614600000000  0.4612010000000 1.0
C      1  0.5109870000000  0.5074000000000  0.3992700000000 1.0
C      1  0.4508440000000  0.5549610000000  0.4957150000000 1.0
C      1  0.4956760000000  0.4558120000000  0.4705730000000 1.0
C      1  0.4870590000000  0.4866430000000  0.5944110000000 1.0
C      1  0.4612850000000  0.4977420000000  0.4832990000000 1.0
C      1  0.5231140000000  0.5884140000000  0.4621680000000 1.0
C      1  0.4363700000000  0.5495020000000  0.5478320000000 1.0
C      1  0.5802510000000  0.4964120000000  0.4950930000000 1.0
C      1  0.5257940000000  0.4639780000000  0.4193730000000 1.0
C      1  0.5453450000000  0.6033840000000  0.4719070000000 1.0
C      1  0.5029500000000  0.5324740000000  0.5259720000000 1.0
C      1  0.5360990000000  0.5407950000000  0.4899690000000 1.0
C      1  0.4857540000000  0.4944750000000  0.4054790000000 1.0
C      1  0.4221180000000  0.4452700000000  0.4908660000000 1.0
C      1  0.4264350000000  0.4645580000000  0.4692080000000 1.0
C      1  0.4326520000000  0.4684930000000  0.5413560000000 1.0
C      1  0.4159360000000  0.5026250000000  0.5059330000000 1.0
C      1  0.5722580000000  0.5031160000000  0.4427550000000 1.0
C      1  0.5088240000000  0.4417140000000  0.4910950000000 1.0
C      1  0.5403030000000  0.4503480000000  0.4420470000000 1.0
C      1  0.5798810000000  0.4701910000000  0.5068010000000 1.0
C      1  0.4499830000000  0.5528230000000  0.4397810000000 1.0
C      1  0.4629830000000  0.4275140000000  0.4828530000000 1.0
C      1  0.5026600000000  0.5438690000000  0.4553050000000 1.0
C      1  0.5595060000000  0.5688620000000  0.5536190000000 1.0
C      1  0.5594670000000  0.4737080000000  0.5707390000000 1.0
C      1  0.4348650000000  0.5206850000000  0.5545020000000 1.0
C      1  0.4771760000000  0.5857890000000  0.4780130000000 1.0
C      1  0.5534970000000  0.5928070000000  0.4907070000000 1.0
C      1  0.4615350000000  0.4848940000000  0.5806360000000 1.0
C      1  0.4857120000000  0.4421190000000  0.4460840000000 1.0
C      1  0.4517870000000  0.4632810000000  0.5633810000000 1.0
C      1  0.5104160000000  0.5733090000000  0.5391670000000 1.0
C      1  0.5371800000000  0.5142480000000  0.4790730000000 1.0
C      1  0.4799070000000  0.5522950000000  0.5704330000000 1.0
C      1  0.5028790000000  0.4173080000000  0.4428120000000 1.0
C      1  0.5747920000000  0.4859470000000  0.4672560000000 1.0
C      1  0.4619410000000  0.4489290000000  0.5102080000000 1.0
C      1  0.5310990000000  0.4242290000000  0.4505680000000 1.0
C      1  0.4317280000000  0.4982750000000  0.5334600000000 1.0
C      1  0.5614940000000  0.4223370000000  0.4921540000000 1.0
C      1  0.5733530000000  0.5434820000000  0.5560070000000 1.0
C      1  0.4694180000000  0.4401370000000  0.5608640000000 1.0
C      1  0.5407820000000  0.5030800000000  0.6075960000000 1.0
C      1  0.5392620000000  0.4773530000000  0.5936800000000 1.0
C      1  0.4946910000000  0.4144960000000  0.5310140000000 1.0
C      1  0.5129380000000  0.4200000000000  0.5517160000000 1.0
C      1  0.5153800000000  0.4723470000000  0.5430530000000 1.0
C      1  0.5154030000000  0.5343660000000  0.4035560000000 1.0
C      1  0.4392750000000  0.4664280000000  0.4430120000000 1.0
C      1  0.4598470000000  0.4474230000000  0.4323050000000 1.0
C      1  0.5473640000000  0.4126410000000  0.5148260000000 1.0
C      1  0.5302760000000  0.4596410000000  0.5004740000000 1.0
C      1  0.4926190000000  0.5145390000000  0.5992340000000 1.0
C      1  0.4734620000000  0.4480960000000  0.4055750000000 1.0
C      1  0.4270670000000  0.5111510000000  0.4535200000000 1.0
C      1  0.5390370000000  0.5766450000000  0.5339350000000 1.0
C      1  0.5776570000000  0.5218290000000  0.5110340000000 1.0
C      1  0.4634610000000  0.4978510000000  0.5269930000000 1.0
C      1  0.4869290000000  0.5228010000000  0.4427330000000 1.0
C      1  0.5074110000000  0.5494650000000  0.5572290000000 1.0
C      1  0.4681480000000  0.5301490000000  0.4931020000000 1.0
C      1  0.5425070000000  0.4102060000000  0.4738270000000 1.0
C      1  0.5580840000000  0.4976140000000  0.5523820000000 1.0
C      1  0.5744320000000  0.5497270000000  0.5014560000000 1.0
C      1  0.5166910000000  0.5069510000000  0.5209910000000 1.0
C      1  0.4264460000000  0.5595800000000  0.4791400000000 1.0
C      1  0.5297560000000  0.4983720000000  0.5451050000000 1.0
C      1  0.4684610000000  0.4793910000000  0.5057160000000 1.0
C      1  0.5516400000000  0.5487620000000  0.4497230000000 1.0
C      1  0.5199530000000  0.5603270000000  0.4108550000000 1.0
C      1  0.4330430000000  0.4509150000000  0.5183840000000 1.0
C      1  0.5119390000000  0.5540390000000  0.5006080000000 1.0
C      1  0.5022840000000  0.4841960000000  0.4713550000000 1.0
C      1  0.5607410000000  0.4510370000000  0.4892460000000 1.0
C      1  0.4598630000000  0.5063310000000  0.4147950000000 1.0
C      1  0.4050730000000  0.5275200000000  0.5044670000000 1.0
C      1  0.5020500000000  0.4131660000000  0.5009170000000 1.0
C      1  0.4820440000000  0.5762630000000  0.5312190000000 1.0
C      1  0.4638000000000  0.5643140000000  0.5505880000000 1.0
C      1  0.4847760000000  0.4034110000000  0.4596540000000 1.0
C      1  0.4676320000000  0.5773310000000  0.5046030000000 1.0
END
