TITL C-883727-9645-335 31.9428788257356 125000 -16214.6573160488 0 0 107 (C1) n - 1
REM
REM in /home/nfs/bkarasulu/CARBON/AIRSS/Generating-Clusters/ReaxFF-fromJPCA2015/Units_Real/with-SteepDescent/Only-C1/SD-CG/Try1-3A/FIRE-CG
REM
REM
REM
REM
REM
REM ./C.cell (11c1c37f851c82e70ff6c80c92926a4b)
REM
REM compiler GCC version 9.2.1 20190827 (Red Hat 9.2.1-1)
REM options -cpp -mtune=generic -march=x86-64 -g -O0 -fpre-include=/usr/include/finclude/math-vector-fortran.h
REM seed 1511761643 669935944 -498966890 699903995 46716662 777548859 -554529194 1304650978 -145862143 284096142 1933255164 -499167540 -1000115957 -365820399 -1380036077 1715423398 -566233353 1618659282 -1603160370 1154086334 1980328104 1754243841 678341399 2146434592 1630510896 718106362 -1651683337 -1592661023 1381323982 954263796 574017922 366509221 496209368
REM
CELL 1.54180   50.00000   50.00000   50.00000   90.00000   90.00000   90.00000
LATT -1
SFAC C  
C      1  0.5359760000000  0.5604430000000  0.4387090000000 1.0
C      1  0.4348080000000  0.5411500000000  0.5678720000000 1.0
C      1  0.5674420000000  0.5031350000000  0.4888350000000 1.0
C      1  0.4431460000000  0.5737200000000  0.4707720000000 1.0
C      1  0.4891400000000  0.4635150000000  0.5236370000000 1.0
C      1  0.4635860000000  0.5714840000000  0.5131740000000 1.0
C      1  0.4682650000000  0.5206490000000  0.4899350000000 1.0
C      1  0.4491280000000  0.4642750000000  0.5602780000000 1.0
C      1  0.4680930000000  0.5787100000000  0.4609990000000 1.0
C      1  0.5076710000000  0.5766130000000  0.4787190000000 1.0
C      1  0.5393680000000  0.5689390000000  0.5365370000000 1.0
C      1  0.5387340000000  0.4426620000000  0.5564140000000 1.0
C      1  0.5612910000000  0.4340570000000  0.4910030000000 1.0
C      1  0.4086140000000  0.5195560000000  0.5003850000000 1.0
C      1  0.4939930000000  0.5113360000000  0.5548680000000 1.0
C      1  0.4819010000000  0.5247970000000  0.5143900000000 1.0
C      1  0.4518130000000  0.5217740000000  0.4417590000000 1.0
C      1  0.5429360000000  0.4518050000000  0.4249180000000 1.0
C      1  0.5656850000000  0.4992410000000  0.4434150000000 1.0
C      1  0.5174830000000  0.4421610000000  0.4235650000000 1.0
C      1  0.5697460000000  0.5176320000000  0.4657260000000 1.0
C      1  0.4541330000000  0.5446940000000  0.5463070000000 1.0
C      1  0.5084910000000  0.5693080000000  0.4500030000000 1.0
C      1  0.4593760000000  0.4728200000000  0.5872700000000 1.0
C      1  0.4127960000000  0.5305060000000  0.5501680000000 1.0
C      1  0.5794200000000  0.4742230000000  0.4527700000000 1.0
C      1  0.4360410000000  0.4536890000000  0.5198810000000 1.0
C      1  0.4355750000000  0.5611920000000  0.5142710000000 1.0
C      1  0.4973790000000  0.4181260000000  0.4976920000000 1.0
C      1  0.4962300000000  0.4750650000000  0.5659170000000 1.0
C      1  0.5689250000000  0.5442410000000  0.4756830000000 1.0
C      1  0.5169510000000  0.4776710000000  0.5302160000000 1.0
C      1  0.5903540000000  0.5033470000000  0.5211620000000 1.0
C      1  0.5452210000000  0.4417740000000  0.4653840000000 1.0
C      1  0.4833540000000  0.5620600000000  0.4392730000000 1.0
C      1  0.4961330000000  0.5179220000000  0.4161570000000 1.0
C      1  0.4877980000000  0.4777040000000  0.5931470000000 1.0
C      1  0.4071550000000  0.4896320000000  0.4988040000000 1.0
C      1  0.4229400000000  0.5633910000000  0.4868000000000 1.0
C      1  0.4373000000000  0.4446690000000  0.4518570000000 1.0
C      1  0.5384270000000  0.5388500000000  0.4202850000000 1.0
C      1  0.5516570000000  0.5643880000000  0.4641270000000 1.0
C      1  0.5209920000000  0.4653820000000  0.5555830000000 1.0
C      1  0.5711100000000  0.5248030000000  0.5253570000000 1.0
C      1  0.4680320000000  0.4989930000000  0.4384130000000 1.0
C      1  0.4898680000000  0.4939370000000  0.4567390000000 1.0
C      1  0.5649150000000  0.4518990000000  0.4415920000000 1.0
C      1  0.5685960000000  0.5458080000000  0.5053220000000 1.0
C      1  0.5913250000000  0.4819300000000  0.5397070000000 1.0
C      1  0.4721160000000  0.4217420000000  0.4574800000000 1.0
C      1  0.5500870000000  0.5507190000000  0.5575610000000 1.0
C      1  0.5544600000000  0.5011730000000  0.5702200000000 1.0
C      1  0.4704440000000  0.5221110000000  0.5397930000000 1.0
C      1  0.5365020000000  0.5762390000000  0.4857930000000 1.0
C      1  0.4531840000000  0.4987680000000  0.5938540000000 1.0
C      1  0.4171930000000  0.5382840000000  0.5211190000000 1.0
C      1  0.4518990000000  0.4377940000000  0.5032250000000 1.0
C      1  0.4134180000000  0.4792350000000  0.4746270000000 1.0
C      1  0.5208320000000  0.4284900000000  0.4510520000000 1.0
C      1  0.4486150000000  0.4294740000000  0.4742170000000 1.0
C      1  0.4951940000000  0.5669060000000  0.5533640000000 1.0
C      1  0.4687980000000  0.5684880000000  0.5414280000000 1.0
C      1  0.5189220000000  0.5115030000000  0.5365490000000 1.0
C      1  0.4801850000000  0.5785780000000  0.4892330000000 1.0
C      1  0.4230080000000  0.4768980000000  0.5515220000000 1.0
C      1  0.5663860000000  0.4518760000000  0.5535730000000 1.0
C      1  0.4747920000000  0.4661760000000  0.5476930000000 1.0
C      1  0.4997920000000  0.4185780000000  0.4670470000000 1.0
C      1  0.5378680000000  0.4970660000000  0.4403650000000 1.0
C      1  0.5390640000000  0.4684370000000  0.5153290000000 1.0
C      1  0.4617270000000  0.4388080000000  0.4356290000000 1.0
C      1  0.5123470000000  0.5583590000000  0.5310490000000 1.0
C      1  0.5315610000000  0.5004160000000  0.5858750000000 1.0
C      1  0.4276430000000  0.4854230000000  0.4248000000000 1.0
C      1  0.5515320000000  0.5687690000000  0.5099410000000 1.0
C      1  0.4968580000000  0.5238160000000  0.5817090000000 1.0
C      1  0.4198260000000  0.4687070000000  0.4506180000000 1.0
C      1  0.4844260000000  0.5068340000000  0.4783590000000 1.0
C      1  0.4774730000000  0.5363100000000  0.4269170000000 1.0
C      1  0.5023030000000  0.4657880000000  0.4136090000000 1.0
C      1  0.5843310000000  0.4558430000000  0.5294300000000 1.0
C      1  0.4422110000000  0.5212120000000  0.5865580000000 1.0
C      1  0.5364120000000  0.5087920000000  0.4156560000000 1.0
C      1  0.4209490000000  0.5339920000000  0.4787030000000 1.0
C      1  0.5172660000000  0.4835490000000  0.4535030000000 1.0
C      1  0.5098770000000  0.4951760000000  0.4084810000000 1.0
C      1  0.5913360000000  0.4701000000000  0.4794780000000 1.0
C      1  0.5732620000000  0.4790560000000  0.5626810000000 1.0
C      1  0.5311930000000  0.4686190000000  0.4733890000000 1.0
C      1  0.5160210000000  0.4140050000000  0.5180790000000 1.0
C      1  0.4810750000000  0.4414360000000  0.5078010000000 1.0
C      1  0.5091580000000  0.5320410000000  0.5185610000000 1.0
C      1  0.4569620000000  0.4818920000000  0.4181610000000 1.0
C      1  0.5293860000000  0.5567230000000  0.5751560000000 1.0
C      1  0.4244320000000  0.5134930000000  0.4250070000000 1.0
C      1  0.5062850000000  0.5011700000000  0.5982910000000 1.0
C      1  0.5835110000000  0.4498980000000  0.4997900000000 1.0
C      1  0.4184640000000  0.5043860000000  0.5578880000000 1.0
C      1  0.5927040000000  0.4946600000000  0.4947120000000 1.0
C      1  0.5500860000000  0.5216540000000  0.5467100000000 1.0
C      1  0.4472030000000  0.5238600000000  0.4705630000000 1.0
C      1  0.5462600000000  0.4410290000000  0.5146480000000 1.0
C      1  0.5362410000000  0.4213140000000  0.5357780000000 1.0
C      1  0.5020070000000  0.5532620000000  0.5797530000000 1.0
C      1  0.5446120000000  0.4854370000000  0.4924800000000 1.0
C      1  0.4165820000000  0.4713920000000  0.5223270000000 1.0
C      1  0.4744080000000  0.4585710000000  0.4170670000000 1.0
END
