TITL C-883732-77-293 113.597557764911 125000 -28520.8100519454 0 0 196 (C1) n - 1
REM
REM in /home/nfs/bkarasulu/CARBON/AIRSS/Generating-Clusters/ReaxFF-fromJPCA2015/Units_Real/with-SteepDescent/Only-C1/SD-CG/Try1-3A/FIRE-CG
REM
REM
REM
REM
REM
REM ./C.cell (11c1c37f851c82e70ff6c80c92926a4b)
REM
REM compiler GCC version 9.2.1 20190827 (Red Hat 9.2.1-1)
REM options -cpp -mtune=generic -march=x86-64 -g -O0 -fpre-include=/usr/include/finclude/math-vector-fortran.h
REM seed 419254727 1351426818 -1085873541 557698686 335280348 -819650940 2106712002 -67402634 316929825 563568600 -164498933 133052470 1318066598 405446530 -1430323761 -1209648455 -1303473616 360025956 -422567556 618850088 -1061137920 720250952 -1136641130 1724398405 480494136 192546430 -877044626 -451446840 -440119058 1784249020 682740724 -1772639553 1317775915
REM
CELL 1.54180   50.00000   50.00000   50.00000   90.00000   90.00000   90.00000
LATT -1
SFAC C  
C      1  0.4021020000000  0.5152530000000  0.4835720000000 1.0
C      1  0.5293450000000  0.5150510000000  0.4231550000000 1.0
C      1  0.4281440000000  0.4394300000000  0.5722690000000 1.0
C      1  0.5105010000000  0.4850560000000  0.4883370000000 1.0
C      1  0.4657460000000  0.5057790000000  0.4805560000000 1.0
C      1  0.5061540000000  0.5759460000000  0.5897890000000 1.0
C      1  0.5437340000000  0.4396810000000  0.5145020000000 1.0
C      1  0.5209630000000  0.5486780000000  0.5412490000000 1.0
C      1  0.4687980000000  0.4454150000000  0.5197500000000 1.0
C      1  0.5438090000000  0.4139460000000  0.5641920000000 1.0
C      1  0.5590610000000  0.5373220000000  0.4572920000000 1.0
C      1  0.5423170000000  0.4561670000000  0.5430430000000 1.0
C      1  0.4591490000000  0.4366910000000  0.5998830000000 1.0
C      1  0.5759970000000  0.5355830000000  0.4175780000000 1.0
C      1  0.4884730000000  0.5546390000000  0.4587960000000 1.0
C      1  0.5713310000000  0.4232720000000  0.5580240000000 1.0
C      1  0.5250980000000  0.4461270000000  0.4655610000000 1.0
C      1  0.4809510000000  0.4318230000000  0.4956960000000 1.0
C      1  0.4897530000000  0.5150560000000  0.6146590000000 1.0
C      1  0.4020650000000  0.5300510000000  0.4578710000000 1.0
C      1  0.4468400000000  0.5246890000000  0.4917940000000 1.0
C      1  0.5516960000000  0.4551920000000  0.4742130000000 1.0
C      1  0.5152320000000  0.4566920000000  0.5612830000000 1.0
C      1  0.5500200000000  0.4527460000000  0.5899270000000 1.0
C      1  0.4055890000000  0.4409380000000  0.5535220000000 1.0
C      1  0.5236910000000  0.4752820000000  0.3840490000000 1.0
C      1  0.4110820000000  0.5582360000000  0.4526870000000 1.0
C      1  0.5977890000000  0.4533510000000  0.5260930000000 1.0
C      1  0.4683650000000  0.4807630000000  0.6045660000000 1.0
C      1  0.4810790000000  0.5189720000000  0.4444530000000 1.0
C      1  0.5476090000000  0.4834680000000  0.5342580000000 1.0
C      1  0.4290660000000  0.4893050000000  0.4084230000000 1.0
C      1  0.5171560000000  0.5027620000000  0.4435670000000 1.0
C      1  0.3961150000000  0.4263980000000  0.5064000000000 1.0
C      1  0.4959500000000  0.5598360000000  0.5495320000000 1.0
C      1  0.4263330000000  0.4677330000000  0.4967020000000 1.0
C      1  0.5478650000000  0.5528940000000  0.5476760000000 1.0
C      1  0.5247170000000  0.5547130000000  0.5976430000000 1.0
C      1  0.4469380000000  0.4906500000000  0.4641000000000 1.0
C      1  0.4535960000000  0.5518610000000  0.5778460000000 1.0
C      1  0.5633780000000  0.5325750000000  0.5343930000000 1.0
C      1  0.4874170000000  0.4028200000000  0.4627970000000 1.0
C      1  0.3854100000000  0.4415520000000  0.4852160000000 1.0
C      1  0.6047120000000  0.5333230000000  0.5324920000000 1.0
C      1  0.4939600000000  0.4879050000000  0.5318790000000 1.0
C      1  0.6185640000000  0.5071060000000  0.4780230000000 1.0
C      1  0.4662910000000  0.4687050000000  0.5743500000000 1.0
C      1  0.4213170000000  0.4239180000000  0.4489080000000 1.0
C      1  0.5857200000000  0.5345220000000  0.5542220000000 1.0
C      1  0.5848260000000  0.5755990000000  0.4742510000000 1.0
C      1  0.6113140000000  0.5046730000000  0.5281360000000 1.0
C      1  0.4786060000000  0.6063320000000  0.4981300000000 1.0
C      1  0.5586070000000  0.5317280000000  0.5977270000000 1.0
C      1  0.4365290000000  0.4676310000000  0.5753230000000 1.0
C      1  0.6075020000000  0.4917090000000  0.5008300000000 1.0
C      1  0.5800640000000  0.4924520000000  0.5762630000000 1.0
C      1  0.4532840000000  0.4737840000000  0.4048360000000 1.0
C      1  0.5483030000000  0.5189490000000  0.4780650000000 1.0
C      1  0.4620150000000  0.5109090000000  0.6067650000000 1.0
C      1  0.4549090000000  0.4538200000000  0.6208790000000 1.0
C      1  0.5450190000000  0.4714470000000  0.4008130000000 1.0
C      1  0.5847460000000  0.4272350000000  0.5321640000000 1.0
C      1  0.4989330000000  0.5427100000000  0.4007920000000 1.0
C      1  0.5472800000000  0.5868390000000  0.4441610000000 1.0
C      1  0.5811080000000  0.5035290000000  0.4982460000000 1.0
C      1  0.4650560000000  0.6009480000000  0.4720820000000 1.0
C      1  0.4989870000000  0.5223200000000  0.3805170000000 1.0
C      1  0.5795770000000  0.4822230000000  0.4250140000000 1.0
C      1  0.5049830000000  0.4044840000000  0.5520560000000 1.0
C      1  0.4675470000000  0.5447270000000  0.4452660000000 1.0
C      1  0.5140280000000  0.3920020000000  0.4722770000000 1.0
C      1  0.4352040000000  0.4473180000000  0.4781000000000 1.0
C      1  0.4696980000000  0.6006430000000  0.5258910000000 1.0
C      1  0.4064510000000  0.4197920000000  0.5314910000000 1.0
C      1  0.4457640000000  0.5845780000000  0.5335420000000 1.0
C      1  0.4290540000000  0.5192310000000  0.4118820000000 1.0
C      1  0.5534870000000  0.3967050000000  0.4973250000000 1.0
C      1  0.4316700000000  0.5698740000000  0.5126410000000 1.0
C      1  0.6164410000000  0.5349600000000  0.4734400000000 1.0
C      1  0.5109610000000  0.4619420000000  0.5059810000000 1.0
C      1  0.4769310000000  0.5560410000000  0.5291820000000 1.0
C      1  0.5349310000000  0.3852060000000  0.5167910000000 1.0
C      1  0.5512460000000  0.5509610000000  0.4156010000000 1.0
C      1  0.5005500000000  0.4886640000000  0.4278220000000 1.0
C      1  0.5284320000000  0.4359240000000  0.5780470000000 1.0
C      1  0.5281490000000  0.5004130000000  0.4695180000000 1.0
C      1  0.4757900000000  0.4395150000000  0.5776420000000 1.0
C      1  0.4752500000000  0.5233310000000  0.4038040000000 1.0
C      1  0.3977670000000  0.5278630000000  0.5099990000000 1.0
C      1  0.5181320000000  0.5994110000000  0.5271200000000 1.0
C      1  0.4895950000000  0.4753920000000  0.4676400000000 1.0
C      1  0.4555820000000  0.5628290000000  0.4238530000000 1.0
C      1  0.4470100000000  0.4655780000000  0.5152720000000 1.0
C      1  0.5654000000000  0.4507120000000  0.5654770000000 1.0
C      1  0.5233160000000  0.4337340000000  0.4379420000000 1.0
C      1  0.5781140000000  0.4537770000000  0.4613740000000 1.0
C      1  0.5566560000000  0.5654820000000  0.4666990000000 1.0
C      1  0.5730180000000  0.4895610000000  0.5477400000000 1.0
C      1  0.5755380000000  0.6025660000000  0.4792600000000 1.0
C      1  0.4414830000000  0.4174920000000  0.5592100000000 1.0
C      1  0.4996470000000  0.5255450000000  0.5069640000000 1.0
C      1  0.5683190000000  0.4369770000000  0.4389700000000 1.0
C      1  0.5650960000000  0.4198320000000  0.5114810000000 1.0
C      1  0.5737380000000  0.5790990000000  0.5219800000000 1.0
C      1  0.5625830000000  0.5201380000000  0.5083380000000 1.0
C      1  0.6020310000000  0.5572970000000  0.4887190000000 1.0
C      1  0.5122820000000  0.3779370000000  0.4990780000000 1.0
C      1  0.5841360000000  0.4821510000000  0.4538450000000 1.0
C      1  0.5588280000000  0.4807430000000  0.5936790000000 1.0
C      1  0.5055580000000  0.6019990000000  0.4866510000000 1.0
C      1  0.4454490000000  0.4878830000000  0.5317240000000 1.0
C      1  0.4671000000000  0.5225930000000  0.5485070000000 1.0
C      1  0.4739790000000  0.4493800000000  0.4686850000000 1.0
C      1  0.5342710000000  0.4117570000000  0.4246930000000 1.0
C      1  0.4400060000000  0.5286680000000  0.5406140000000 1.0
C      1  0.4323420000000  0.4065480000000  0.5360130000000 1.0
C      1  0.3802520000000  0.4635490000000  0.5038670000000 1.0
C      1  0.5551860000000  0.4108450000000  0.4451470000000 1.0
C      1  0.5101100000000  0.4247510000000  0.4153600000000 1.0
C      1  0.5152480000000  0.4372830000000  0.4926850000000 1.0
C      1  0.4751670000000  0.5578770000000  0.4824460000000 1.0
C      1  0.4395710000000  0.5689730000000  0.5588620000000 1.0
C      1  0.4850210000000  0.5568230000000  0.5761780000000 1.0
C      1  0.5746700000000  0.5073830000000  0.4098930000000 1.0
C      1  0.5587480000000  0.5797360000000  0.5468040000000 1.0
C      1  0.6003160000000  0.4810070000000  0.5411780000000 1.0
C      1  0.5218990000000  0.5251800000000  0.5252230000000 1.0
C      1  0.4376150000000  0.4338240000000  0.4280740000000 1.0
C      1  0.5034450000000  0.5413050000000  0.6129790000000 1.0
C      1  0.5427090000000  0.5058060000000  0.5948550000000 1.0
C      1  0.6064320000000  0.5160970000000  0.4540920000000 1.0
C      1  0.4993800000000  0.4654790000000  0.4422490000000 1.0
C      1  0.4942250000000  0.6034880000000  0.5423980000000 1.0
C      1  0.4973790000000  0.4874780000000  0.6058860000000 1.0
C      1  0.5470280000000  0.5013490000000  0.4038220000000 1.0
C      1  0.4101630000000  0.4869530000000  0.4804960000000 1.0
C      1  0.3827170000000  0.4800300000000  0.5268250000000 1.0
C      1  0.5219980000000  0.4998410000000  0.5401080000000 1.0
C      1  0.5295630000000  0.3951000000000  0.5460380000000 1.0
C      1  0.4375570000000  0.5133260000000  0.5160770000000 1.0
C      1  0.4491840000000  0.4632780000000  0.4595580000000 1.0
C      1  0.4749480000000  0.4933770000000  0.4138520000000 1.0
C      1  0.4205200000000  0.5496710000000  0.5479080000000 1.0
C      1  0.4069180000000  0.5163530000000  0.4319060000000 1.0
C      1  0.5109540000000  0.5953090000000  0.5684840000000 1.0
C      1  0.5102620000000  0.4804540000000  0.5801720000000 1.0
C      1  0.5295680000000  0.5627170000000  0.4794370000000 1.0
C      1  0.4452810000000  0.5581430000000  0.4875870000000 1.0
C      1  0.4230820000000  0.5067350000000  0.5759260000000 1.0
C      1  0.4710720000000  0.4926470000000  0.5490840000000 1.0
C      1  0.4907250000000  0.5604100000000  0.5043070000000 1.0
C      1  0.4072780000000  0.4873380000000  0.4291930000000 1.0
C      1  0.4619650000000  0.4966330000000  0.4408320000000 1.0
C      1  0.5070560000000  0.5357610000000  0.5848750000000 1.0
C      1  0.4246000000000  0.4834390000000  0.5555550000000 1.0
C      1  0.3985880000000  0.4676550000000  0.5480070000000 1.0
C      1  0.5860250000000  0.5339860000000  0.4448260000000 1.0
C      1  0.5426050000000  0.3997820000000  0.4696130000000 1.0
C      1  0.5898700000000  0.4627790000000  0.5006010000000 1.0
C      1  0.4005250000000  0.4439250000000  0.4579390000000 1.0
C      1  0.5164530000000  0.5511180000000  0.4589630000000 1.0
C      1  0.4850210000000  0.5928330000000  0.4527020000000 1.0
C      1  0.5682360000000  0.4981230000000  0.4746400000000 1.0
C      1  0.4000440000000  0.5156410000000  0.5592720000000 1.0
C      1  0.4327390000000  0.5750900000000  0.4422340000000 1.0
C      1  0.4845940000000  0.5786940000000  0.4280790000000 1.0
C      1  0.4883270000000  0.4989840000000  0.4995350000000 1.0
C      1  0.3896760000000  0.5100640000000  0.5313870000000 1.0
C      1  0.4562000000000  0.4458300000000  0.4117410000000 1.0
C      1  0.4032090000000  0.4724620000000  0.4546670000000 1.0
C      1  0.4964270000000  0.4597190000000  0.5306810000000 1.0
C      1  0.5070700000000  0.5679700000000  0.4134530000000 1.0
C      1  0.5822630000000  0.5216280000000  0.5805630000000 1.0
C      1  0.4506710000000  0.5378310000000  0.4087630000000 1.0
C      1  0.4596270000000  0.4176460000000  0.5368650000000 1.0
C      1  0.4414360000000  0.5829770000000  0.4684150000000 1.0
C      1  0.5498950000000  0.6083480000000  0.4635520000000 1.0
C      1  0.4747630000000  0.5298610000000  0.5229350000000 1.0
C      1  0.4094200000000  0.5531990000000  0.5209000000000 1.0
C      1  0.5142910000000  0.5759350000000  0.5011720000000 1.0
C      1  0.4655660000000  0.4096040000000  0.4820730000000 1.0
C      1  0.5656540000000  0.4574860000000  0.4178260000000 1.0
C      1  0.5208510000000  0.5068800000000  0.5735050000000 1.0
C      1  0.5940980000000  0.5574010000000  0.5160050000000 1.0
C      1  0.5605560000000  0.5995840000000  0.5040130000000 1.0
C      1  0.4824440000000  0.4276480000000  0.4493990000000 1.0
C      1  0.5350970000000  0.5975750000000  0.5509850000000 1.0
C      1  0.4864910000000  0.4405210000000  0.4238550000000 1.0
C      1  0.5363860000000  0.5753140000000  0.4199890000000 1.0
C      1  0.5363130000000  0.5384160000000  0.4372160000000 1.0
C      1  0.4450160000000  0.5257230000000  0.5877420000000 1.0
C      1  0.5352970000000  0.6092800000000  0.4895860000000 1.0
C      1  0.4387870000000  0.4184750000000  0.4735660000000 1.0
C      1  0.5104010000000  0.4972410000000  0.3798030000000 1.0
C      1  0.5602420000000  0.4614070000000  0.5012870000000 1.0
C      1  0.4818130000000  0.4156550000000  0.5598210000000 1.0
END
