TITL C-883740-3686-399 0.297163794581986 125000 -7043.62140072956 0 0 48 (C1) n - 1
REM
REM in /home/nfs/bkarasulu/CARBON/AIRSS/Generating-Clusters/ReaxFF-fromJPCA2015/Units_Real/with-SteepDescent/Only-C1/SD-CG/Try1-3A/FIRE-CG
REM
REM
REM
REM
REM
REM ./C.cell (11c1c37f851c82e70ff6c80c92926a4b)
REM
REM compiler GCC version 9.2.1 20190827 (Red Hat 9.2.1-1)
REM options -cpp -mtune=generic -march=x86-64 -g -O0 -fpre-include=/usr/include/finclude/math-vector-fortran.h
REM seed 1603579851 -1499300719 714268531 955434677 1127528502 -2085849846 1415394841 -196568109 -1955599005 1066354202 493040336 2063356722 -377843417 -1421465124 1446107983 -1790588835 1646418331 -458500058 -206834597 -646617250 -383256473 511511399 1819007308 438628802 1903925039 114447351 -236951461 113925307 -1103195595 -213331706 1028578402 462578532 1559030740
REM
CELL 1.54180   50.00000   50.00000   50.00000   90.00000   90.00000   90.00000
LATT -1
SFAC C  
C      1  0.5015450000000  0.5350640000000  0.5500270000000 1.0
C      1  0.5071850000000  0.5113490000000  0.5695000000000 1.0
C      1  0.4675250000000  0.5109120000000  0.5295490000000 1.0
C      1  0.5095420000000  0.5123730000000  0.5065000000000 1.0
C      1  0.5672820000000  0.5383260000000  0.5346290000000 1.0
C      1  0.5502630000000  0.4870670000000  0.4668760000000 1.0
C      1  0.4855710000000  0.4702920000000  0.5506490000000 1.0
C      1  0.4652350000000  0.4929510000000  0.4804920000000 1.0
C      1  0.4584620000000  0.5447880000000  0.4883980000000 1.0
C      1  0.5337270000000  0.4735240000000  0.5421710000000 1.0
C      1  0.4775410000000  0.5380980000000  0.5342800000000 1.0
C      1  0.5112810000000  0.4815640000000  0.5585230000000 1.0
C      1  0.4379230000000  0.4406480000000  0.4411760000000 1.0
C      1  0.4481040000000  0.4594110000000  0.4204430000000 1.0
C      1  0.4793960000000  0.5514420000000  0.5078410000000 1.0
C      1  0.4699530000000  0.5455290000000  0.4596600000000 1.0
C      1  0.4811220000000  0.5224480000000  0.4451250000000 1.0
C      1  0.4431850000000  0.4823080000000  0.4404780000000 1.0
C      1  0.5688060000000  0.5203880000000  0.4826050000000 1.0
C      1  0.4624510000000  0.5013270000000  0.4520740000000 1.0
C      1  0.5437350000000  0.5498730000000  0.5231140000000 1.0
C      1  0.5089970000000  0.4581190000000  0.4787380000000 1.0
C      1  0.5503050000000  0.4551120000000  0.5016800000000 1.0
C      1  0.5065180000000  0.5062880000000  0.4522270000000 1.0
C      1  0.4795760000000  0.4542230000000  0.5259040000000 1.0
C      1  0.5204220000000  0.5306750000000  0.5283660000000 1.0
C      1  0.4511480000000  0.4682270000000  0.4820760000000 1.0
C      1  0.5050760000000  0.5601070000000  0.4937250000000 1.0
C      1  0.5649620000000  0.5154410000000  0.5356370000000 1.0
C      1  0.4343770000000  0.4644230000000  0.4618260000000 1.0
C      1  0.5244650000000  0.5072810000000  0.5882540000000 1.0
C      1  0.4334330000000  0.4715820000000  0.5022170000000 1.0
C      1  0.5688850000000  0.4758230000000  0.5095880000000 1.0
C      1  0.5466190000000  0.5357190000000  0.4752740000000 1.0
C      1  0.5348910000000  0.5114480000000  0.4605340000000 1.0
C      1  0.4522800000000  0.4661330000000  0.5255310000000 1.0
C      1  0.4609460000000  0.4866450000000  0.5447850000000 1.0
C      1  0.4298850000000  0.5004650000000  0.4992080000000 1.0
C      1  0.5592850000000  0.4870480000000  0.5346740000000 1.0
C      1  0.4819120000000  0.5036170000000  0.5045460000000 1.0
C      1  0.5026260000000  0.4517170000000  0.5077770000000 1.0
C      1  0.5344090000000  0.5540570000000  0.4955870000000 1.0
C      1  0.4943620000000  0.5545990000000  0.4686600000000 1.0
C      1  0.5282780000000  0.4534840000000  0.5211680000000 1.0
C      1  0.5041940000000  0.4812440000000  0.4633830000000 1.0
C      1  0.4403580000000  0.5230460000000  0.4939810000000 1.0
C      1  0.5385330000000  0.4610670000000  0.4754100000000 1.0
C      1  0.5734260000000  0.4927280000000  0.4851350000000 1.0
END
