TITL C-884140-4336-85 106.620477986866 125000 -14313.1351984444 0 0 99 (C1) n - 1
REM
REM in /home/nfs/bkarasulu/CARBON/AIRSS/Generating-Clusters/ReaxFF-fromJPCA2015/Units_Real/with-SteepDescent/Only-C1/SD-CG/Try1-3A/FIRE-CG
REM
REM
REM
REM
REM
REM ./C.cell (11c1c37f851c82e70ff6c80c92926a4b)
REM
REM compiler GCC version 9.2.1 20190827 (Red Hat 9.2.1-1)
REM options -cpp -mtune=generic -march=x86-64 -g -O0 -fpre-include=/usr/include/finclude/math-vector-fortran.h
REM seed 1430411028 1919183299 -241179811 -936288867 -478788980 -1681755162 -764315312 1326468939 1144382419 1651840610 1630870164 1677823447 2078031683 317388950 1117995342 -537411227 -2039276137 -539892997 472403412 -792651771 -1544033125 701698960 1032612834 472453255 -1276973006 -1341852128 458771415 -1709514729 -1777048314 2146109922 1114469752 203379820 -1905891786
REM
CELL 1.54180   50.00000   50.00000   50.00000   90.00000   90.00000   90.00000
LATT -1
SFAC C  
C      1  0.4457560000000  0.5059330000000  0.4364270000000 1.0
C      1  0.4628000000000  0.5209760000000  0.4905600000000 1.0
C      1  0.4931380000000  0.5584400000000  0.4424450000000 1.0
C      1  0.5374630000000  0.5888340000000  0.5035090000000 1.0
C      1  0.4973090000000  0.4053230000000  0.4981660000000 1.0
C      1  0.5069680000000  0.5254140000000  0.4818080000000 1.0
C      1  0.5431210000000  0.4858070000000  0.5093030000000 1.0
C      1  0.4624640000000  0.5388230000000  0.5114440000000 1.0
C      1  0.4256260000000  0.4666830000000  0.4623930000000 1.0
C      1  0.4142140000000  0.4587110000000  0.4888620000000 1.0
C      1  0.4840840000000  0.5241460000000  0.5832050000000 1.0
C      1  0.4259720000000  0.4949230000000  0.4551460000000 1.0
C      1  0.5207790000000  0.4796610000000  0.5269500000000 1.0
C      1  0.4579580000000  0.4340280000000  0.4694770000000 1.0
C      1  0.5582230000000  0.4389340000000  0.4851110000000 1.0
C      1  0.5356730000000  0.4260000000000  0.4770970000000 1.0
C      1  0.5022300000000  0.5086000000000  0.5310610000000 1.0
C      1  0.5119100000000  0.4593210000000  0.5095920000000 1.0
C      1  0.5305660000000  0.4639240000000  0.5510120000000 1.0
C      1  0.5660990000000  0.4559770000000  0.4617960000000 1.0
C      1  0.5571030000000  0.4555570000000  0.5422610000000 1.0
C      1  0.5351400000000  0.4968770000000  0.4840110000000 1.0
C      1  0.4223610000000  0.5252120000000  0.4993570000000 1.0
C      1  0.5711690000000  0.4884080000000  0.5143900000000 1.0
C      1  0.5198690000000  0.5630230000000  0.4524300000000 1.0
C      1  0.5428980000000  0.4608700000000  0.4425790000000 1.0
C      1  0.5156160000000  0.6017920000000  0.5180400000000 1.0
C      1  0.5878860000000  0.4928240000000  0.4903560000000 1.0
C      1  0.5447980000000  0.5167430000000  0.4423560000000 1.0
C      1  0.4512560000000  0.4557840000000  0.4549100000000 1.0
C      1  0.4285670000000  0.5203960000000  0.5283090000000 1.0
C      1  0.4796180000000  0.5279730000000  0.4744490000000 1.0
C      1  0.4583680000000  0.4391760000000  0.4983580000000 1.0
C      1  0.5204770000000  0.4416190000000  0.4331200000000 1.0
C      1  0.5693700000000  0.5066780000000  0.4562340000000 1.0
C      1  0.5718530000000  0.5397260000000  0.4944570000000 1.0
C      1  0.4831830000000  0.5248680000000  0.5227990000000 1.0
C      1  0.5471970000000  0.5401510000000  0.5671480000000 1.0
C      1  0.4886960000000  0.5585700000000  0.5569590000000 1.0
C      1  0.4428810000000  0.5390280000000  0.5461980000000 1.0
C      1  0.5706730000000  0.5477830000000  0.5225130000000 1.0
C      1  0.5286620000000  0.5541920000000  0.5241400000000 1.0
C      1  0.4295890000000  0.5505150000000  0.4853470000000 1.0
C      1  0.4727810000000  0.4990850000000  0.5913050000000 1.0
C      1  0.4936420000000  0.5110880000000  0.4249160000000 1.0
C      1  0.5140650000000  0.5088150000000  0.5773740000000 1.0
C      1  0.4749950000000  0.5756140000000  0.5388850000000 1.0
C      1  0.4516800000000  0.5345480000000  0.4382110000000 1.0
C      1  0.5430340000000  0.4170070000000  0.5173500000000 1.0
C      1  0.4713040000000  0.4376900000000  0.4430390000000 1.0
C      1  0.5170660000000  0.4060960000000  0.5189010000000 1.0
C      1  0.4888310000000  0.5797810000000  0.4876680000000 1.0
C      1  0.5776610000000  0.4806870000000  0.4658770000000 1.0
C      1  0.4298810000000  0.5016660000000  0.4835180000000 1.0
C      1  0.5295610000000  0.4734380000000  0.4663350000000 1.0
C      1  0.5093460000000  0.5007060000000  0.4854090000000 1.0
C      1  0.4801390000000  0.5368810000000  0.4284890000000 1.0
C      1  0.4787980000000  0.4647080000000  0.4262040000000 1.0
C      1  0.4679350000000  0.4665820000000  0.5375030000000 1.0
C      1  0.4861410000000  0.4448420000000  0.5471980000000 1.0
C      1  0.5681360000000  0.5326930000000  0.5481630000000 1.0
C      1  0.5524040000000  0.5706110000000  0.5221880000000 1.0
C      1  0.5183880000000  0.5048830000000  0.4387640000000 1.0
C      1  0.4678800000000  0.4712780000000  0.5038550000000 1.0
C      1  0.4879570000000  0.5888370000000  0.5147860000000 1.0
C      1  0.4241530000000  0.4912720000000  0.5335930000000 1.0
C      1  0.4451840000000  0.5526040000000  0.4603830000000 1.0
C      1  0.5825630000000  0.5190260000000  0.4792620000000 1.0
C      1  0.4791940000000  0.4222950000000  0.5131610000000 1.0
C      1  0.4463720000000  0.5659030000000  0.5353800000000 1.0
C      1  0.5064120000000  0.4565430000000  0.5643930000000 1.0
C      1  0.5234870000000  0.5473420000000  0.4957140000000 1.0
C      1  0.4682970000000  0.5404170000000  0.5652880000000 1.0
C      1  0.5168060000000  0.5771700000000  0.4803120000000 1.0
C      1  0.4591200000000  0.4962230000000  0.4876060000000 1.0
C      1  0.4975270000000  0.4830970000000  0.5760820000000 1.0
C      1  0.5018430000000  0.4356070000000  0.5251540000000 1.0
C      1  0.5112260000000  0.4129250000000  0.4722350000000 1.0
C      1  0.4404900000000  0.4750550000000  0.5511680000000 1.0
C      1  0.5728730000000  0.4803820000000  0.5424230000000 1.0
C      1  0.5424690000000  0.5446230000000  0.4511190000000 1.0
C      1  0.5014800000000  0.4281520000000  0.4491520000000 1.0
C      1  0.5005990000000  0.4807120000000  0.4654960000000 1.0
C      1  0.4707050000000  0.4921940000000  0.4274290000000 1.0
C      1  0.5660980000000  0.5041820000000  0.5583180000000 1.0
C      1  0.4156640000000  0.4676310000000  0.5178270000000 1.0
C      1  0.4544640000000  0.4931710000000  0.5696320000000 1.0
C      1  0.4292110000000  0.4436780000000  0.5076950000000 1.0
C      1  0.4451340000000  0.5634240000000  0.5064400000000 1.0
C      1  0.5492540000000  0.5491110000000  0.4791100000000 1.0
C      1  0.5199070000000  0.5485550000000  0.5514510000000 1.0
C      1  0.5450790000000  0.5134460000000  0.5774890000000 1.0
C      1  0.5069530000000  0.4633590000000  0.4186210000000 1.0
C      1  0.4743080000000  0.5591490000000  0.4673010000000 1.0
C      1  0.5602220000000  0.4383650000000  0.5182660000000 1.0
C      1  0.5149910000000  0.5215490000000  0.5528250000000 1.0
C      1  0.4926000000000  0.4656190000000  0.4899450000000 1.0
C      1  0.5259510000000  0.4847710000000  0.4235420000000 1.0
C      1  0.4781550000000  0.4866900000000  0.5541670000000 1.0
END
