TITL C-884141-4321-189 18.562350300313 125000 -23679.9062750664 0 0 159 (C1) n - 1
REM
REM in /home/nfs/bkarasulu/CARBON/AIRSS/Generating-Clusters/ReaxFF-fromJPCA2015/Units_Real/with-SteepDescent/Only-C1/SD-CG/Try1-3A/FIRE-CG
REM
REM
REM
REM
REM
REM ./C.cell (11c1c37f851c82e70ff6c80c92926a4b)
REM
REM compiler GCC version 9.2.1 20190827 (Red Hat 9.2.1-1)
REM options -cpp -mtune=generic -march=x86-64 -g -O0 -fpre-include=/usr/include/finclude/math-vector-fortran.h
REM seed 510145340 -121452656 -141392584 -67303234 -1946497824 1272997141 -825925329 13388789 -11972637 -1294420292 1016305381 475272789 2098422348 2145725012 -957204647 1231969114 -2032847700 1698953899 541969588 -1301599891 -26742353 -673640027 -123616666 -897870993 -2084148304 -954735862 -320362646 221760967 476970077 1709460024 -1922977130 532710932 1678633775
REM
CELL 1.54180   50.00000   50.00000   50.00000   90.00000   90.00000   90.00000
LATT -1
SFAC C  
C      1  0.4777920000000  0.4570110000000  0.4113590000000 1.0
C      1  0.5748880000000  0.5265310000000  0.5662220000000 1.0
C      1  0.4921230000000  0.5401020000000  0.4467140000000 1.0
C      1  0.5079350000000  0.5282590000000  0.4051030000000 1.0
C      1  0.5601740000000  0.5260700000000  0.4714410000000 1.0
C      1  0.4384360000000  0.5701670000000  0.4616920000000 1.0
C      1  0.4006080000000  0.4852640000000  0.4973190000000 1.0
C      1  0.5851820000000  0.4140050000000  0.5026050000000 1.0
C      1  0.4589130000000  0.4320860000000  0.5662760000000 1.0
C      1  0.5256460000000  0.4410250000000  0.5051020000000 1.0
C      1  0.4844170000000  0.4566620000000  0.5305350000000 1.0
C      1  0.5082660000000  0.5001930000000  0.4027800000000 1.0
C      1  0.6003900000000  0.4822840000000  0.5434390000000 1.0
C      1  0.4833420000000  0.5591830000000  0.4270420000000 1.0
C      1  0.4424470000000  0.4482510000000  0.4905440000000 1.0
C      1  0.4532520000000  0.5334400000000  0.4884280000000 1.0
C      1  0.5018420000000  0.4789300000000  0.4852500000000 1.0
C      1  0.4378000000000  0.5274840000000  0.5784830000000 1.0
C      1  0.4576400000000  0.4798490000000  0.4115360000000 1.0
C      1  0.5504710000000  0.5349110000000  0.5812960000000 1.0
C      1  0.5232560000000  0.5821900000000  0.5021170000000 1.0
C      1  0.4645750000000  0.4113070000000  0.4362010000000 1.0
C      1  0.3988150000000  0.5317690000000  0.4776590000000 1.0
C      1  0.5008460000000  0.4968460000000  0.4601620000000 1.0
C      1  0.6139510000000  0.5112060000000  0.5007490000000 1.0
C      1  0.5231820000000  0.4849110000000  0.5075130000000 1.0
C      1  0.4325640000000  0.4758700000000  0.4265400000000 1.0
C      1  0.5089400000000  0.5247650000000  0.5977220000000 1.0
C      1  0.5536850000000  0.5771840000000  0.4626420000000 1.0
C      1  0.4733440000000  0.4512470000000  0.5824620000000 1.0
C      1  0.4886940000000  0.4605930000000  0.5593330000000 1.0
C      1  0.5063930000000  0.4494300000000  0.4114160000000 1.0
C      1  0.3951710000000  0.5508150000000  0.5364670000000 1.0
C      1  0.3931180000000  0.5228910000000  0.5303520000000 1.0
C      1  0.5604040000000  0.5771660000000  0.5540580000000 1.0
C      1  0.5118310000000  0.4251340000000  0.4278340000000 1.0
C      1  0.4226500000000  0.5024090000000  0.5748460000000 1.0
C      1  0.5115220000000  0.4895080000000  0.4348910000000 1.0
C      1  0.5433980000000  0.5485580000000  0.4702760000000 1.0
C      1  0.5436220000000  0.4385140000000  0.5779800000000 1.0
C      1  0.4931880000000  0.4070670000000  0.4428910000000 1.0
C      1  0.4084570000000  0.4919890000000  0.4239360000000 1.0
C      1  0.5501280000000  0.4572560000000  0.4304710000000 1.0
C      1  0.4849510000000  0.5821360000000  0.4748100000000 1.0
C      1  0.4921480000000  0.5946210000000  0.5339480000000 1.0
C      1  0.3906710000000  0.4908520000000  0.4482550000000 1.0
C      1  0.4554290000000  0.4689530000000  0.4741900000000 1.0
C      1  0.4047750000000  0.5046430000000  0.5520210000000 1.0
C      1  0.4474420000000  0.5898010000000  0.5590140000000 1.0
C      1  0.5278580000000  0.4880440000000  0.5985580000000 1.0
C      1  0.4714460000000  0.6004970000000  0.5152770000000 1.0
C      1  0.4615330000000  0.4416960000000  0.4304740000000 1.0
C      1  0.5814820000000  0.5686740000000  0.5371370000000 1.0
C      1  0.4764810000000  0.5088730000000  0.5615420000000 1.0
C      1  0.4959090000000  0.4002220000000  0.5004440000000 1.0
C      1  0.5309790000000  0.4152920000000  0.5595210000000 1.0
C      1  0.5359740000000  0.4908130000000  0.3960640000000 1.0
C      1  0.5411570000000  0.4052010000000  0.5343330000000 1.0
C      1  0.5686510000000  0.4138570000000  0.5283660000000 1.0
C      1  0.5453760000000  0.4762630000000  0.4915820000000 1.0
C      1  0.5045820000000  0.4144340000000  0.5544370000000 1.0
C      1  0.4778760000000  0.5594330000000  0.5940630000000 1.0
C      1  0.4595350000000  0.5329670000000  0.4554710000000 1.0
C      1  0.4692790000000  0.4785260000000  0.5189630000000 1.0
C      1  0.5156200000000  0.4611920000000  0.5256770000000 1.0
C      1  0.4276970000000  0.4499150000000  0.5329370000000 1.0
C      1  0.4237180000000  0.4911060000000  0.5344440000000 1.0
C      1  0.4892970000000  0.4372790000000  0.4709110000000 1.0
C      1  0.5687230000000  0.4960450000000  0.5196350000000 1.0
C      1  0.5346900000000  0.5632270000000  0.4203280000000 1.0
C      1  0.5334100000000  0.4767620000000  0.5513590000000 1.0
C      1  0.5712130000000  0.5747010000000  0.4866630000000 1.0
C      1  0.5434120000000  0.4123550000000  0.4597940000000 1.0
C      1  0.4800600000000  0.5298200000000  0.3986350000000 1.0
C      1  0.4502590000000  0.4420980000000  0.5167970000000 1.0
C      1  0.4399970000000  0.5127070000000  0.4464010000000 1.0
C      1  0.4766200000000  0.5181930000000  0.4949380000000 1.0
C      1  0.4480610000000  0.4118280000000  0.4588250000000 1.0
C      1  0.5450880000000  0.5113190000000  0.5125790000000 1.0
C      1  0.4591830000000  0.4753430000000  0.5951140000000 1.0
C      1  0.4510470000000  0.4974030000000  0.5297300000000 1.0
C      1  0.4365440000000  0.5855970000000  0.5325260000000 1.0
C      1  0.3954290000000  0.5139390000000  0.5009220000000 1.0
C      1  0.5762900000000  0.5179690000000  0.4171600000000 1.0
C      1  0.5859640000000  0.5335850000000  0.4607730000000 1.0
C      1  0.4365650000000  0.4508970000000  0.5607360000000 1.0
C      1  0.4063460000000  0.4791780000000  0.4695830000000 1.0
C      1  0.3934600000000  0.5203500000000  0.4510710000000 1.0
C      1  0.4751640000000  0.4872710000000  0.4930530000000 1.0
C      1  0.4493660000000  0.4137420000000  0.5118560000000 1.0
C      1  0.5278260000000  0.5915050000000  0.4744160000000 1.0
C      1  0.4599230000000  0.5070030000000  0.3999470000000 1.0
C      1  0.5455300000000  0.4973220000000  0.4700650000000 1.0
C      1  0.5505500000000  0.5153990000000  0.4027330000000 1.0
C      1  0.5389410000000  0.4281910000000  0.4364960000000 1.0
C      1  0.5690090000000  0.4433410000000  0.5296030000000 1.0
C      1  0.4549810000000  0.5585530000000  0.4407180000000 1.0
C      1  0.5065760000000  0.5542690000000  0.5941260000000 1.0
C      1  0.5813690000000  0.4679140000000  0.4361860000000 1.0
C      1  0.5085360000000  0.5753140000000  0.4296170000000 1.0
C      1  0.5794440000000  0.5435050000000  0.4336290000000 1.0
C      1  0.4386230000000  0.4195540000000  0.4841370000000 1.0
C      1  0.4177710000000  0.5550430000000  0.4787790000000 1.0
C      1  0.5249490000000  0.4072430000000  0.5077050000000 1.0
C      1  0.5061210000000  0.5899930000000  0.4552700000000 1.0
C      1  0.4980230000000  0.5365170000000  0.5023050000000 1.0
C      1  0.5786780000000  0.5735190000000  0.5081870000000 1.0
C      1  0.5079140000000  0.4509670000000  0.4845040000000 1.0
C      1  0.5597480000000  0.5643960000000  0.4339510000000 1.0
C      1  0.4556230000000  0.5870190000000  0.4783850000000 1.0
C      1  0.4423530000000  0.5384080000000  0.5523120000000 1.0
C      1  0.4753180000000  0.4039220000000  0.5205310000000 1.0
C      1  0.5870960000000  0.4560160000000  0.5493870000000 1.0
C      1  0.6112700000000  0.5264450000000  0.4762970000000 1.0
C      1  0.5304340000000  0.5589250000000  0.5776110000000 1.0
C      1  0.4724940000000  0.4991320000000  0.6051940000000 1.0
C      1  0.5444730000000  0.5348260000000  0.5285620000000 1.0
C      1  0.4342770000000  0.4838630000000  0.4570110000000 1.0
C      1  0.4270340000000  0.5549140000000  0.5326520000000 1.0
C      1  0.5002770000000  0.5651700000000  0.4936520000000 1.0
C      1  0.5399330000000  0.4046970000000  0.4810710000000 1.0
C      1  0.5160100000000  0.5396770000000  0.4634970000000 1.0
C      1  0.4466460000000  0.5975250000000  0.5054230000000 1.0
C      1  0.5829650000000  0.4395820000000  0.4873290000000 1.0
C      1  0.4703970000000  0.4528340000000  0.4559950000000 1.0
C      1  0.5686040000000  0.4489130000000  0.5703720000000 1.0
C      1  0.5979800000000  0.4650600000000  0.4877100000000 1.0
C      1  0.4333890000000  0.5475100000000  0.5020230000000 1.0
C      1  0.4907690000000  0.4075660000000  0.4722750000000 1.0
C      1  0.5176810000000  0.5003020000000  0.5507670000000 1.0
C      1  0.4096830000000  0.4691520000000  0.5210500000000 1.0
C      1  0.5192230000000  0.5274220000000  0.5419430000000 1.0
C      1  0.4631770000000  0.5217120000000  0.5407540000000 1.0
C      1  0.5313840000000  0.4649030000000  0.5798060000000 1.0
C      1  0.5455830000000  0.5092630000000  0.5906010000000 1.0
C      1  0.4860480000000  0.5246490000000  0.5787890000000 1.0
C      1  0.5329970000000  0.5808600000000  0.5572970000000 1.0
C      1  0.5006500000000  0.4992880000000  0.6094150000000 1.0
C      1  0.4946560000000  0.4891540000000  0.5598020000000 1.0
C      1  0.5931910000000  0.4712390000000  0.4616370000000 1.0
C      1  0.4358750000000  0.4757780000000  0.5781370000000 1.0
C      1  0.5825460000000  0.4979390000000  0.5607260000000 1.0
C      1  0.4830300000000  0.5049290000000  0.3836970000000 1.0
C      1  0.5574060000000  0.4515200000000  0.5013980000000 1.0
C      1  0.4929330000000  0.5401630000000  0.5328870000000 1.0
C      1  0.4160160000000  0.5199050000000  0.4316280000000 1.0
C      1  0.5372960000000  0.4816760000000  0.4439990000000 1.0
C      1  0.4713480000000  0.5731140000000  0.5692430000000 1.0
C      1  0.5325600000000  0.4634030000000  0.4059210000000 1.0
C      1  0.4881460000000  0.5672690000000  0.5457570000000 1.0
C      1  0.5599700000000  0.4869560000000  0.5456350000000 1.0
C      1  0.5208150000000  0.5906090000000  0.5303430000000 1.0
C      1  0.5718860000000  0.5404200000000  0.5404240000000 1.0
C      1  0.4779250000000  0.4136640000000  0.5493730000000 1.0
C      1  0.5838620000000  0.4936940000000  0.4289350000000 1.0
C      1  0.5985380000000  0.4874800000000  0.5121400000000 1.0
C      1  0.5332570000000  0.5387610000000  0.4043930000000 1.0
C      1  0.4623310000000  0.5293620000000  0.5958370000000 1.0
C      1  0.5180740000000  0.5139140000000  0.4754050000000 1.0
END
