TITL C-884132-5695-10 786350.548729352 125000 -17743.281365868 0 0 120 (C1) n - 1
REM
REM in /home/nfs/bkarasulu/CARBON/AIRSS/Generating-Clusters/ReaxFF-fromJPCA2015/Units_Real/with-SteepDescent/Only-C1/SD-CG/Try1-3A/FIRE-CG
REM
REM
REM
REM
REM
REM ./C.cell (11c1c37f851c82e70ff6c80c92926a4b)
REM
REM compiler GCC version 9.2.1 20190827 (Red Hat 9.2.1-1)
REM options -cpp -mtune=generic -march=x86-64 -g -O0 -fpre-include=/usr/include/finclude/math-vector-fortran.h
REM seed 229774313 1728627900 -130699605 642309087 1222861897 1287254620 1460801326 654584150 -19772472 -495902304 1727249889 -1545872044 481936559 1817932185 -707220481 1557723467 -953435142 606488742 -297844047 -1075578845 886406278 -907016692 -1064678576 -8757729 -1217353677 -1095682567 -1807467286 -798988042 -1033776016 2003392482 822090253 974399994 -655980574
REM
CELL 1.54180   50.00000   50.00000   50.00000   90.00000   90.00000   90.00000
LATT -1
SFAC C  
C      1  0.4613680000000  0.4373170000000  0.4990320000000 1.0
C      1  0.4904270000000  0.5153380000000  0.5499560000000 1.0
C      1  0.4343070000000  0.4831200000000  0.5715310000000 1.0
C      1  0.5414560000000  0.5125320000000  0.4389780000000 1.0
C      1  0.4303260000000  0.5468340000000  0.4904400000000 1.0
C      1  0.4678580000000  0.4406390000000  0.5737200000000 1.0
C      1  0.5542740000000  0.4301110000000  0.5063260000000 1.0
C      1  0.4773050000000  0.4588700000000  0.4874020000000 1.0
C      1  0.4649000000000  0.5537860000000  0.4518880000000 1.0
C      1  0.4742940000000  0.5517730000000  0.5722450000000 1.0
C      1  0.4905850000000  0.4408460000000  0.4692950000000 1.0
C      1  0.4824320000000  0.4601720000000  0.4178160000000 1.0
C      1  0.5080960000000  0.4173560000000  0.4778040000000 1.0
C      1  0.5597510000000  0.4542870000000  0.4887530000000 1.0
C      1  0.5224040000000  0.4914350000000  0.4313740000000 1.0
C      1  0.5123280000000  0.5077760000000  0.5020660000000 1.0
C      1  0.4236720000000  0.5041060000000  0.5564590000000 1.0
C      1  0.5410240000000  0.4874690000000  0.5309340000000 1.0
C      1  0.5046900000000  0.4869130000000  0.4537950000000 1.0
C      1  0.5478860000000  0.5099620000000  0.5799410000000 1.0
C      1  0.4098040000000  0.4872060000000  0.5372880000000 1.0
C      1  0.5308270000000  0.5134960000000  0.5246050000000 1.0
C      1  0.5867240000000  0.4847800000000  0.5119420000000 1.0
C      1  0.5544640000000  0.5824860000000  0.5073660000000 1.0
C      1  0.4626590000000  0.4849110000000  0.4824410000000 1.0
C      1  0.4872730000000  0.5847250000000  0.4835230000000 1.0
C      1  0.5903840000000  0.4768920000000  0.4617620000000 1.0
C      1  0.4867330000000  0.5402750000000  0.5059220000000 1.0
C      1  0.4209000000000  0.4328800000000  0.5462430000000 1.0
C      1  0.5377360000000  0.5976690000000  0.4890800000000 1.0
C      1  0.5235740000000  0.4367060000000  0.5688250000000 1.0
C      1  0.4694690000000  0.5199490000000  0.5245880000000 1.0
C      1  0.5032670000000  0.4934280000000  0.5956680000000 1.0
C      1  0.4582790000000  0.4738280000000  0.5289150000000 1.0
C      1  0.4530340000000  0.4458570000000  0.5249970000000 1.0
C      1  0.5869360000000  0.4671070000000  0.4890510000000 1.0
C      1  0.5415960000000  0.4696950000000  0.5083530000000 1.0
C      1  0.4613410000000  0.4953830000000  0.5106740000000 1.0
C      1  0.5451120000000  0.4610290000000  0.4574810000000 1.0
C      1  0.5748650000000  0.4862310000000  0.5588490000000 1.0
C      1  0.4983700000000  0.4052810000000  0.5266460000000 1.0
C      1  0.5778310000000  0.4687600000000  0.5353560000000 1.0
C      1  0.4372610000000  0.4632870000000  0.4384370000000 1.0
C      1  0.4440440000000  0.5186070000000  0.4285700000000 1.0
C      1  0.4566050000000  0.4674530000000  0.5793860000000 1.0
C      1  0.5446630000000  0.5598170000000  0.5499390000000 1.0
C      1  0.5164130000000  0.5483230000000  0.5049950000000 1.0
C      1  0.4839210000000  0.5251590000000  0.5786080000000 1.0
C      1  0.5288170000000  0.5281820000000  0.5728850000000 1.0
C      1  0.4126520000000  0.5039470000000  0.5160500000000 1.0
C      1  0.5817420000000  0.5237900000000  0.4770530000000 1.0
C      1  0.4457540000000  0.4302800000000  0.4758430000000 1.0
C      1  0.4278570000000  0.4758510000000  0.4149960000000 1.0
C      1  0.4955200000000  0.4415260000000  0.5795620000000 1.0
C      1  0.5397820000000  0.4280610000000  0.5454570000000 1.0
C      1  0.4722590000000  0.5710870000000  0.5071610000000 1.0
C      1  0.5331840000000  0.4603980000000  0.5817300000000 1.0
C      1  0.5655820000000  0.4825780000000  0.4467070000000 1.0
C      1  0.5015590000000  0.4843420000000  0.5157550000000 1.0
C      1  0.5454980000000  0.4822850000000  0.5642150000000 1.0
C      1  0.5744070000000  0.5520440000000  0.4730450000000 1.0
C      1  0.5314710000000  0.5706770000000  0.5227730000000 1.0
C      1  0.5086600000000  0.6004540000000  0.4957350000000 1.0
C      1  0.4929370000000  0.5707490000000  0.5589700000000 1.0
C      1  0.5839130000000  0.5139610000000  0.5045710000000 1.0
C      1  0.4083530000000  0.4496820000000  0.5019850000000 1.0
C      1  0.5069580000000  0.5258730000000  0.4199570000000 1.0
C      1  0.4960190000000  0.5478350000000  0.4249780000000 1.0
C      1  0.4477440000000  0.5510310000000  0.5604890000000 1.0
C      1  0.4938750000000  0.4009710000000  0.4614100000000 1.0
C      1  0.4435210000000  0.5622710000000  0.5101790000000 1.0
C      1  0.4936820000000  0.5210450000000  0.4847530000000 1.0
C      1  0.5726830000000  0.5608600000000  0.5005500000000 1.0
C      1  0.4755670000000  0.4116810000000  0.5352580000000 1.0
C      1  0.5259250000000  0.4066150000000  0.5283540000000 1.0
C      1  0.4711380000000  0.4775040000000  0.5546020000000 1.0
C      1  0.5613040000000  0.4418220000000  0.5321950000000 1.0
C      1  0.5074040000000  0.4659720000000  0.5960730000000 1.0
C      1  0.4879890000000  0.5730360000000  0.4568340000000 1.0
C      1  0.5096600000000  0.4492770000000  0.4171040000000 1.0
C      1  0.5099870000000  0.5211460000000  0.5931960000000 1.0
C      1  0.4463150000000  0.4962200000000  0.4091130000000 1.0
C      1  0.5775750000000  0.5380240000000  0.5194870000000 1.0
C      1  0.5196920000000  0.4709990000000  0.4702100000000 1.0
C      1  0.5154150000000  0.4650810000000  0.4991770000000 1.0
C      1  0.4544570000000  0.4267470000000  0.5490810000000 1.0
C      1  0.5302740000000  0.4140950000000  0.5013690000000 1.0
C      1  0.5303660000000  0.5292930000000  0.3964520000000 1.0
C      1  0.5241650000000  0.5295700000000  0.4546160000000 1.0
C      1  0.4897140000000  0.5094560000000  0.4134200000000 1.0
C      1  0.5584470000000  0.5674990000000  0.4529450000000 1.0
C      1  0.5341750000000  0.4477480000000  0.4330570000000 1.0
C      1  0.5397480000000  0.5638000000000  0.4305440000000 1.0
C      1  0.4757110000000  0.4882450000000  0.4081590000000 1.0
C      1  0.4156810000000  0.5196060000000  0.4933390000000 1.0
C      1  0.4954990000000  0.4863990000000  0.5434590000000 1.0
C      1  0.4245500000000  0.5248480000000  0.4496370000000 1.0
C      1  0.4430620000000  0.5281070000000  0.5429900000000 1.0
C      1  0.4674930000000  0.4276730000000  0.4552490000000 1.0
C      1  0.5094430000000  0.5934630000000  0.5240650000000 1.0
C      1  0.4354790000000  0.5542890000000  0.5358730000000 1.0
C      1  0.4239320000000  0.4501040000000  0.4771370000000 1.0
C      1  0.5184810000000  0.5277530000000  0.5471140000000 1.0
C      1  0.4183900000000  0.5038180000000  0.4683810000000 1.0
C      1  0.4100020000000  0.4544500000000  0.5312180000000 1.0
C      1  0.5466920000000  0.5370800000000  0.4181520000000 1.0
C      1  0.5239210000000  0.5485190000000  0.4767660000000 1.0
C      1  0.5290850000000  0.4690250000000  0.4165400000000 1.0
C      1  0.5099950000000  0.5686980000000  0.4358010000000 1.0
C      1  0.5715170000000  0.5155100000000  0.5631980000000 1.0
C      1  0.4621660000000  0.4477300000000  0.4332460000000 1.0
C      1  0.5223480000000  0.5683370000000  0.5664980000000 1.0
C      1  0.5361450000000  0.5767200000000  0.4691760000000 1.0
C      1  0.4368540000000  0.5489590000000  0.4624140000000 1.0
C      1  0.5835810000000  0.5044060000000  0.4551820000000 1.0
C      1  0.4803500000000  0.5044510000000  0.4648260000000 1.0
C      1  0.4850080000000  0.5825710000000  0.5332840000000 1.0
C      1  0.5670190000000  0.5387510000000  0.5464850000000 1.0
C      1  0.4667330000000  0.5253270000000  0.4455660000000 1.0
C      1  0.4336530000000  0.4779340000000  0.4670880000000 1.0
END
