TITL C-884128-4793-105 29.6364879252994 125000 -15353.8904031902 0 0 105 (C1) n - 1
REM
REM in /home/nfs/bkarasulu/CARBON/AIRSS/Generating-Clusters/ReaxFF-fromJPCA2015/Units_Real/with-SteepDescent/Only-C1/SD-CG/Try1-3A/FIRE-CG
REM
REM
REM
REM
REM
REM ./C.cell (11c1c37f851c82e70ff6c80c92926a4b)
REM
REM compiler GCC version 9.2.1 20190827 (Red Hat 9.2.1-1)
REM options -cpp -mtune=generic -march=x86-64 -g -O0 -fpre-include=/usr/include/finclude/math-vector-fortran.h
REM seed 703817286 1727200837 -849207695 643302962 -598680397 -626180822 1022942912 500135531 895266442 -1650354120 -1650459143 -1926847311 -1624729500 -902929830 -1408869589 -1020967694 -612712416 -72311723 -1241454925 -915273065 409540745 -483849108 806527906 538533002 362815337 497317538 -895690723 -671902133 -1767211206 1648624052 -2141366816 1383299922 358486258
REM
CELL 1.54180   50.00000   50.00000   50.00000   90.00000   90.00000   90.00000
LATT -1
SFAC C  
C      1  0.5768830000000  0.4745390000000  0.5082420000000 1.0
C      1  0.4566010000000  0.4516290000000  0.4415670000000 1.0
C      1  0.5119750000000  0.4932210000000  0.5194550000000 1.0
C      1  0.4587750000000  0.4285350000000  0.5065000000000 1.0
C      1  0.5225700000000  0.4260350000000  0.5318050000000 1.0
C      1  0.4485200000000  0.4657040000000  0.5708990000000 1.0
C      1  0.4679730000000  0.4330040000000  0.4479670000000 1.0
C      1  0.5824830000000  0.4912640000000  0.4829340000000 1.0
C      1  0.5781600000000  0.4800470000000  0.4571110000000 1.0
C      1  0.5547120000000  0.5685790000000  0.4791090000000 1.0
C      1  0.4480350000000  0.5626530000000  0.5051020000000 1.0
C      1  0.4847850000000  0.4311040000000  0.5612420000000 1.0
C      1  0.4844470000000  0.4888590000000  0.5317540000000 1.0
C      1  0.4807870000000  0.5611410000000  0.4354300000000 1.0
C      1  0.5078980000000  0.4437420000000  0.4248810000000 1.0
C      1  0.4053930000000  0.4677560000000  0.5011340000000 1.0
C      1  0.5068780000000  0.5069680000000  0.4949370000000 1.0
C      1  0.5260350000000  0.5170370000000  0.5643100000000 1.0
C      1  0.5605440000000  0.5586660000000  0.4518260000000 1.0
C      1  0.5377990000000  0.5578350000000  0.5697040000000 1.0
C      1  0.4970510000000  0.5299060000000  0.4555400000000 1.0
C      1  0.4199970000000  0.4626190000000  0.4752820000000 1.0
C      1  0.4937080000000  0.4557680000000  0.5745130000000 1.0
C      1  0.5554920000000  0.4445000000000  0.4520490000000 1.0
C      1  0.5397860000000  0.4932050000000  0.4325900000000 1.0
C      1  0.5029480000000  0.4577490000000  0.4445910000000 1.0
C      1  0.5124670000000  0.5657450000000  0.5574500000000 1.0
C      1  0.4476790000000  0.5557820000000  0.4761940000000 1.0
C      1  0.4831210000000  0.4606580000000  0.5281980000000 1.0
C      1  0.5173560000000  0.5818280000000  0.5340980000000 1.0
C      1  0.4383390000000  0.5526250000000  0.5314070000000 1.0
C      1  0.4963600000000  0.4155870000000  0.5375310000000 1.0
C      1  0.5655830000000  0.5655180000000  0.5061990000000 1.0
C      1  0.4556420000000  0.5281110000000  0.4342550000000 1.0
C      1  0.4604740000000  0.5004620000000  0.4247310000000 1.0
C      1  0.5114590000000  0.5564450000000  0.4979140000000 1.0
C      1  0.5805160000000  0.5210980000000  0.4818930000000 1.0
C      1  0.5447190000000  0.5135110000000  0.4542170000000 1.0
C      1  0.5338590000000  0.5472600000000  0.4831620000000 1.0
C      1  0.5420000000000  0.4683730000000  0.5520400000000 1.0
C      1  0.4450830000000  0.4785240000000  0.4357640000000 1.0
C      1  0.4590500000000  0.4865750000000  0.4874120000000 1.0
C      1  0.5743120000000  0.5369770000000  0.5060510000000 1.0
C      1  0.5752890000000  0.4928170000000  0.5308510000000 1.0
C      1  0.5607070000000  0.4707750000000  0.4366080000000 1.0
C      1  0.4933030000000  0.5512240000000  0.4760410000000 1.0
C      1  0.4832450000000  0.5330310000000  0.4308230000000 1.0
C      1  0.5450620000000  0.5297310000000  0.5830010000000 1.0
C      1  0.4161740000000  0.5064830000000  0.4913230000000 1.0
C      1  0.5688240000000  0.5301270000000  0.4567430000000 1.0
C      1  0.4832370000000  0.4144710000000  0.5095880000000 1.0
C      1  0.5141500000000  0.4924340000000  0.4220940000000 1.0
C      1  0.4609790000000  0.5660080000000  0.5448020000000 1.0
C      1  0.5093510000000  0.4516710000000  0.5267050000000 1.0
C      1  0.4832580000000  0.4981210000000  0.5605990000000 1.0
C      1  0.5295330000000  0.4713470000000  0.5246460000000 1.0
C      1  0.4841860000000  0.5058100000000  0.4601460000000 1.0
C      1  0.5364000000000  0.5245430000000  0.5369580000000 1.0
C      1  0.4047970000000  0.4951220000000  0.5129370000000 1.0
C      1  0.4291500000000  0.5277530000000  0.5462400000000 1.0
C      1  0.5369380000000  0.4214690000000  0.4560390000000 1.0
C      1  0.5634840000000  0.5197390000000  0.5269430000000 1.0
C      1  0.5132600000000  0.4174360000000  0.4400730000000 1.0
C      1  0.4298830000000  0.4811360000000  0.5561630000000 1.0
C      1  0.4341730000000  0.5072790000000  0.4728400000000 1.0
C      1  0.4262300000000  0.4523290000000  0.5142680000000 1.0
C      1  0.4833460000000  0.5498640000000  0.5582440000000 1.0
C      1  0.5275170000000  0.4211970000000  0.4849070000000 1.0
C      1  0.5652090000000  0.5084700000000  0.5777000000000 1.0
C      1  0.5531970000000  0.5669360000000  0.5488290000000 1.0
C      1  0.5351920000000  0.5675200000000  0.4414430000000 1.0
C      1  0.5476130000000  0.5798240000000  0.5257860000000 1.0
C      1  0.4957020000000  0.5903200000000  0.5152540000000 1.0
C      1  0.4571100000000  0.4391760000000  0.5608410000000 1.0
C      1  0.5652640000000  0.4855240000000  0.5574940000000 1.0
C      1  0.5640810000000  0.4479850000000  0.5106570000000 1.0
C      1  0.5221110000000  0.4659560000000  0.5746310000000 1.0
C      1  0.4420980000000  0.5323690000000  0.4602660000000 1.0
C      1  0.4161070000000  0.5004530000000  0.5411790000000 1.0
C      1  0.4478850000000  0.5170340000000  0.5638710000000 1.0
C      1  0.4445960000000  0.4549920000000  0.4914580000000 1.0
C      1  0.5472640000000  0.4605480000000  0.4741840000000 1.0
C      1  0.4569470000000  0.4457460000000  0.5306510000000 1.0
C      1  0.4907410000000  0.4616450000000  0.4050380000000 1.0
C      1  0.4718290000000  0.5661370000000  0.4630570000000 1.0
C      1  0.5036230000000  0.4641090000000  0.4687340000000 1.0
C      1  0.5038000000000  0.5950230000000  0.4881620000000 1.0
C      1  0.4249960000000  0.4846680000000  0.4566080000000 1.0
C      1  0.5164050000000  0.5396140000000  0.5222280000000 1.0
C      1  0.5091230000000  0.5910320000000  0.4625850000000 1.0
C      1  0.4813340000000  0.5234200000000  0.5084730000000 1.0
C      1  0.4639170000000  0.5013770000000  0.5119000000000 1.0
C      1  0.5256120000000  0.4935220000000  0.5801930000000 1.0
C      1  0.4872370000000  0.4878920000000  0.4766920000000 1.0
C      1  0.5083140000000  0.5763950000000  0.4383470000000 1.0
C      1  0.5237800000000  0.4541980000000  0.4892030000000 1.0
C      1  0.4895260000000  0.4143880000000  0.4574570000000 1.0
C      1  0.4873520000000  0.4905080000000  0.4120340000000 1.0
C      1  0.5304160000000  0.5193640000000  0.4785400000000 1.0
C      1  0.4681700000000  0.5797700000000  0.5199810000000 1.0
C      1  0.4744470000000  0.5205060000000  0.5717660000000 1.0
C      1  0.4751700000000  0.4793090000000  0.5776020000000 1.0
C      1  0.4987750000000  0.4115970000000  0.4847850000000 1.0
C      1  0.4894550000000  0.5375710000000  0.5318990000000 1.0
C      1  0.5448740000000  0.4260380000000  0.5119020000000 1.0
END
