TITL C-884138-6203-328 31.9520003027703 125000 -25591.5657982928 0 0 172 (C1) n - 1
REM
REM in /home/nfs/bkarasulu/CARBON/AIRSS/Generating-Clusters/ReaxFF-fromJPCA2015/Units_Real/with-SteepDescent/Only-C1/SD-CG/Try1-3A/FIRE-CG
REM
REM
REM
REM
REM
REM ./C.cell (11c1c37f851c82e70ff6c80c92926a4b)
REM
REM compiler GCC version 9.2.1 20190827 (Red Hat 9.2.1-1)
REM options -cpp -mtune=generic -march=x86-64 -g -O0 -fpre-include=/usr/include/finclude/math-vector-fortran.h
REM seed -889025709 1326366600 -246457093 2084974975 -412979252 1443479896 -2091843469 845572836 -146317879 1080498943 -1908046637 -1121184110 601400063 829098281 -1989191606 -1819931468 1091356717 -432279451 1436699260 316736166 -2121421461 -656741162 74510936 -28434401 -43972305 -338006156 -1675991534 -234122676 1481787517 1138551223 104264617 1328015744 672566218
REM
CELL 1.54180   50.00000   50.00000   50.00000   90.00000   90.00000   90.00000
LATT -1
SFAC C  
C      1  0.4806410000000  0.4057140000000  0.4412100000000 1.0
C      1  0.5527920000000  0.5593260000000  0.4542450000000 1.0
C      1  0.5320600000000  0.4933200000000  0.4544610000000 1.0
C      1  0.5177080000000  0.5800140000000  0.4860660000000 1.0
C      1  0.5283260000000  0.4581630000000  0.4328760000000 1.0
C      1  0.5385920000000  0.4320100000000  0.5253630000000 1.0
C      1  0.5061610000000  0.4545370000000  0.4557970000000 1.0
C      1  0.5174560000000  0.5323300000000  0.4862090000000 1.0
C      1  0.5378420000000  0.5956210000000  0.4430910000000 1.0
C      1  0.4351250000000  0.5624800000000  0.5519380000000 1.0
C      1  0.4097940000000  0.5236490000000  0.5333670000000 1.0
C      1  0.4678340000000  0.5320410000000  0.4857970000000 1.0
C      1  0.4917370000000  0.4330800000000  0.5613420000000 1.0
C      1  0.4230730000000  0.4554670000000  0.4598820000000 1.0
C      1  0.5458490000000  0.5078510000000  0.5108870000000 1.0
C      1  0.5105050000000  0.4308950000000  0.5843150000000 1.0
C      1  0.4839820000000  0.5790020000000  0.4195890000000 1.0
C      1  0.4589800000000  0.5229200000000  0.5395110000000 1.0
C      1  0.3959330000000  0.4525310000000  0.4649720000000 1.0
C      1  0.5964280000000  0.5404090000000  0.5225660000000 1.0
C      1  0.4577450000000  0.4651780000000  0.3949520000000 1.0
C      1  0.4359000000000  0.5108300000000  0.5240790000000 1.0
C      1  0.4102960000000  0.5703820000000  0.5116930000000 1.0
C      1  0.5290690000000  0.4244340000000  0.4690090000000 1.0
C      1  0.4697140000000  0.5061770000000  0.4742100000000 1.0
C      1  0.4508700000000  0.4378610000000  0.4847010000000 1.0
C      1  0.5251430000000  0.5166640000000  0.4384740000000 1.0
C      1  0.5655530000000  0.5680160000000  0.5508620000000 1.0
C      1  0.4787500000000  0.4585540000000  0.4609730000000 1.0
C      1  0.5267450000000  0.5667360000000  0.4410660000000 1.0
C      1  0.4882200000000  0.5001050000000  0.4372140000000 1.0
C      1  0.5836040000000  0.5055120000000  0.4339150000000 1.0
C      1  0.4940310000000  0.5561410000000  0.5607030000000 1.0
C      1  0.6030970000000  0.4646740000000  0.4917200000000 1.0
C      1  0.4767480000000  0.6144050000000  0.4811890000000 1.0
C      1  0.4621900000000  0.4288870000000  0.4348500000000 1.0
C      1  0.5658060000000  0.4988590000000  0.4913900000000 1.0
C      1  0.5279510000000  0.5003310000000  0.4006180000000 1.0
C      1  0.4919100000000  0.5310900000000  0.5046900000000 1.0
C      1  0.4730160000000  0.4536870000000  0.5521450000000 1.0
C      1  0.5921200000000  0.5021410000000  0.4989110000000 1.0
C      1  0.5303290000000  0.5237010000000  0.6031460000000 1.0
C      1  0.4988260000000  0.5040770000000  0.3935270000000 1.0
C      1  0.5987930000000  0.5099600000000  0.4599960000000 1.0
C      1  0.5996130000000  0.5120760000000  0.5229840000000 1.0
C      1  0.5255600000000  0.6024920000000  0.4689660000000 1.0
C      1  0.4763400000000  0.5472300000000  0.4440930000000 1.0
C      1  0.3976100000000  0.5051960000000  0.5520050000000 1.0
C      1  0.5692530000000  0.5283150000000  0.4258430000000 1.0
C      1  0.4990260000000  0.5052580000000  0.5488470000000 1.0
C      1  0.5142320000000  0.5482310000000  0.6015630000000 1.0
C      1  0.5285060000000  0.4050790000000  0.4356500000000 1.0
C      1  0.6085400000000  0.4909700000000  0.4803020000000 1.0
C      1  0.5480550000000  0.5029590000000  0.5406980000000 1.0
C      1  0.4750690000000  0.4468940000000  0.4996110000000 1.0
C      1  0.4447440000000  0.4364040000000  0.5804850000000 1.0
C      1  0.4170270000000  0.4776690000000  0.5772390000000 1.0
C      1  0.4677100000000  0.4798070000000  0.4386090000000 1.0
C      1  0.4483120000000  0.6024170000000  0.5207850000000 1.0
C      1  0.5535530000000  0.4859680000000  0.5873360000000 1.0
C      1  0.4521890000000  0.4893670000000  0.4624070000000 1.0
C      1  0.4527290000000  0.5868050000000  0.5458210000000 1.0
C      1  0.4429830000000  0.5449580000000  0.5751030000000 1.0
C      1  0.4844330000000  0.4833490000000  0.5189100000000 1.0
C      1  0.4983320000000  0.6120620000000  0.4614010000000 1.0
C      1  0.5068070000000  0.5791910000000  0.5130870000000 1.0
C      1  0.4897030000000  0.3962780000000  0.4671590000000 1.0
C      1  0.4512760000000  0.4331140000000  0.5514500000000 1.0
C      1  0.5323700000000  0.4763810000000  0.5495670000000 1.0
C      1  0.3898660000000  0.4524990000000  0.4914890000000 1.0
C      1  0.5613790000000  0.5853270000000  0.4543070000000 1.0
C      1  0.5313870000000  0.5852700000000  0.5341830000000 1.0
C      1  0.4805770000000  0.4828520000000  0.3925850000000 1.0
C      1  0.5240320000000  0.5536380000000  0.4115370000000 1.0
C      1  0.5166340000000  0.5041660000000  0.4759930000000 1.0
C      1  0.4827480000000  0.5096150000000  0.5275790000000 1.0
C      1  0.5412300000000  0.4790490000000  0.4155830000000 1.0
C      1  0.5381300000000  0.5261570000000  0.5563590000000 1.0
C      1  0.4410070000000  0.4856920000000  0.4066280000000 1.0
C      1  0.4587790000000  0.5490180000000  0.5256270000000 1.0
C      1  0.5096420000000  0.5587800000000  0.4699580000000 1.0
C      1  0.3878340000000  0.4772170000000  0.4745980000000 1.0
C      1  0.5458240000000  0.4630430000000  0.4864150000000 1.0
C      1  0.5607430000000  0.5580670000000  0.5019110000000 1.0
C      1  0.5031850000000  0.4013130000000  0.4210210000000 1.0
C      1  0.5919740000000  0.5364670000000  0.4683900000000 1.0
C      1  0.4927910000000  0.6008400000000  0.5290320000000 1.0
C      1  0.4531930000000  0.5281450000000  0.4084990000000 1.0
C      1  0.4345730000000  0.5874220000000  0.4740510000000 1.0
C      1  0.4074420000000  0.4974270000000  0.4676220000000 1.0
C      1  0.4503190000000  0.5460670000000  0.4309050000000 1.0
C      1  0.4301210000000  0.4796170000000  0.4781720000000 1.0
C      1  0.5574530000000  0.4826300000000  0.4678890000000 1.0
C      1  0.4578660000000  0.6012320000000  0.4628030000000 1.0
C      1  0.5820460000000  0.4694620000000  0.5436000000000 1.0
C      1  0.5698450000000  0.4813050000000  0.4252030000000 1.0
C      1  0.4213930000000  0.5617920000000  0.4672410000000 1.0
C      1  0.4739870000000  0.5190650000000  0.6111850000000 1.0
C      1  0.5695320000000  0.4335800000000  0.4418650000000 1.0
C      1  0.5697380000000  0.4159440000000  0.4916740000000 1.0
C      1  0.4880330000000  0.4063430000000  0.5494560000000 1.0
C      1  0.5312840000000  0.4183830000000  0.5664190000000 1.0
C      1  0.4642750000000  0.4634510000000  0.5234580000000 1.0
C      1  0.5602440000000  0.4637690000000  0.5643040000000 1.0
C      1  0.5167310000000  0.4030990000000  0.5448150000000 1.0
C      1  0.5836210000000  0.4992260000000  0.5435530000000 1.0
C      1  0.4282250000000  0.5920430000000  0.5022830000000 1.0
C      1  0.5401320000000  0.3958060000000  0.4928150000000 1.0
C      1  0.5561030000000  0.4337200000000  0.5645390000000 1.0
C      1  0.5835220000000  0.4249180000000  0.4662620000000 1.0
C      1  0.5043390000000  0.4799260000000  0.5594200000000 1.0
C      1  0.4718520000000  0.5406330000000  0.5749990000000 1.0
C      1  0.5877370000000  0.5486490000000  0.4953800000000 1.0
C      1  0.5216440000000  0.4096770000000  0.5152960000000 1.0
C      1  0.4765090000000  0.3995550000000  0.4926700000000 1.0
C      1  0.5282780000000  0.4946280000000  0.5976650000000 1.0
C      1  0.4526880000000  0.4039780000000  0.5100150000000 1.0
C      1  0.4805900000000  0.5555900000000  0.4711430000000 1.0
C      1  0.5417610000000  0.4319410000000  0.4321570000000 1.0
C      1  0.4656770000000  0.4823580000000  0.5967960000000 1.0
C      1  0.4246890000000  0.5417620000000  0.4458700000000 1.0
C      1  0.4796780000000  0.5981960000000  0.4418030000000 1.0
C      1  0.4311110000000  0.5084450000000  0.4183860000000 1.0
C      1  0.4427630000000  0.5354160000000  0.5031980000000 1.0
C      1  0.4308170000000  0.5227340000000  0.5889340000000 1.0
C      1  0.4116890000000  0.5530820000000  0.5353330000000 1.0
C      1  0.4433860000000  0.4351490000000  0.4564460000000 1.0
C      1  0.4958020000000  0.4724930000000  0.4947160000000 1.0
C      1  0.4089380000000  0.5059010000000  0.5800590000000 1.0
C      1  0.4732470000000  0.6130290000000  0.5106560000000 1.0
C      1  0.4937800000000  0.4235590000000  0.4987730000000 1.0
C      1  0.4848800000000  0.5428270000000  0.6025940000000 1.0
C      1  0.5705030000000  0.5100360000000  0.5869730000000 1.0
C      1  0.5112870000000  0.4547740000000  0.6017610000000 1.0
C      1  0.4677250000000  0.4528540000000  0.4197760000000 1.0
C      1  0.4170720000000  0.4642570000000  0.5262410000000 1.0
C      1  0.4368580000000  0.4803210000000  0.5126460000000 1.0
C      1  0.5635770000000  0.4216940000000  0.5391190000000 1.0
C      1  0.4150060000000  0.5141230000000  0.4447770000000 1.0
C      1  0.5864390000000  0.5208470000000  0.5651720000000 1.0
C      1  0.5406710000000  0.5251050000000  0.4135890000000 1.0
C      1  0.4613090000000  0.4081610000000  0.5373690000000 1.0
C      1  0.4435440000000  0.4660450000000  0.5875690000000 1.0
C      1  0.4998690000000  0.4803570000000  0.5893100000000 1.0
C      1  0.5488570000000  0.4353460000000  0.4841890000000 1.0
C      1  0.4932110000000  0.5552720000000  0.4046300000000 1.0
C      1  0.5816210000000  0.4285610000000  0.5173220000000 1.0
C      1  0.5253370000000  0.4733970000000  0.5031940000000 1.0
C      1  0.4502970000000  0.5057060000000  0.6056140000000 1.0
C      1  0.5505370000000  0.5312550000000  0.5833370000000 1.0
C      1  0.4963300000000  0.5226460000000  0.4379490000000 1.0
C      1  0.5984700000000  0.4494230000000  0.4679650000000 1.0
C      1  0.4805140000000  0.5841840000000  0.5490920000000 1.0
C      1  0.5216060000000  0.3959970000000  0.4663540000000 1.0
C      1  0.5577740000000  0.5782480000000  0.5241710000000 1.0
C      1  0.5375210000000  0.5759650000000  0.5612370000000 1.0
C      1  0.4313750000000  0.4229340000000  0.5011640000000 1.0
C      1  0.4840170000000  0.5575530000000  0.5125160000000 1.0
C      1  0.4927670000000  0.4919810000000  0.4759110000000 1.0
C      1  0.4807000000000  0.5293140000000  0.3989580000000 1.0
C      1  0.5417730000000  0.5360190000000  0.5033680000000 1.0
C      1  0.5165260000000  0.5660380000000  0.5789150000000 1.0
C      1  0.4093520000000  0.4405950000000  0.5099950000000 1.0
C      1  0.5773160000000  0.4622880000000  0.4462060000000 1.0
C      1  0.5841050000000  0.5455210000000  0.5492250000000 1.0
C      1  0.5303820000000  0.4592920000000  0.5273390000000 1.0
C      1  0.4043500000000  0.4760200000000  0.5508680000000 1.0
C      1  0.4172400000000  0.5491010000000  0.4931830000000 1.0
C      1  0.5766470000000  0.5483800000000  0.4454780000000 1.0
C      1  0.5106710000000  0.5302240000000  0.5530430000000 1.0
C      1  0.5057420000000  0.4331500000000  0.4737910000000 1.0
C      1  0.5905850000000  0.4557990000000  0.5191210000000 1.0
END
