TITL C-883737-113-191 25.9579686933994 125000 -24079.9093513396 0 0 162 (C1) n - 1
REM
REM in /home/nfs/bkarasulu/CARBON/AIRSS/Generating-Clusters/ReaxFF-fromJPCA2015/Units_Real/with-SteepDescent/Only-C1/SD-CG/Try1-3A/FIRE-CG
REM
REM
REM
REM
REM
REM ./C.cell (11c1c37f851c82e70ff6c80c92926a4b)
REM
REM compiler GCC version 9.2.1 20190827 (Red Hat 9.2.1-1)
REM options -cpp -mtune=generic -march=x86-64 -g -O0 -fpre-include=/usr/include/finclude/math-vector-fortran.h
REM seed 802362166 -541080780 -1853896538 -113450054 -501302652 1003827266 801984253 -1857421569 1236400419 -1359074045 275454895 -619176436 -470388877 1181660522 -752670079 74138895 1428662075 -761697908 -1794982019 -952797986 209525107 -742245266 1453302115 1317100302 -1859293145 867800283 -675301218 1464775581 -1345599422 -1858483990 348513110 1456117804 782229397
REM
CELL 1.54180   50.00000   50.00000   50.00000   90.00000   90.00000   90.00000
LATT -1
SFAC C  
C      1  0.5189140000000  0.5554440000000  0.5185700000000 1.0
C      1  0.4961410000000  0.4008260000000  0.4880700000000 1.0
C      1  0.5730330000000  0.4286690000000  0.4540150000000 1.0
C      1  0.5159470000000  0.5224730000000  0.4404750000000 1.0
C      1  0.4695470000000  0.5751250000000  0.4254000000000 1.0
C      1  0.4771630000000  0.5008610000000  0.4161440000000 1.0
C      1  0.4548750000000  0.5460170000000  0.5820240000000 1.0
C      1  0.5197240000000  0.6116240000000  0.5290910000000 1.0
C      1  0.5602360000000  0.4391080000000  0.5601680000000 1.0
C      1  0.4214120000000  0.4463770000000  0.4559240000000 1.0
C      1  0.5375640000000  0.5490430000000  0.4743840000000 1.0
C      1  0.5202010000000  0.4624460000000  0.5441350000000 1.0
C      1  0.5914880000000  0.5018990000000  0.4658620000000 1.0
C      1  0.4685920000000  0.5097600000000  0.5580800000000 1.0
C      1  0.4697730000000  0.4715260000000  0.4601120000000 1.0
C      1  0.5938720000000  0.4647970000000  0.5338120000000 1.0
C      1  0.5313790000000  0.4373280000000  0.5524050000000 1.0
C      1  0.4489230000000  0.4680720000000  0.4845050000000 1.0
C      1  0.5766980000000  0.4403210000000  0.5368100000000 1.0
C      1  0.5833170000000  0.4910240000000  0.5416820000000 1.0
C      1  0.5191020000000  0.5094910000000  0.3832660000000 1.0
C      1  0.4304500000000  0.5252250000000  0.5231250000000 1.0
C      1  0.4829130000000  0.5454530000000  0.5954670000000 1.0
C      1  0.4435090000000  0.5357090000000  0.4377410000000 1.0
C      1  0.5335350000000  0.4465080000000  0.4559430000000 1.0
C      1  0.3954650000000  0.4908190000000  0.5034710000000 1.0
C      1  0.5339220000000  0.5605010000000  0.5841280000000 1.0
C      1  0.4362420000000  0.5044380000000  0.5450200000000 1.0
C      1  0.5453230000000  0.5111740000000  0.5754940000000 1.0
C      1  0.5237910000000  0.4021290000000  0.4383230000000 1.0
C      1  0.5427470000000  0.5782080000000  0.4587650000000 1.0
C      1  0.5004250000000  0.4528310000000  0.5021990000000 1.0
C      1  0.5337440000000  0.4320110000000  0.4999170000000 1.0
C      1  0.5612400000000  0.4561010000000  0.4144950000000 1.0
C      1  0.5098570000000  0.4334220000000  0.4870320000000 1.0
C      1  0.5287310000000  0.5087940000000  0.5269360000000 1.0
C      1  0.5052800000000  0.5617440000000  0.5851270000000 1.0
C      1  0.4767530000000  0.5963780000000  0.4857930000000 1.0
C      1  0.4686300000000  0.4047210000000  0.4809690000000 1.0
C      1  0.4773070000000  0.4811460000000  0.5229150000000 1.0
C      1  0.4121940000000  0.4933810000000  0.4319280000000 1.0
C      1  0.4632870000000  0.5286390000000  0.4171660000000 1.0
C      1  0.4789450000000  0.5518190000000  0.4094580000000 1.0
C      1  0.5534390000000  0.5586170000000  0.4375960000000 1.0
C      1  0.4358170000000  0.4910560000000  0.5862230000000 1.0
C      1  0.5870990000000  0.5310290000000  0.5427730000000 1.0
C      1  0.4904680000000  0.6136060000000  0.5324840000000 1.0
C      1  0.5623540000000  0.5732530000000  0.5290030000000 1.0
C      1  0.4816800000000  0.4472850000000  0.4495930000000 1.0
C      1  0.4291630000000  0.4344840000000  0.5389720000000 1.0
C      1  0.4029910000000  0.4868300000000  0.4752070000000 1.0
C      1  0.4910840000000  0.4342250000000  0.5216620000000 1.0
C      1  0.4308650000000  0.4789850000000  0.4188410000000 1.0
C      1  0.4320060000000  0.4915420000000  0.4767160000000 1.0
C      1  0.4750650000000  0.4703250000000  0.4034420000000 1.0
C      1  0.5897160000000  0.5171760000000  0.5188940000000 1.0
C      1  0.4198540000000  0.5386390000000  0.4772550000000 1.0
C      1  0.5567750000000  0.4440470000000  0.5125030000000 1.0
C      1  0.5290070000000  0.5448940000000  0.4272520000000 1.0
C      1  0.5364230000000  0.5769390000000  0.5190360000000 1.0
C      1  0.4759500000000  0.4645530000000  0.5966570000000 1.0
C      1  0.4565830000000  0.4186460000000  0.4337520000000 1.0
C      1  0.5050380000000  0.5966080000000  0.4800940000000 1.0
C      1  0.4998640000000  0.4470910000000  0.5914810000000 1.0
C      1  0.4278760000000  0.5758360000000  0.5171870000000 1.0
C      1  0.5504240000000  0.4887650000000  0.4902630000000 1.0
C      1  0.5535250000000  0.5382690000000  0.5794290000000 1.0
C      1  0.4327340000000  0.4779000000000  0.5320550000000 1.0
C      1  0.4939520000000  0.4940540000000  0.5707350000000 1.0
C      1  0.4535810000000  0.5170300000000  0.5835420000000 1.0
C      1  0.5554460000000  0.5892700000000  0.4834020000000 1.0
C      1  0.4060990000000  0.4700240000000  0.5213680000000 1.0
C      1  0.5644910000000  0.4832680000000  0.4133270000000 1.0
C      1  0.4543250000000  0.4699350000000  0.5145340000000 1.0
C      1  0.5616610000000  0.4890370000000  0.5621160000000 1.0
C      1  0.5071210000000  0.4457130000000  0.4634570000000 1.0
C      1  0.4892760000000  0.4906540000000  0.6009550000000 1.0
C      1  0.4421530000000  0.4419100000000  0.5653160000000 1.0
C      1  0.4415810000000  0.5185660000000  0.4758080000000 1.0
C      1  0.5781790000000  0.5719460000000  0.4883240000000 1.0
C      1  0.4499730000000  0.4640370000000  0.5831080000000 1.0
C      1  0.5453420000000  0.4191400000000  0.4586770000000 1.0
C      1  0.5135330000000  0.5483630000000  0.4901470000000 1.0
C      1  0.5303610000000  0.4596050000000  0.4111710000000 1.0
C      1  0.4586350000000  0.3973290000000  0.5434110000000 1.0
C      1  0.4737570000000  0.4149770000000  0.4502230000000 1.0
C      1  0.4950970000000  0.4082170000000  0.4380030000000 1.0
C      1  0.4705580000000  0.5422460000000  0.4994130000000 1.0
C      1  0.5280310000000  0.4574190000000  0.5905090000000 1.0
C      1  0.4166790000000  0.5223900000000  0.4376880000000 1.0
C      1  0.4851930000000  0.5283350000000  0.5424990000000 1.0
C      1  0.4304050000000  0.4396140000000  0.4849130000000 1.0
C      1  0.4308370000000  0.5523770000000  0.5355380000000 1.0
C      1  0.5251570000000  0.6002350000000  0.5550480000000 1.0
C      1  0.4366120000000  0.4388120000000  0.4315790000000 1.0
C      1  0.5869830000000  0.4287150000000  0.4793990000000 1.0
C      1  0.5901990000000  0.4727700000000  0.4605070000000 1.0
C      1  0.5257760000000  0.4896130000000  0.4765740000000 1.0
C      1  0.5455440000000  0.4070000000000  0.4909210000000 1.0
C      1  0.5530190000000  0.4721210000000  0.5125510000000 1.0
C      1  0.5388190000000  0.4823110000000  0.5349990000000 1.0
C      1  0.4917350000000  0.4703490000000  0.5456670000000 1.0
C      1  0.4584500000000  0.5184120000000  0.5003980000000 1.0
C      1  0.4664940000000  0.4228260000000  0.5631730000000 1.0
C      1  0.5011900000000  0.5021850000000  0.3980150000000 1.0
C      1  0.5928330000000  0.5213560000000  0.4881080000000 1.0
C      1  0.6096080000000  0.4643050000000  0.5082670000000 1.0
C      1  0.5893020000000  0.5477390000000  0.4742000000000 1.0
C      1  0.4000190000000  0.5352280000000  0.4574220000000 1.0
C      1  0.4911670000000  0.5216300000000  0.4557700000000 1.0
C      1  0.4463860000000  0.4161450000000  0.4940620000000 1.0
C      1  0.5819000000000  0.5171720000000  0.4425160000000 1.0
C      1  0.5320790000000  0.4972200000000  0.4479710000000 1.0
C      1  0.5137990000000  0.4139400000000  0.5566910000000 1.0
C      1  0.4770650000000  0.4441410000000  0.5436840000000 1.0
C      1  0.5590190000000  0.5044100000000  0.4303330000000 1.0
C      1  0.5535970000000  0.4617380000000  0.5781940000000 1.0
C      1  0.6009310000000  0.4552780000000  0.4815350000000 1.0
C      1  0.4698360000000  0.6062330000000  0.5117660000000 1.0
C      1  0.4534200000000  0.5806160000000  0.4698450000000 1.0
C      1  0.4862390000000  0.5186790000000  0.6059710000000 1.0
C      1  0.4048410000000  0.4697410000000  0.4514400000000 1.0
C      1  0.3944810000000  0.5347220000000  0.4862990000000 1.0
C      1  0.4452990000000  0.5981250000000  0.5264840000000 1.0
C      1  0.4158090000000  0.4435740000000  0.5146790000000 1.0
C      1  0.4380290000000  0.5771220000000  0.4909610000000 1.0
C      1  0.4521300000000  0.5904760000000  0.5539310000000 1.0
C      1  0.4038080000000  0.5183910000000  0.5084190000000 1.0
C      1  0.4148940000000  0.5000180000000  0.5688440000000 1.0
C      1  0.5774090000000  0.5470370000000  0.5643750000000 1.0
C      1  0.5542650000000  0.5385360000000  0.4953300000000 1.0
C      1  0.5020350000000  0.4814370000000  0.4919610000000 1.0
C      1  0.5710370000000  0.4193690000000  0.5018000000000 1.0
C      1  0.5017210000000  0.4597250000000  0.3999470000000 1.0
C      1  0.4783410000000  0.6017230000000  0.5566890000000 1.0
C      1  0.5001970000000  0.5810320000000  0.5607930000000 1.0
C      1  0.4417810000000  0.4105220000000  0.5249870000000 1.0
C      1  0.5769610000000  0.4543630000000  0.4402860000000 1.0
C      1  0.5133740000000  0.5898920000000  0.4545030000000 1.0
C      1  0.4758490000000  0.5498930000000  0.5255900000000 1.0
C      1  0.4944740000000  0.4230040000000  0.5760500000000 1.0
C      1  0.4970850000000  0.5667770000000  0.5332190000000 1.0
C      1  0.5447470000000  0.5842670000000  0.5696790000000 1.0
C      1  0.5687760000000  0.5742550000000  0.5567110000000 1.0
C      1  0.4782220000000  0.4964940000000  0.4478750000000 1.0
C      1  0.4983010000000  0.5834200000000  0.4304450000000 1.0
C      1  0.5308630000000  0.3791150000000  0.4291860000000 1.0
C      1  0.5181770000000  0.3959330000000  0.5053160000000 1.0
C      1  0.5742730000000  0.5537470000000  0.5113290000000 1.0
C      1  0.5778330000000  0.5454840000000  0.4471230000000 1.0
C      1  0.4475250000000  0.4593670000000  0.4112600000000 1.0
C      1  0.5074480000000  0.5606410000000  0.4144220000000 1.0
C      1  0.5312560000000  0.5973930000000  0.4997060000000 1.0
C      1  0.5134530000000  0.5251620000000  0.5440750000000 1.0
C      1  0.5444230000000  0.5136130000000  0.5044430000000 1.0
C      1  0.5056360000000  0.4082370000000  0.5284850000000 1.0
C      1  0.4834810000000  0.4997660000000  0.5044250000000 1.0
C      1  0.5288140000000  0.4682560000000  0.4386430000000 1.0
C      1  0.4509750000000  0.5644480000000  0.4447820000000 1.0
C      1  0.4442940000000  0.5617500000000  0.5596850000000 1.0
C      1  0.5171190000000  0.5121510000000  0.5687140000000 1.0
C      1  0.4891300000000  0.5404050000000  0.4790450000000 1.0
END
