TITL C-883731-9874-298 14.4025516478561 125000 -14005.9887776123 0 0 96 (C1) n - 1
REM
REM in /home/nfs/bkarasulu/CARBON/AIRSS/Generating-Clusters/ReaxFF-fromJPCA2015/Units_Real/with-SteepDescent/Only-C1/SD-CG/Try1-3A/FIRE-CG
REM
REM
REM
REM
REM
REM ./C.cell (11c1c37f851c82e70ff6c80c92926a4b)
REM
REM compiler GCC version 9.2.1 20190827 (Red Hat 9.2.1-1)
REM options -cpp -mtune=generic -march=x86-64 -g -O0 -fpre-include=/usr/include/finclude/math-vector-fortran.h
REM seed -691723589 -1266956325 -230520190 810009558 -1013999558 930360558 972538988 1752146257 1003163160 335063091 1199442681 -1952919244 989081942 1892405859 -873097813 117549822 -868760991 -1118369193 238167634 -313954266 912465046 -440770267 633617880 -2107387733 111593181 158390223 -2061213149 -1693985747 -712664317 1341818626 1053717365 -430011479 146145148
REM
CELL 1.54180   50.00000   50.00000   50.00000   90.00000   90.00000   90.00000
LATT -1
SFAC C  
C      1  0.5474580000000  0.4326780000000  0.5194170000000 1.0
C      1  0.4707650000000  0.4993920000000  0.4937380000000 1.0
C      1  0.4457150000000  0.4346440000000  0.4781840000000 1.0
C      1  0.5149850000000  0.5258370000000  0.5149360000000 1.0
C      1  0.5231040000000  0.5548290000000  0.4523040000000 1.0
C      1  0.4962530000000  0.5385270000000  0.4944190000000 1.0
C      1  0.4182550000000  0.4972380000000  0.4607370000000 1.0
C      1  0.5368750000000  0.4187060000000  0.4947550000000 1.0
C      1  0.5658680000000  0.4553590000000  0.5136410000000 1.0
C      1  0.4524030000000  0.4766890000000  0.5578920000000 1.0
C      1  0.5618750000000  0.5500150000000  0.4888590000000 1.0
C      1  0.5430450000000  0.4756360000000  0.5733830000000 1.0
C      1  0.4995780000000  0.4590370000000  0.5743090000000 1.0
C      1  0.5261390000000  0.4531950000000  0.5644600000000 1.0
C      1  0.4823340000000  0.4634990000000  0.4291580000000 1.0
C      1  0.5011260000000  0.6088140000000  0.4935780000000 1.0
C      1  0.5712130000000  0.4695970000000  0.4878450000000 1.0
C      1  0.5382370000000  0.5683740000000  0.5371380000000 1.0
C      1  0.5244390000000  0.6010070000000  0.4774920000000 1.0
C      1  0.4689560000000  0.5713340000000  0.4905320000000 1.0
C      1  0.4410760000000  0.5300170000000  0.5224940000000 1.0
C      1  0.5046410000000  0.4182490000000  0.4540830000000 1.0
C      1  0.5281960000000  0.4455990000000  0.4867620000000 1.0
C      1  0.4746210000000  0.4833730000000  0.5403520000000 1.0
C      1  0.5123280000000  0.4091840000000  0.4815730000000 1.0
C      1  0.5185410000000  0.5651120000000  0.5594060000000 1.0
C      1  0.4866020000000  0.4805500000000  0.5893300000000 1.0
C      1  0.4111040000000  0.4956110000000  0.4886040000000 1.0
C      1  0.5503240000000  0.4475550000000  0.4470350000000 1.0
C      1  0.5007910000000  0.5056290000000  0.5881260000000 1.0
C      1  0.4430310000000  0.4945350000000  0.4451650000000 1.0
C      1  0.5009190000000  0.4251330000000  0.5305820000000 1.0
C      1  0.5073680000000  0.4904200000000  0.4826440000000 1.0
C      1  0.4594790000000  0.4242940000000  0.5009080000000 1.0
C      1  0.5520430000000  0.4716720000000  0.4306160000000 1.0
C      1  0.5269340000000  0.5183500000000  0.4129530000000 1.0
C      1  0.4231420000000  0.4729330000000  0.5030890000000 1.0
C      1  0.4414100000000  0.4619480000000  0.4828570000000 1.0
C      1  0.5263590000000  0.5265680000000  0.4600550000000 1.0
C      1  0.5288470000000  0.4298600000000  0.4498050000000 1.0
C      1  0.4918540000000  0.5193780000000  0.5316670000000 1.0
C      1  0.4802780000000  0.5769790000000  0.4639050000000 1.0
C      1  0.5017630000000  0.4479270000000  0.4961760000000 1.0
C      1  0.4965800000000  0.6013910000000  0.4663550000000 1.0
C      1  0.4565150000000  0.5150440000000  0.5716700000000 1.0
C      1  0.4944160000000  0.5561370000000  0.4476550000000 1.0
C      1  0.5687460000000  0.5337350000000  0.5357300000000 1.0
C      1  0.5277040000000  0.5007560000000  0.5771780000000 1.0
C      1  0.4297220000000  0.4835510000000  0.5427560000000 1.0
C      1  0.5138640000000  0.5810890000000  0.5360450000000 1.0
C      1  0.5359450000000  0.5105870000000  0.5509240000000 1.0
C      1  0.5656900000000  0.5144980000000  0.5555960000000 1.0
C      1  0.4822000000000  0.5462560000000  0.5416660000000 1.0
C      1  0.5598030000000  0.4772890000000  0.5319880000000 1.0
C      1  0.5640060000000  0.5206190000000  0.4896330000000 1.0
C      1  0.4396860000000  0.5124500000000  0.5465710000000 1.0
C      1  0.4822240000000  0.4368010000000  0.4422720000000 1.0
C      1  0.4864060000000  0.4588720000000  0.5496300000000 1.0
C      1  0.5446940000000  0.5661090000000  0.4695660000000 1.0
C      1  0.4600860000000  0.5440350000000  0.4955730000000 1.0
C      1  0.4549650000000  0.4407640000000  0.4511860000000 1.0
C      1  0.4591750000000  0.4880940000000  0.5822260000000 1.0
C      1  0.5713580000000  0.4960690000000  0.4744750000000 1.0
C      1  0.4714290000000  0.5040660000000  0.5202960000000 1.0
C      1  0.5431450000000  0.5157990000000  0.4378730000000 1.0
C      1  0.4576520000000  0.5579640000000  0.5471970000000 1.0
C      1  0.5265270000000  0.4361450000000  0.5397860000000 1.0
C      1  0.5676150000000  0.4846320000000  0.5591750000000 1.0
C      1  0.5355200000000  0.5150870000000  0.4963050000000 1.0
C      1  0.5329040000000  0.5774950000000  0.4902090000000 1.0
C      1  0.4314380000000  0.4594280000000  0.5269180000000 1.0
C      1  0.5298790000000  0.4757390000000  0.4109320000000 1.0
C      1  0.4823790000000  0.5269200000000  0.5796300000000 1.0
C      1  0.5360930000000  0.4980860000000  0.3919770000000 1.0
C      1  0.4820420000000  0.5309860000000  0.4372000000000 1.0
C      1  0.4515900000000  0.4371640000000  0.5247970000000 1.0
C      1  0.5611410000000  0.4948200000000  0.4462350000000 1.0
C      1  0.4903550000000  0.4677170000000  0.4783830000000 1.0
C      1  0.5084510000000  0.5651640000000  0.4975300000000 1.0
C      1  0.5005680000000  0.5171270000000  0.4733040000000 1.0
C      1  0.5336070000000  0.4908230000000  0.5277760000000 1.0
C      1  0.4572870000000  0.5203220000000  0.4488960000000 1.0
C      1  0.4927860000000  0.5524430000000  0.5681590000000 1.0
C      1  0.4985430000000  0.5126480000000  0.4212770000000 1.0
C      1  0.5607030000000  0.5535700000000  0.5184080000000 1.0
C      1  0.4916430000000  0.5859290000000  0.5102720000000 1.0
C      1  0.5466970000000  0.4628550000000  0.4734350000000 1.0
C      1  0.4643470000000  0.4761800000000  0.4824930000000 1.0
C      1  0.4908570000000  0.4199440000000  0.5020970000000 1.0
C      1  0.5019370000000  0.4838200000000  0.4208250000000 1.0
C      1  0.4194750000000  0.5197670000000  0.4771140000000 1.0
C      1  0.4452520000000  0.5328530000000  0.4725190000000 1.0
C      1  0.4547270000000  0.4685330000000  0.4381690000000 1.0
C      1  0.5300440000000  0.4887690000000  0.4984700000000 1.0
C      1  0.4759750000000  0.4349130000000  0.5408410000000 1.0
C      1  0.4333390000000  0.5528650000000  0.5378400000000 1.0
END
