TITL C-884141-4321-421 16.7871602969553 125000 -24806.7753863977 0 0 168 (C1) n - 1
REM
REM in /home/nfs/bkarasulu/CARBON/AIRSS/Generating-Clusters/ReaxFF-fromJPCA2015/Units_Real/with-SteepDescent/Only-C1/SD-CG/Try1-3A/FIRE-CG
REM
REM
REM
REM
REM
REM ./C.cell (11c1c37f851c82e70ff6c80c92926a4b)
REM
REM compiler GCC version 9.2.1 20190827 (Red Hat 9.2.1-1)
REM options -cpp -mtune=generic -march=x86-64 -g -O0 -fpre-include=/usr/include/finclude/math-vector-fortran.h
REM seed 214198882 -2106977891 2109990321 1589355906 1723420141 1804978114 -1959514271 -504964742 -1223957625 -1676859634 -549885132 -1954043120 1416851239 -80667115 374900218 1283831804 -347926131 618151732 -412982759 -2004196125 1006398442 -491854596 315099339 -1430349449 -536735052 -1582714518 1686072936 1816055214 1608675240 307726639 1546471986 579779822 -1497161160
REM
CELL 1.54180   50.00000   50.00000   50.00000   90.00000   90.00000   90.00000
LATT -1
SFAC C  
C      1  0.4856010000000  0.5575220000000  0.5778000000000 1.0
C      1  0.5142030000000  0.5990800000000  0.4643580000000 1.0
C      1  0.5179920000000  0.4972220000000  0.4669350000000 1.0
C      1  0.4650570000000  0.4439450000000  0.4188840000000 1.0
C      1  0.4518160000000  0.4199730000000  0.4852940000000 1.0
C      1  0.4947420000000  0.4427950000000  0.4935930000000 1.0
C      1  0.5009720000000  0.4355300000000  0.4621260000000 1.0
C      1  0.5356490000000  0.5454380000000  0.4570240000000 1.0
C      1  0.5975000000000  0.4861510000000  0.5217690000000 1.0
C      1  0.4599160000000  0.4227550000000  0.5766870000000 1.0
C      1  0.5357460000000  0.4920230000000  0.5938350000000 1.0
C      1  0.4539220000000  0.4589290000000  0.4673890000000 1.0
C      1  0.4624540000000  0.4930460000000  0.5477530000000 1.0
C      1  0.5125440000000  0.5179560000000  0.5551470000000 1.0
C      1  0.4512500000000  0.5927280000000  0.5073990000000 1.0
C      1  0.4223450000000  0.4701090000000  0.4217270000000 1.0
C      1  0.5546890000000  0.5783330000000  0.4893700000000 1.0
C      1  0.4229110000000  0.5006990000000  0.4920980000000 1.0
C      1  0.4937790000000  0.4956440000000  0.4269990000000 1.0
C      1  0.5100090000000  0.4248080000000  0.5788520000000 1.0
C      1  0.5919870000000  0.4563370000000  0.4762720000000 1.0
C      1  0.4119060000000  0.4896770000000  0.4381560000000 1.0
C      1  0.5875260000000  0.5539150000000  0.4596980000000 1.0
C      1  0.4831030000000  0.5423710000000  0.4901830000000 1.0
C      1  0.5269020000000  0.4944730000000  0.3914750000000 1.0
C      1  0.5470510000000  0.5815430000000  0.5575490000000 1.0
C      1  0.5126670000000  0.4519890000000  0.4087170000000 1.0
C      1  0.5730610000000  0.5247350000000  0.5793670000000 1.0
C      1  0.5448390000000  0.5338790000000  0.4812320000000 1.0
C      1  0.5392320000000  0.4132590000000  0.4941400000000 1.0
C      1  0.4592900000000  0.4876600000000  0.4751020000000 1.0
C      1  0.4513520000000  0.5112730000000  0.4618740000000 1.0
C      1  0.4265210000000  0.5527230000000  0.4889020000000 1.0
C      1  0.5344140000000  0.4747590000000  0.4636760000000 1.0
C      1  0.5025920000000  0.5375590000000  0.3928570000000 1.0
C      1  0.5068860000000  0.5504490000000  0.4576570000000 1.0
C      1  0.4740540000000  0.5040120000000  0.5250560000000 1.0
C      1  0.4671000000000  0.5447910000000  0.5132840000000 1.0
C      1  0.4427820000000  0.5240390000000  0.5789730000000 1.0
C      1  0.5285130000000  0.5792360000000  0.5108170000000 1.0
C      1  0.4569540000000  0.5503580000000  0.4168100000000 1.0
C      1  0.4839250000000  0.5559530000000  0.4069450000000 1.0
C      1  0.5604890000000  0.5633750000000  0.5409680000000 1.0
C      1  0.5495410000000  0.5865330000000  0.5290160000000 1.0
C      1  0.4010290000000  0.5172660000000  0.5085850000000 1.0
C      1  0.5892500000000  0.5428030000000  0.5577420000000 1.0
C      1  0.4110010000000  0.5639430000000  0.5280770000000 1.0
C      1  0.4675990000000  0.4680070000000  0.6053430000000 1.0
C      1  0.5271720000000  0.5741400000000  0.4167770000000 1.0
C      1  0.6017920000000  0.4854030000000  0.4760960000000 1.0
C      1  0.5024430000000  0.5089270000000  0.3853000000000 1.0
C      1  0.6022550000000  0.4462910000000  0.5288910000000 1.0
C      1  0.4708570000000  0.5326840000000  0.4658090000000 1.0
C      1  0.5156610000000  0.4198820000000  0.5345480000000 1.0
C      1  0.5283670000000  0.4270460000000  0.4496270000000 1.0
C      1  0.4624620000000  0.5033520000000  0.5747290000000 1.0
C      1  0.5697160000000  0.4451930000000  0.4603750000000 1.0
C      1  0.5181940000000  0.5536820000000  0.5215470000000 1.0
C      1  0.4055730000000  0.5339130000000  0.4453440000000 1.0
C      1  0.4195670000000  0.4338130000000  0.4409440000000 1.0
C      1  0.4463260000000  0.5786710000000  0.4827200000000 1.0
C      1  0.4808610000000  0.4872820000000  0.3899040000000 1.0
C      1  0.6060000000000  0.5023820000000  0.4529410000000 1.0
C      1  0.5525130000000  0.5422370000000  0.5828890000000 1.0
C      1  0.4939830000000  0.5785290000000  0.4520050000000 1.0
C      1  0.5497860000000  0.5322750000000  0.4083090000000 1.0
C      1  0.5977540000000  0.4553910000000  0.5563730000000 1.0
C      1  0.5117900000000  0.4029660000000  0.4916410000000 1.0
C      1  0.4210820000000  0.5204350000000  0.5603040000000 1.0
C      1  0.5420350000000  0.5423210000000  0.5330630000000 1.0
C      1  0.4943410000000  0.4148370000000  0.5128770000000 1.0
C      1  0.4401910000000  0.5341260000000  0.5090600000000 1.0
C      1  0.4148520000000  0.4704190000000  0.5645010000000 1.0
C      1  0.5120310000000  0.4489910000000  0.5417010000000 1.0
C      1  0.4844530000000  0.4574560000000  0.4025780000000 1.0
C      1  0.4752080000000  0.4893710000000  0.4994950000000 1.0
C      1  0.4787390000000  0.5976230000000  0.5202400000000 1.0
C      1  0.5512830000000  0.4899200000000  0.5490440000000 1.0
C      1  0.4991710000000  0.5759940000000  0.4217790000000 1.0
C      1  0.4909750000000  0.5302310000000  0.4465540000000 1.0
C      1  0.5742980000000  0.4412550000000  0.5597560000000 1.0
C      1  0.4631720000000  0.4527950000000  0.5238550000000 1.0
C      1  0.5199880000000  0.4769420000000  0.6128190000000 1.0
C      1  0.5282940000000  0.5499380000000  0.3996900000000 1.0
C      1  0.4173300000000  0.4437430000000  0.5654230000000 1.0
C      1  0.4459110000000  0.4756170000000  0.5295950000000 1.0
C      1  0.5508510000000  0.4238980000000  0.4685800000000 1.0
C      1  0.5666040000000  0.4791100000000  0.5243630000000 1.0
C      1  0.4656920000000  0.4435310000000  0.4961990000000 1.0
C      1  0.4337670000000  0.4888130000000  0.5091040000000 1.0
C      1  0.5237640000000  0.5158830000000  0.4879280000000 1.0
C      1  0.5930140000000  0.5325100000000  0.5042810000000 1.0
C      1  0.5421250000000  0.5898020000000  0.4646550000000 1.0
C      1  0.4796580000000  0.5827580000000  0.5457570000000 1.0
C      1  0.5407740000000  0.4587270000000  0.4891730000000 1.0
C      1  0.5516570000000  0.5031850000000  0.4046790000000 1.0
C      1  0.4071920000000  0.4952740000000  0.5536100000000 1.0
C      1  0.4856200000000  0.5032380000000  0.5935230000000 1.0
C      1  0.4305850000000  0.5136350000000  0.4387970000000 1.0
C      1  0.4510560000000  0.5553530000000  0.5535620000000 1.0
C      1  0.4583110000000  0.5494680000000  0.5817300000000 1.0
C      1  0.4800030000000  0.5541280000000  0.5380270000000 1.0
C      1  0.5052990000000  0.6200040000000  0.4842330000000 1.0
C      1  0.5116120000000  0.5484400000000  0.5844480000000 1.0
C      1  0.5483790000000  0.5823460000000  0.4369800000000 1.0
C      1  0.5696780000000  0.4952870000000  0.5755050000000 1.0
C      1  0.4620640000000  0.5041010000000  0.4018090000000 1.0
C      1  0.5118150000000  0.5144660000000  0.5841810000000 1.0
C      1  0.5656980000000  0.4877290000000  0.4247000000000 1.0
C      1  0.5528010000000  0.4282490000000  0.5548860000000 1.0
C      1  0.4093450000000  0.4802330000000  0.4676100000000 1.0
C      1  0.5390430000000  0.5170990000000  0.5454230000000 1.0
C      1  0.5526270000000  0.4525170000000  0.5128510000000 1.0
C      1  0.5027300000000  0.4063420000000  0.5589220000000 1.0
C      1  0.4180070000000  0.4288690000000  0.5382000000000 1.0
C      1  0.4352290000000  0.4457970000000  0.4165990000000 1.0
C      1  0.4012770000000  0.5473890000000  0.5062700000000 1.0
C      1  0.3939820000000  0.4677590000000  0.5108560000000 1.0
C      1  0.4500390000000  0.5856640000000  0.5494220000000 1.0
C      1  0.5651250000000  0.5244260000000  0.4992790000000 1.0
C      1  0.5365390000000  0.5644430000000  0.5793440000000 1.0
C      1  0.4098000000000  0.4404520000000  0.5141390000000 1.0
C      1  0.4834100000000  0.4501270000000  0.5430240000000 1.0
C      1  0.5947430000000  0.4842620000000  0.5656700000000 1.0
C      1  0.4386080000000  0.4108930000000  0.5240520000000 1.0
C      1  0.3840840000000  0.4709220000000  0.4836860000000 1.0
C      1  0.4996720000000  0.5049820000000  0.4480110000000 1.0
C      1  0.5003390000000  0.5111000000000  0.5298430000000 1.0
C      1  0.4968950000000  0.4709860000000  0.5023950000000 1.0
C      1  0.5559540000000  0.4981400000000  0.5048850000000 1.0
C      1  0.4462140000000  0.5643550000000  0.4408220000000 1.0
C      1  0.4729150000000  0.4051620000000  0.5566690000000 1.0
C      1  0.4409230000000  0.4446970000000  0.5838540000000 1.0
C      1  0.5553650000000  0.5414050000000  0.4355980000000 1.0
C      1  0.5061460000000  0.5323090000000  0.5051050000000 1.0
C      1  0.4249790000000  0.4537180000000  0.4629310000000 1.0
C      1  0.5557270000000  0.4619930000000  0.4387620000000 1.0
C      1  0.5981850000000  0.4480910000000  0.5026730000000 1.0
C      1  0.4667400000000  0.4113170000000  0.4622640000000 1.0
C      1  0.5720710000000  0.5655160000000  0.4373330000000 1.0
C      1  0.5117830000000  0.4847510000000  0.5223970000000 1.0
C      1  0.4670640000000  0.4066780000000  0.5287320000000 1.0
C      1  0.4710930000000  0.4380440000000  0.4480300000000 1.0
C      1  0.4305400000000  0.5861650000000  0.5275950000000 1.0
C      1  0.5341940000000  0.4435140000000  0.4269270000000 1.0
C      1  0.4272790000000  0.5404980000000  0.5383780000000 1.0
C      1  0.4221680000000  0.5537280000000  0.4571450000000 1.0
C      1  0.5955830000000  0.5280090000000  0.4482810000000 1.0
C      1  0.5360680000000  0.4363100000000  0.5780980000000 1.0
C      1  0.5776120000000  0.5609190000000  0.4861200000000 1.0
C      1  0.4955790000000  0.4063090000000  0.4670900000000 1.0
C      1  0.4635670000000  0.4628400000000  0.5781840000000 1.0
C      1  0.6066750000000  0.5008030000000  0.5448020000000 1.0
C      1  0.5526770000000  0.4831690000000  0.4810240000000 1.0
C      1  0.4621740000000  0.5791190000000  0.4587700000000 1.0
C      1  0.4457920000000  0.5238850000000  0.4128250000000 1.0
C      1  0.5043330000000  0.6002510000000  0.5068180000000 1.0
C      1  0.5869680000000  0.5053270000000  0.4325250000000 1.0
C      1  0.6032980000000  0.5032740000000  0.4988520000000 1.0
C      1  0.4261710000000  0.4194820000000  0.4984750000000 1.0
C      1  0.5273490000000  0.4728460000000  0.5423220000000 1.0
C      1  0.5157650000000  0.4806530000000  0.4152870000000 1.0
C      1  0.3943320000000  0.4946440000000  0.5257450000000 1.0
C      1  0.6008060000000  0.5286680000000  0.5339930000000 1.0
C      1  0.5467760000000  0.4248570000000  0.5214390000000 1.0
C      1  0.4893240000000  0.4829160000000  0.6146770000000 1.0
C      1  0.4819810000000  0.4410460000000  0.5709660000000 1.0
C      1  0.5372230000000  0.4627270000000  0.5946830000000 1.0
END
