TITL C-883734-4173-108 18.9054163987153 125000 -23600.1591649303 0 0 156 (C1) n - 1
REM
REM in /home/nfs/bkarasulu/CARBON/AIRSS/Generating-Clusters/ReaxFF-fromJPCA2015/Units_Real/with-SteepDescent/Only-C1/SD-CG/Try1-3A/FIRE-CG
REM
REM
REM
REM
REM
REM ./C.cell (11c1c37f851c82e70ff6c80c92926a4b)
REM
REM compiler GCC version 9.2.1 20190827 (Red Hat 9.2.1-1)
REM options -cpp -mtune=generic -march=x86-64 -g -O0 -fpre-include=/usr/include/finclude/math-vector-fortran.h
REM seed 1283010771 1636599147 -2100580638 -1113520999 -910795438 -1762427511 611869770 -1645477052 -135356050 -1379068601 -1423170992 184900047 -206828043 272004670 -1992632709 932932208 480704607 24533762 2032936119 -1184149021 -1388003699 -1371123357 -1282832463 -323274206 1640225424 -1222570420 401084896 1706905122 921249040 1837185185 -2071999181 274430225 598883658
REM
CELL 1.54180   50.00000   50.00000   50.00000   90.00000   90.00000   90.00000
LATT -1
SFAC C  
C      1  0.5629630000000  0.5748780000000  0.5430040000000 1.0
C      1  0.5656510000000  0.4663050000000  0.5840790000000 1.0
C      1  0.4624120000000  0.4384810000000  0.4994560000000 1.0
C      1  0.6075290000000  0.4892000000000  0.5292830000000 1.0
C      1  0.5007270000000  0.4075080000000  0.5560900000000 1.0
C      1  0.4665840000000  0.5577220000000  0.5772980000000 1.0
C      1  0.4527080000000  0.4498600000000  0.5232750000000 1.0
C      1  0.4176380000000  0.5677410000000  0.4692780000000 1.0
C      1  0.5281030000000  0.5313030000000  0.4560150000000 1.0
C      1  0.4080960000000  0.4493900000000  0.4546200000000 1.0
C      1  0.5560560000000  0.4183110000000  0.4725440000000 1.0
C      1  0.4715320000000  0.5453800000000  0.3861820000000 1.0
C      1  0.3935190000000  0.4913380000000  0.5131700000000 1.0
C      1  0.5545540000000  0.4533880000000  0.4137450000000 1.0
C      1  0.5868250000000  0.5305250000000  0.5555330000000 1.0
C      1  0.4693000000000  0.5215780000000  0.5364560000000 1.0
C      1  0.5282400000000  0.4577120000000  0.5144350000000 1.0
C      1  0.5774310000000  0.5746520000000  0.4706730000000 1.0
C      1  0.5901320000000  0.5499850000000  0.4777440000000 1.0
C      1  0.4593290000000  0.4944940000000  0.5465870000000 1.0
C      1  0.5646660000000  0.5793410000000  0.5154850000000 1.0
C      1  0.5191140000000  0.5604600000000  0.4960190000000 1.0
C      1  0.5466080000000  0.4461680000000  0.5908450000000 1.0
C      1  0.4887230000000  0.4973910000000  0.5857250000000 1.0
C      1  0.4111060000000  0.4597260000000  0.5378750000000 1.0
C      1  0.5450800000000  0.5036720000000  0.4622460000000 1.0
C      1  0.5201650000000  0.4686200000000  0.5597360000000 1.0
C      1  0.4482470000000  0.5487230000000  0.4212250000000 1.0
C      1  0.4303100000000  0.5767750000000  0.5135590000000 1.0
C      1  0.5578960000000  0.5179070000000  0.5073560000000 1.0
C      1  0.5015550000000  0.5900030000000  0.5362210000000 1.0
C      1  0.5463340000000  0.4084360000000  0.4991420000000 1.0
C      1  0.4333350000000  0.5858550000000  0.4856070000000 1.0
C      1  0.5407610000000  0.4230880000000  0.4475340000000 1.0
C      1  0.4306530000000  0.5443090000000  0.5595280000000 1.0
C      1  0.5768800000000  0.5070180000000  0.4623820000000 1.0
C      1  0.5632760000000  0.5194420000000  0.4169320000000 1.0
C      1  0.5700010000000  0.4746680000000  0.5333410000000 1.0
C      1  0.4874450000000  0.5098470000000  0.4774580000000 1.0
C      1  0.5501010000000  0.4220540000000  0.5729520000000 1.0
C      1  0.4719480000000  0.5395590000000  0.4695450000000 1.0
C      1  0.4522520000000  0.4539870000000  0.5777790000000 1.0
C      1  0.4467940000000  0.4905980000000  0.4957500000000 1.0
C      1  0.4440640000000  0.5324000000000  0.4673430000000 1.0
C      1  0.5424610000000  0.5200690000000  0.5456180000000 1.0
C      1  0.5841600000000  0.4370830000000  0.5068700000000 1.0
C      1  0.4557620000000  0.4689800000000  0.4517600000000 1.0
C      1  0.5832180000000  0.5538990000000  0.4500600000000 1.0
C      1  0.4087670000000  0.4721260000000  0.4383280000000 1.0
C      1  0.5530320000000  0.4306790000000  0.5444730000000 1.0
C      1  0.4572370000000  0.4067840000000  0.4695730000000 1.0
C      1  0.4310180000000  0.4381800000000  0.5393230000000 1.0
C      1  0.4413990000000  0.4247320000000  0.4850650000000 1.0
C      1  0.4973390000000  0.5304970000000  0.5313720000000 1.0
C      1  0.5778050000000  0.5267890000000  0.4392140000000 1.0
C      1  0.4164460000000  0.4845170000000  0.5521060000000 1.0
C      1  0.4211740000000  0.4980080000000  0.4423450000000 1.0
C      1  0.5292970000000  0.4366390000000  0.4244660000000 1.0
C      1  0.5913520000000  0.4607590000000  0.5241420000000 1.0
C      1  0.4133070000000  0.5348710000000  0.5380680000000 1.0
C      1  0.6066330000000  0.5073780000000  0.5061590000000 1.0
C      1  0.4367330000000  0.5189280000000  0.4928600000000 1.0
C      1  0.4759860000000  0.5640560000000  0.4615570000000 1.0
C      1  0.4020860000000  0.5520660000000  0.4874930000000 1.0
C      1  0.5029120000000  0.4776130000000  0.4108330000000 1.0
C      1  0.5583370000000  0.5008450000000  0.5307180000000 1.0
C      1  0.4811860000000  0.5008430000000  0.4507370000000 1.0
C      1  0.4715500000000  0.4527580000000  0.5998640000000 1.0
C      1  0.4432830000000  0.4844580000000  0.5699300000000 1.0
C      1  0.5641600000000  0.4196480000000  0.5192810000000 1.0
C      1  0.5406080000000  0.5520120000000  0.5810380000000 1.0
C      1  0.4956510000000  0.4711150000000  0.5989300000000 1.0
C      1  0.5095950000000  0.5164140000000  0.5998730000000 1.0
C      1  0.4722790000000  0.3969610000000  0.4929290000000 1.0
C      1  0.5030160000000  0.4625940000000  0.5096740000000 1.0
C      1  0.4516640000000  0.5829180000000  0.5322940000000 1.0
C      1  0.5790610000000  0.4353870000000  0.4783790000000 1.0
C      1  0.5380860000000  0.5008350000000  0.4912890000000 1.0
C      1  0.4804150000000  0.6039330000000  0.4957920000000 1.0
C      1  0.4486330000000  0.5295420000000  0.3994580000000 1.0
C      1  0.5031710000000  0.3942780000000  0.5286000000000 1.0
C      1  0.4749860000000  0.4965470000000  0.5005430000000 1.0
C      1  0.5729270000000  0.4552850000000  0.4337610000000 1.0
C      1  0.5488420000000  0.5044490000000  0.4015330000000 1.0
C      1  0.4081490000000  0.5226150000000  0.4476730000000 1.0
C      1  0.5341060000000  0.6090750000000  0.4856910000000 1.0
C      1  0.4770090000000  0.4857240000000  0.3959200000000 1.0
C      1  0.5038340000000  0.5548850000000  0.4251960000000 1.0
C      1  0.4951460000000  0.5628310000000  0.5793950000000 1.0
C      1  0.5029110000000  0.4917710000000  0.5545500000000 1.0
C      1  0.5566170000000  0.4802790000000  0.4050230000000 1.0
C      1  0.3916240000000  0.5078420000000  0.4921220000000 1.0
C      1  0.5198300000000  0.4599650000000  0.5869470000000 1.0
C      1  0.4556480000000  0.5007250000000  0.4076740000000 1.0
C      1  0.5150430000000  0.5162490000000  0.5467840000000 1.0
C      1  0.4773460000000  0.4337140000000  0.4275280000000 1.0
C      1  0.4120490000000  0.5540130000000  0.5154500000000 1.0
C      1  0.4524880000000  0.5277350000000  0.5144750000000 1.0
C      1  0.5088130000000  0.5369490000000  0.5054290000000 1.0
C      1  0.6067630000000  0.4878320000000  0.4884480000000 1.0
C      1  0.4506370000000  0.5323810000000  0.5794340000000 1.0
C      1  0.4755460000000  0.5583810000000  0.4135460000000 1.0
C      1  0.5200840000000  0.5819190000000  0.5161360000000 1.0
C      1  0.5880820000000  0.4542200000000  0.4566170000000 1.0
C      1  0.4533000000000  0.4972790000000  0.4384200000000 1.0
C      1  0.5626550000000  0.5069460000000  0.5923120000000 1.0
C      1  0.4589840000000  0.5055300000000  0.5858640000000 1.0
C      1  0.5054630000000  0.6061180000000  0.4794260000000 1.0
C      1  0.5231320000000  0.4169710000000  0.5702390000000 1.0
C      1  0.4230770000000  0.4473270000000  0.4313540000000 1.0
C      1  0.5825740000000  0.5230910000000  0.4913810000000 1.0
C      1  0.5009740000000  0.4132250000000  0.4613730000000 1.0
C      1  0.5260360000000  0.5582530000000  0.4672690000000 1.0
C      1  0.5291140000000  0.4579810000000  0.4685020000000 1.0
C      1  0.5806450000000  0.5535170000000  0.5415940000000 1.0
C      1  0.5810660000000  0.4880670000000  0.5776610000000 1.0
C      1  0.4059920000000  0.5060060000000  0.5371660000000 1.0
C      1  0.5582830000000  0.5292010000000  0.5700500000000 1.0
C      1  0.4196040000000  0.4484260000000  0.4810120000000 1.0
C      1  0.4769320000000  0.4129220000000  0.4478420000000 1.0
C      1  0.5138920000000  0.5727830000000  0.4456500000000 1.0
C      1  0.4716080000000  0.5907530000000  0.4543960000000 1.0
C      1  0.4995890000000  0.5960810000000  0.4533560000000 1.0
C      1  0.5356870000000  0.5085190000000  0.5984180000000 1.0
C      1  0.5295490000000  0.6080630000000  0.5131470000000 1.0
C      1  0.5352200000000  0.4532890000000  0.5401830000000 1.0
C      1  0.5239200000000  0.5067920000000  0.4103180000000 1.0
C      1  0.5589230000000  0.5887620000000  0.4902380000000 1.0
C      1  0.4884510000000  0.4470750000000  0.4907350000000 1.0
C      1  0.4020890000000  0.4610810000000  0.5078320000000 1.0
C      1  0.4999510000000  0.3961170000000  0.4833150000000 1.0
C      1  0.5059290000000  0.4392840000000  0.4701550000000 1.0
C      1  0.4519800000000  0.4488600000000  0.4307500000000 1.0
C      1  0.5105840000000  0.5797530000000  0.5614790000000 1.0
C      1  0.5384360000000  0.5735400000000  0.5634570000000 1.0
C      1  0.5198880000000  0.3973900000000  0.5044750000000 1.0
C      1  0.4577030000000  0.6006750000000  0.4786010000000 1.0
C      1  0.5024770000000  0.4467060000000  0.4193380000000 1.0
C      1  0.4765170000000  0.5948300000000  0.5229990000000 1.0
C      1  0.4272870000000  0.5473740000000  0.4470730000000 1.0
C      1  0.4716200000000  0.4139620000000  0.5483210000000 1.0
C      1  0.5175570000000  0.5298040000000  0.4276480000000 1.0
C      1  0.4474900000000  0.5684850000000  0.5574490000000 1.0
C      1  0.5383800000000  0.4705120000000  0.4932960000000 1.0
C      1  0.5948190000000  0.5018210000000  0.5529300000000 1.0
C      1  0.5138160000000  0.5182420000000  0.4848210000000 1.0
C      1  0.5958910000000  0.4828080000000  0.4641070000000 1.0
C      1  0.4501060000000  0.4305670000000  0.5600910000000 1.0
C      1  0.5021260000000  0.4852300000000  0.4397250000000 1.0
C      1  0.4405300000000  0.4697000000000  0.4762810000000 1.0
C      1  0.4890710000000  0.4829990000000  0.5226950000000 1.0
C      1  0.5285470000000  0.4811920000000  0.4512740000000 1.0
C      1  0.4672200000000  0.4712360000000  0.5339100000000 1.0
C      1  0.4748430000000  0.3984270000000  0.5232130000000 1.0
C      1  0.3921110000000  0.5271230000000  0.4731520000000 1.0
C      1  0.5144180000000  0.5449240000000  0.5923100000000 1.0
END
