TITL C-883731-9874-363 220.605716758818 125000 -23034.5382923169 0 0 158 (C1) n - 1
REM
REM in /home/nfs/bkarasulu/CARBON/AIRSS/Generating-Clusters/ReaxFF-fromJPCA2015/Units_Real/with-SteepDescent/Only-C1/SD-CG/Try1-3A/FIRE-CG
REM
REM
REM
REM
REM
REM ./C.cell (11c1c37f851c82e70ff6c80c92926a4b)
REM
REM compiler GCC version 9.2.1 20190827 (Red Hat 9.2.1-1)
REM options -cpp -mtune=generic -march=x86-64 -g -O0 -fpre-include=/usr/include/finclude/math-vector-fortran.h
REM seed 1235020331 730211860 1093046052 -419662249 -1515980780 -1856332413 83766727 1565133855 -916213308 -1374306707 -212637712 119734290 -1058094430 1128632033 -584661775 693663423 -879824568 -1412218389 1932868111 -1409830360 -1378702225 -270277367 1168527749 -1804368921 -664342919 1768819284 -2022474017 -346165827 -1976908712 931510529 -1026799318 -890903796 1066177688
REM
CELL 1.54180   50.00000   50.00000   50.00000   90.00000   90.00000   90.00000
LATT -1
SFAC C  
C      1  0.5398010000000  0.4802020000000  0.5328790000000 1.0
C      1  0.4850090000000  0.4353140000000  0.4270030000000 1.0
C      1  0.5385090000000  0.5793310000000  0.5266330000000 1.0
C      1  0.4145010000000  0.5634810000000  0.5300540000000 1.0
C      1  0.5358280000000  0.4328160000000  0.4345170000000 1.0
C      1  0.4741740000000  0.5353080000000  0.4678010000000 1.0
C      1  0.5832650000000  0.5242680000000  0.5621440000000 1.0
C      1  0.6138960000000  0.5124320000000  0.4704370000000 1.0
C      1  0.5750780000000  0.5194900000000  0.4980370000000 1.0
C      1  0.5238540000000  0.4857200000000  0.4385440000000 1.0
C      1  0.5019500000000  0.4930890000000  0.4561330000000 1.0
C      1  0.5126950000000  0.5444830000000  0.5076890000000 1.0
C      1  0.4872560000000  0.3941270000000  0.5284230000000 1.0
C      1  0.5164870000000  0.4380680000000  0.5182950000000 1.0
C      1  0.4259320000000  0.4883290000000  0.4286160000000 1.0
C      1  0.4260470000000  0.4622820000000  0.4460850000000 1.0
C      1  0.5113670000000  0.4375410000000  0.5835750000000 1.0
C      1  0.5634540000000  0.4997720000000  0.4624060000000 1.0
C      1  0.4529560000000  0.4907690000000  0.4729770000000 1.0
C      1  0.5345090000000  0.4560080000000  0.5884650000000 1.0
C      1  0.4753760000000  0.4767990000000  0.5534080000000 1.0
C      1  0.4724090000000  0.4930210000000  0.5091480000000 1.0
C      1  0.4143290000000  0.5331650000000  0.4525850000000 1.0
C      1  0.4900400000000  0.5461230000000  0.5257410000000 1.0
C      1  0.4127360000000  0.4590230000000  0.4742240000000 1.0
C      1  0.5597610000000  0.4497940000000  0.5736820000000 1.0
C      1  0.5564780000000  0.4196630000000  0.5295180000000 1.0
C      1  0.4925120000000  0.4394990000000  0.5011000000000 1.0
C      1  0.4835830000000  0.4445130000000  0.5876590000000 1.0
C      1  0.4830060000000  0.4804370000000  0.4091660000000 1.0
C      1  0.4606150000000  0.5365930000000  0.4928610000000 1.0
C      1  0.5749710000000  0.4911380000000  0.5034500000000 1.0
C      1  0.4489900000000  0.4150700000000  0.5216780000000 1.0
C      1  0.4011840000000  0.5356530000000  0.5271870000000 1.0
C      1  0.5937260000000  0.4927100000000  0.5259550000000 1.0
C      1  0.4105070000000  0.4492630000000  0.5258390000000 1.0
C      1  0.4438990000000  0.5098270000000  0.5399550000000 1.0
C      1  0.4658030000000  0.4528300000000  0.5033890000000 1.0
C      1  0.4733910000000  0.5845580000000  0.5550500000000 1.0
C      1  0.4631670000000  0.4709850000000  0.5256890000000 1.0
C      1  0.3939810000000  0.5003960000000  0.4897650000000 1.0
C      1  0.4046420000000  0.5162010000000  0.5482130000000 1.0
C      1  0.4062050000000  0.4784840000000  0.5334100000000 1.0
C      1  0.4686560000000  0.5588080000000  0.5108340000000 1.0
C      1  0.5857630000000  0.5646930000000  0.5149160000000 1.0
C      1  0.5116610000000  0.6032750000000  0.4854390000000 1.0
C      1  0.5503870000000  0.5329250000000  0.4955130000000 1.0
C      1  0.5245460000000  0.5251620000000  0.5257420000000 1.0
C      1  0.4561000000000  0.5864100000000  0.4533930000000 1.0
C      1  0.4495370000000  0.5048380000000  0.4296100000000 1.0
C      1  0.4552050000000  0.4228220000000  0.4648730000000 1.0
C      1  0.5986270000000  0.5198800000000  0.5380410000000 1.0
C      1  0.5263180000000  0.5262020000000  0.4180860000000 1.0
C      1  0.4086470000000  0.5426710000000  0.4788370000000 1.0
C      1  0.4506580000000  0.5676160000000  0.5683410000000 1.0
C      1  0.5516980000000  0.4989630000000  0.5505900000000 1.0
C      1  0.3872670000000  0.4961590000000  0.4609070000000 1.0
C      1  0.5643930000000  0.5700660000000  0.5338940000000 1.0
C      1  0.5482610000000  0.5248620000000  0.5407300000000 1.0
C      1  0.5931160000000  0.4994040000000  0.4566060000000 1.0
C      1  0.4658980000000  0.4289670000000  0.5689350000000 1.0
C      1  0.4390030000000  0.4380460000000  0.5634090000000 1.0
C      1  0.4543340000000  0.4509210000000  0.4507620000000 1.0
C      1  0.4909050000000  0.5577350000000  0.4245290000000 1.0
C      1  0.4062940000000  0.5072910000000  0.4408320000000 1.0
C      1  0.5749520000000  0.4292870000000  0.5093150000000 1.0
C      1  0.5728510000000  0.5614010000000  0.4615740000000 1.0
C      1  0.4648570000000  0.5932830000000  0.4804870000000 1.0
C      1  0.5352140000000  0.4614330000000  0.4752130000000 1.0
C      1  0.6035610000000  0.5423130000000  0.5198050000000 1.0
C      1  0.5176890000000  0.5333480000000  0.5776010000000 1.0
C      1  0.4761050000000  0.4717250000000  0.5986030000000 1.0
C      1  0.5148090000000  0.3889590000000  0.5330240000000 1.0
C      1  0.4244280000000  0.4569610000000  0.5008120000000 1.0
C      1  0.4279130000000  0.4289200000000  0.5372240000000 1.0
C      1  0.4674800000000  0.5249660000000  0.5930650000000 1.0
C      1  0.4119520000000  0.4843200000000  0.5057590000000 1.0
C      1  0.4263060000000  0.5798200000000  0.5082920000000 1.0
C      1  0.5699900000000  0.5555430000000  0.4328500000000 1.0
C      1  0.4296800000000  0.5233580000000  0.5618660000000 1.0
C      1  0.4850080000000  0.5010370000000  0.5997670000000 1.0
C      1  0.5465870000000  0.4325250000000  0.5543730000000 1.0
C      1  0.4803620000000  0.5118370000000  0.4028980000000 1.0
C      1  0.5130380000000  0.4826160000000  0.5281220000000 1.0
C      1  0.4329470000000  0.4664900000000  0.5689180000000 1.0
C      1  0.5162330000000  0.4372020000000  0.5543940000000 1.0
C      1  0.4803140000000  0.3955450000000  0.4985970000000 1.0
C      1  0.4740790000000  0.5958200000000  0.5277360000000 1.0
C      1  0.5888680000000  0.5607040000000  0.4856670000000 1.0
C      1  0.5319840000000  0.4063970000000  0.4837860000000 1.0
C      1  0.6014210000000  0.5342790000000  0.4914690000000 1.0
C      1  0.5950890000000  0.4697440000000  0.4462760000000 1.0
C      1  0.4966660000000  0.5465680000000  0.5584840000000 1.0
C      1  0.5369760000000  0.5825000000000  0.4510260000000 1.0
C      1  0.5360870000000  0.5546100000000  0.5716690000000 1.0
C      1  0.5509790000000  0.5735390000000  0.4743040000000 1.0
C      1  0.5479190000000  0.5711950000000  0.4266290000000 1.0
C      1  0.5539140000000  0.4697840000000  0.4970570000000 1.0
C      1  0.4248610000000  0.4845780000000  0.4679750000000 1.0
C      1  0.4783250000000  0.5270450000000  0.5660610000000 1.0
C      1  0.5967810000000  0.4460190000000  0.5200980000000 1.0
C      1  0.5405110000000  0.4569910000000  0.5182960000000 1.0
C      1  0.5058330000000  0.4669770000000  0.5554110000000 1.0
C      1  0.5377810000000  0.5615320000000  0.5003120000000 1.0
C      1  0.5120590000000  0.4424350000000  0.4194610000000 1.0
C      1  0.3972930000000  0.5273960000000  0.4997480000000 1.0
C      1  0.4474370000000  0.5519060000000  0.4179580000000 1.0
C      1  0.5803670000000  0.4750990000000  0.4236130000000 1.0
C      1  0.4995700000000  0.5762860000000  0.5644990000000 1.0
C      1  0.5201730000000  0.4798620000000  0.5782670000000 1.0
C      1  0.5159250000000  0.5151400000000  0.4655340000000 1.0
C      1  0.4977290000000  0.4271450000000  0.4745930000000 1.0
C      1  0.6081450000000  0.4517330000000  0.4929060000000 1.0
C      1  0.4997980000000  0.5935230000000  0.5123520000000 1.0
C      1  0.4283760000000  0.4852130000000  0.5474360000000 1.0
C      1  0.5425570000000  0.5154210000000  0.4743780000000 1.0
C      1  0.5469470000000  0.4781200000000  0.4539560000000 1.0
C      1  0.4303680000000  0.5749970000000  0.4572460000000 1.0
C      1  0.4693960000000  0.5088040000000  0.4555500000000 1.0
C      1  0.4842440000000  0.5761330000000  0.4945830000000 1.0
C      1  0.4967020000000  0.5547710000000  0.4543270000000 1.0
C      1  0.5945840000000  0.4676760000000  0.5408330000000 1.0
C      1  0.5324350000000  0.4090230000000  0.5148320000000 1.0
C      1  0.4851200000000  0.5050230000000  0.5520840000000 1.0
C      1  0.5175960000000  0.5351250000000  0.4462840000000 1.0
C      1  0.5569770000000  0.4731260000000  0.4077780000000 1.0
C      1  0.4997370000000  0.4866490000000  0.5015710000000 1.0
C      1  0.5529390000000  0.4465850000000  0.4173410000000 1.0
C      1  0.5107140000000  0.5841990000000  0.4628210000000 1.0
C      1  0.4677180000000  0.4130930000000  0.5437480000000 1.0
C      1  0.5920380000000  0.4481850000000  0.4676680000000 1.0
C      1  0.5433080000000  0.4288540000000  0.4668570000000 1.0
C      1  0.5305500000000  0.4900120000000  0.4102800000000 1.0
C      1  0.5620860000000  0.5468560000000  0.5562230000000 1.0
C      1  0.5056670000000  0.5067030000000  0.5347880000000 1.0
C      1  0.4988050000000  0.5335720000000  0.4088320000000 1.0
C      1  0.4694800000000  0.4588870000000  0.4238670000000 1.0
C      1  0.4657430000000  0.5715810000000  0.4287170000000 1.0
C      1  0.5485760000000  0.5460860000000  0.4156340000000 1.0
C      1  0.4518270000000  0.5954760000000  0.5074470000000 1.0
C      1  0.4545380000000  0.5244240000000  0.4086170000000 1.0
C      1  0.4336100000000  0.5677430000000  0.5487100000000 1.0
C      1  0.4189380000000  0.5687950000000  0.4826340000000 1.0
C      1  0.5040800000000  0.3987060000000  0.4799330000000 1.0
C      1  0.4559970000000  0.4789770000000  0.5798600000000 1.0
C      1  0.4566580000000  0.4104110000000  0.4918100000000 1.0
C      1  0.5731360000000  0.4979070000000  0.5701560000000 1.0
C      1  0.4272590000000  0.5537760000000  0.4385540000000 1.0
C      1  0.4607010000000  0.5181720000000  0.5169020000000 1.0
C      1  0.4445500000000  0.5403750000000  0.5823940000000 1.0
C      1  0.5124350000000  0.5063610000000  0.5895800000000 1.0
C      1  0.5091750000000  0.4692860000000  0.4043250000000 1.0
C      1  0.5804960000000  0.4695200000000  0.5662950000000 1.0
C      1  0.4802430000000  0.4183890000000  0.4516810000000 1.0
C      1  0.5271120000000  0.5773970000000  0.5541220000000 1.0
C      1  0.5034000000000  0.4734880000000  0.4768920000000 1.0
C      1  0.4686230000000  0.4659320000000  0.4753430000000 1.0
C      1  0.5705610000000  0.4321850000000  0.4791620000000 1.0
END
