TITL C-884142-5251-315 2.39455728150006 125000 -2453.43388478971 0 0 18 (C1) n - 1
REM
REM in /home/nfs/bkarasulu/CARBON/AIRSS/Generating-Clusters/ReaxFF-fromJPCA2015/Units_Real/with-SteepDescent/Only-C1/SD-CG/Try1-3A/FIRE-CG
REM
REM
REM
REM
REM
REM ./C.cell (11c1c37f851c82e70ff6c80c92926a4b)
REM
REM compiler GCC version 9.2.1 20190827 (Red Hat 9.2.1-1)
REM options -cpp -mtune=generic -march=x86-64 -g -O0 -fpre-include=/usr/include/finclude/math-vector-fortran.h
REM seed 127834854 53653593 93672926 -151173937 -1229956039 -1297041075 -187693319 -720162289 169711082 -2102426102 -1287975284 -275065313 2052218539 -245687451 1072299142 -31196273 1727788786 -1603675214 -407091109 -1094818344 -1562358918 721134720 408630608 1809985105 -1246307144 -794820441 1894171247 1546283511 1227490609 -648211948 -1545714926 -1745794682 -607605666
REM
CELL 1.54180   50.00000   50.00000   50.00000   90.00000   90.00000   90.00000
LATT -1
SFAC C  
C      1  0.4558310000000  0.5276790000000  0.4473850000000 1.0
C      1  0.4789770000000  0.4763350000000  0.4632140000000 1.0
C      1  0.5080660000000  0.5239380000000  0.5328350000000 1.0
C      1  0.5172310000000  0.4538710000000  0.5228240000000 1.0
C      1  0.5315420000000  0.5240460000000  0.5178130000000 1.0
C      1  0.5205850000000  0.4777590000000  0.5398030000000 1.0
C      1  0.4754900000000  0.5228470000000  0.4300920000000 1.0
C      1  0.5382460000000  0.4883020000000  0.4963700000000 1.0
C      1  0.5042610000000  0.5189580000000  0.4735090000000 1.0
C      1  0.4969870000000  0.4897850000000  0.5551480000000 1.0
C      1  0.4847700000000  0.5152010000000  0.5450850000000 1.0
C      1  0.5288910000000  0.5155580000000  0.4875840000000 1.0
C      1  0.4598120000000  0.5152560000000  0.5250710000000 1.0
C      1  0.4626640000000  0.5130790000000  0.4974430000000 1.0
C      1  0.5217140000000  0.4636160000000  0.4939400000000 1.0
C      1  0.5397390000000  0.4963800000000  0.5243470000000 1.0
C      1  0.4755620000000  0.5098460000000  0.4698260000000 1.0
C      1  0.4996320000000  0.4675430000000  0.4777100000000 1.0
END
