TITL C-883734-4173-208 38.1891126568464 125000 -21321.235994205 0 0 142 (C1) n - 1
REM
REM in /home/nfs/bkarasulu/CARBON/AIRSS/Generating-Clusters/ReaxFF-fromJPCA2015/Units_Real/with-SteepDescent/Only-C1/SD-CG/Try1-3A/FIRE-CG
REM
REM
REM
REM
REM
REM ./C.cell (11c1c37f851c82e70ff6c80c92926a4b)
REM
REM compiler GCC version 9.2.1 20190827 (Red Hat 9.2.1-1)
REM options -cpp -mtune=generic -march=x86-64 -g -O0 -fpre-include=/usr/include/finclude/math-vector-fortran.h
REM seed 244654692 -926311400 1036315265 535142434 755088162 -1971959867 305014988 1698799665 -1067399901 2084863640 1186491321 -223904929 -2143499079 515818852 1197885019 693071498 1300840652 -1652841861 2061821510 496425503 1707322446 -61502513 -1784633524 608497496 1900769023 1992072702 972222117 -1761288622 430292615 1851599854 454434128 777833289 1095830677
REM
CELL 1.54180   50.00000   50.00000   50.00000   90.00000   90.00000   90.00000
LATT -1
SFAC C  
C      1  0.4736990000000  0.5918160000000  0.4756090000000 1.0
C      1  0.5337600000000  0.5533560000000  0.5868700000000 1.0
C      1  0.5560140000000  0.5742350000000  0.5136130000000 1.0
C      1  0.4744330000000  0.4138190000000  0.4861090000000 1.0
C      1  0.4234700000000  0.4687310000000  0.5466650000000 1.0
C      1  0.5525760000000  0.5810020000000  0.4857820000000 1.0
C      1  0.5121440000000  0.4566590000000  0.5359130000000 1.0
C      1  0.4707670000000  0.5225300000000  0.5560340000000 1.0
C      1  0.4409640000000  0.4473230000000  0.5594440000000 1.0
C      1  0.4360610000000  0.5689550000000  0.5374430000000 1.0
C      1  0.4589100000000  0.5068660000000  0.5335190000000 1.0
C      1  0.4279660000000  0.4520200000000  0.4850770000000 1.0
C      1  0.4812490000000  0.4664530000000  0.4093590000000 1.0
C      1  0.4982550000000  0.5140100000000  0.5870930000000 1.0
C      1  0.5294320000000  0.4639980000000  0.4787730000000 1.0
C      1  0.4457150000000  0.5127010000000  0.4635700000000 1.0
C      1  0.5913380000000  0.4625480000000  0.5197440000000 1.0
C      1  0.5729940000000  0.4671280000000  0.5651810000000 1.0
C      1  0.5006870000000  0.6014870000000  0.5443000000000 1.0
C      1  0.4090900000000  0.4659450000000  0.4707820000000 1.0
C      1  0.5391750000000  0.4407050000000  0.4211630000000 1.0
C      1  0.5333810000000  0.4627660000000  0.4040280000000 1.0
C      1  0.5758040000000  0.4502170000000  0.5412740000000 1.0
C      1  0.4990090000000  0.5545800000000  0.5419910000000 1.0
C      1  0.4908340000000  0.4964860000000  0.5098700000000 1.0
C      1  0.4484700000000  0.4488170000000  0.4405160000000 1.0
C      1  0.4536780000000  0.4509400000000  0.5858890000000 1.0
C      1  0.5083770000000  0.4755910000000  0.4043770000000 1.0
C      1  0.5788470000000  0.5230780000000  0.5033060000000 1.0
C      1  0.4541250000000  0.4260540000000  0.5451170000000 1.0
C      1  0.5614840000000  0.4547140000000  0.4327280000000 1.0
C      1  0.5830090000000  0.4656800000000  0.4744810000000 1.0
C      1  0.4790320000000  0.5711830000000  0.4566400000000 1.0
C      1  0.4106350000000  0.4656560000000  0.5208470000000 1.0
C      1  0.4391280000000  0.4873490000000  0.4319240000000 1.0
C      1  0.6068200000000  0.4924000000000  0.5438080000000 1.0
C      1  0.4853950000000  0.5467850000000  0.4766920000000 1.0
C      1  0.4982000000000  0.5031770000000  0.5603580000000 1.0
C      1  0.4623170000000  0.4981890000000  0.4466320000000 1.0
C      1  0.5479630000000  0.4732020000000  0.5776640000000 1.0
C      1  0.4163170000000  0.5331500000000  0.5084340000000 1.0
C      1  0.4602280000000  0.4784890000000  0.5898630000000 1.0
C      1  0.4178640000000  0.4400400000000  0.5086940000000 1.0
C      1  0.4999150000000  0.5939380000000  0.4912800000000 1.0
C      1  0.5962220000000  0.5342440000000  0.5231450000000 1.0
C      1  0.4634690000000  0.6074230000000  0.5261800000000 1.0
C      1  0.5263270000000  0.5226960000000  0.5894940000000 1.0
C      1  0.4443440000000  0.5018420000000  0.5837710000000 1.0
C      1  0.4721050000000  0.5985710000000  0.5528430000000 1.0
C      1  0.5444560000000  0.4688080000000  0.5026930000000 1.0
C      1  0.5272720000000  0.5233150000000  0.4624030000000 1.0
C      1  0.5281230000000  0.4768420000000  0.5252480000000 1.0
C      1  0.5864250000000  0.5088500000000  0.4455520000000 1.0
C      1  0.5698350000000  0.4863910000000  0.4596630000000 1.0
C      1  0.5218410000000  0.4237890000000  0.4375350000000 1.0
C      1  0.5590910000000  0.5172010000000  0.5224090000000 1.0
C      1  0.5109720000000  0.5430280000000  0.4152170000000 1.0
C      1  0.4937400000000  0.4853650000000  0.4833410000000 1.0
C      1  0.4041090000000  0.5270250000000  0.4685450000000 1.0
C      1  0.4726720000000  0.4826530000000  0.5273400000000 1.0
C      1  0.6052780000000  0.5117180000000  0.5067970000000 1.0
C      1  0.5553760000000  0.4782920000000  0.4149050000000 1.0
C      1  0.4614100000000  0.4516040000000  0.5050530000000 1.0
C      1  0.4877860000000  0.4760410000000  0.5727360000000 1.0
C      1  0.4732950000000  0.4436370000000  0.4299300000000 1.0
C      1  0.4310940000000  0.5681960000000  0.4708980000000 1.0
C      1  0.4216680000000  0.4056310000000  0.4887880000000 1.0
C      1  0.5343910000000  0.4120280000000  0.4619260000000 1.0
C      1  0.5286980000000  0.5425670000000  0.4993090000000 1.0
C      1  0.4453120000000  0.4306040000000  0.5165710000000 1.0
C      1  0.5167980000000  0.5599630000000  0.6050020000000 1.0
C      1  0.4109770000000  0.5503760000000  0.4839210000000 1.0
C      1  0.5414870000000  0.5706410000000  0.5614420000000 1.0
C      1  0.5723950000000  0.4667030000000  0.5000770000000 1.0
C      1  0.5610950000000  0.5588930000000  0.4672810000000 1.0
C      1  0.4931640000000  0.4232430000000  0.4399910000000 1.0
C      1  0.4919190000000  0.6079000000000  0.5171230000000 1.0
C      1  0.5285680000000  0.4339410000000  0.5482090000000 1.0
C      1  0.5420940000000  0.4807760000000  0.4587460000000 1.0
C      1  0.5546300000000  0.4328370000000  0.5318430000000 1.0
C      1  0.4227970000000  0.5206840000000  0.5529880000000 1.0
C      1  0.5556600000000  0.4248040000000  0.4766470000000 1.0
C      1  0.5589880000000  0.5641890000000  0.5397110000000 1.0
C      1  0.5012880000000  0.4577670000000  0.4800050000000 1.0
C      1  0.4199030000000  0.5434410000000  0.5369400000000 1.0
C      1  0.5489430000000  0.5350790000000  0.4795890000000 1.0
C      1  0.4362750000000  0.5131580000000  0.4195160000000 1.0
C      1  0.4574900000000  0.5729870000000  0.5568390000000 1.0
C      1  0.6122710000000  0.5051780000000  0.4412580000000 1.0
C      1  0.4704590000000  0.4922910000000  0.4057130000000 1.0
C      1  0.5535960000000  0.5085940000000  0.4127990000000 1.0
C      1  0.5142760000000  0.4015120000000  0.4803360000000 1.0
C      1  0.4810030000000  0.4114160000000  0.5454850000000 1.0
C      1  0.4013850000000  0.5100130000000  0.4922030000000 1.0
C      1  0.5121070000000  0.5013770000000  0.4187200000000 1.0
C      1  0.4888490000000  0.5520520000000  0.5163740000000 1.0
C      1  0.4802280000000  0.4372160000000  0.5918090000000 1.0
C      1  0.4485750000000  0.4705400000000  0.4902500000000 1.0
C      1  0.4240210000000  0.4951880000000  0.5620820000000 1.0
C      1  0.4760370000000  0.5509910000000  0.5582160000000 1.0
C      1  0.5049680000000  0.5595080000000  0.4951930000000 1.0
C      1  0.5300940000000  0.5622990000000  0.4299830000000 1.0
C      1  0.5265830000000  0.5008140000000  0.4449550000000 1.0
C      1  0.5707630000000  0.5151840000000  0.5672770000000 1.0
C      1  0.5572160000000  0.5531710000000  0.4385550000000 1.0
C      1  0.4659110000000  0.5611760000000  0.4328500000000 1.0
C      1  0.4469000000000  0.4994730000000  0.4885110000000 1.0
C      1  0.4834940000000  0.4406090000000  0.4938840000000 1.0
C      1  0.4995710000000  0.5249630000000  0.4635430000000 1.0
C      1  0.4429330000000  0.5883290000000  0.5164680000000 1.0
C      1  0.5895430000000  0.4925900000000  0.5662970000000 1.0
C      1  0.4254430000000  0.4647090000000  0.4458270000000 1.0
C      1  0.4866270000000  0.4652930000000  0.5450530000000 1.0
C      1  0.4493080000000  0.5196600000000  0.5093860000000 1.0
C      1  0.4272940000000  0.5286900000000  0.4462080000000 1.0
C      1  0.5180690000000  0.5770840000000  0.5458060000000 1.0
C      1  0.5678690000000  0.5275120000000  0.4284100000000 1.0
C      1  0.4685680000000  0.5188460000000  0.5851540000000 1.0
C      1  0.5261860000000  0.5797790000000  0.4513460000000 1.0
C      1  0.4631090000000  0.5194950000000  0.4080060000000 1.0
C      1  0.5275840000000  0.5211850000000  0.4044890000000 1.0
C      1  0.5041750000000  0.4548710000000  0.5893180000000 1.0
C      1  0.4816580000000  0.5421340000000  0.4165830000000 1.0
C      1  0.4038260000000  0.4812850000000  0.4951490000000 1.0
C      1  0.4688410000000  0.5401810000000  0.5014930000000 1.0
C      1  0.4398260000000  0.5568760000000  0.4459000000000 1.0
C      1  0.5290720000000  0.4515230000000  0.5761090000000 1.0
C      1  0.5214850000000  0.4095570000000  0.5087470000000 1.0
C      1  0.4475080000000  0.4042870000000  0.4957480000000 1.0
C      1  0.5132460000000  0.5015880000000  0.5279740000000 1.0
C      1  0.5088010000000  0.4141750000000  0.5343720000000 1.0
C      1  0.5267420000000  0.5931480000000  0.4754380000000 1.0
C      1  0.4875550000000  0.4206850000000  0.5705950000000 1.0
C      1  0.4473340000000  0.5860630000000  0.4874790000000 1.0
C      1  0.6118060000000  0.4848150000000  0.5178710000000 1.0
C      1  0.4879460000000  0.4992120000000  0.4590050000000 1.0
C      1  0.5484050000000  0.4215450000000  0.5058660000000 1.0
C      1  0.5471500000000  0.5047190000000  0.5795710000000 1.0
C      1  0.5314440000000  0.5223370000000  0.5185170000000 1.0
C      1  0.4903960000000  0.4053270000000  0.4633820000000 1.0
C      1  0.5730500000000  0.5338360000000  0.5422160000000 1.0
C      1  0.5695870000000  0.4445820000000  0.4596040000000 1.0
END
