TITL C-884142-5251-291 122.657767474761 125000 -29122.0030557601 0 0 196 (C1) n - 1
REM
REM in /home/nfs/bkarasulu/CARBON/AIRSS/Generating-Clusters/ReaxFF-fromJPCA2015/Units_Real/with-SteepDescent/Only-C1/SD-CG/Try1-3A/FIRE-CG
REM
REM
REM
REM
REM
REM ./C.cell (11c1c37f851c82e70ff6c80c92926a4b)
REM
REM compiler GCC version 9.2.1 20190827 (Red Hat 9.2.1-1)
REM options -cpp -mtune=generic -march=x86-64 -g -O0 -fpre-include=/usr/include/finclude/math-vector-fortran.h
REM seed -654100770 -1375252537 -435158631 982913277 491192443 1152122593 1129991570 -517136517 503582873 -1974060817 -1903721539 1298174304 771608037 -1482863937 -485365186 1230570077 -1578364259 -1571015950 -328971686 -1506517950 1785553377 82949659 -1790263695 84987339 -260197713 -1226835846 -2091704857 -1403266747 -1651158921 869851147 -1657687190 1695865678 -335791984
REM
CELL 1.54180   50.00000   50.00000   50.00000   90.00000   90.00000   90.00000
LATT -1
SFAC C  
C      1  0.4564400000000  0.5773300000000  0.4150640000000 1.0
C      1  0.4244150000000  0.4307680000000  0.4980820000000 1.0
C      1  0.5052390000000  0.4498810000000  0.6169990000000 1.0
C      1  0.5216210000000  0.5202620000000  0.5623140000000 1.0
C      1  0.5062630000000  0.3855420000000  0.5191300000000 1.0
C      1  0.5298970000000  0.3897850000000  0.5035300000000 1.0
C      1  0.5293730000000  0.5244450000000  0.4766390000000 1.0
C      1  0.4670500000000  0.5561870000000  0.4570050000000 1.0
C      1  0.5689300000000  0.4186100000000  0.5201350000000 1.0
C      1  0.4758000000000  0.5667770000000  0.6041140000000 1.0
C      1  0.3950940000000  0.4686570000000  0.5306960000000 1.0
C      1  0.4912280000000  0.5492030000000  0.3930550000000 1.0
C      1  0.4546850000000  0.4643760000000  0.5056060000000 1.0
C      1  0.4804650000000  0.4695730000000  0.4932540000000 1.0
C      1  0.5305580000000  0.4732580000000  0.5497410000000 1.0
C      1  0.4398140000000  0.4250440000000  0.4737260000000 1.0
C      1  0.4144260000000  0.4679920000000  0.4204700000000 1.0
C      1  0.3916620000000  0.5665920000000  0.5247300000000 1.0
C      1  0.4477890000000  0.5736760000000  0.5621790000000 1.0
C      1  0.4354620000000  0.5096080000000  0.4972630000000 1.0
C      1  0.5561490000000  0.5646890000000  0.5427240000000 1.0
C      1  0.4347790000000  0.4476760000000  0.4274330000000 1.0
C      1  0.4984430000000  0.4495840000000  0.5243470000000 1.0
C      1  0.4808250000000  0.5036130000000  0.4314350000000 1.0
C      1  0.5797150000000  0.5270790000000  0.5678170000000 1.0
C      1  0.4213320000000  0.5098920000000  0.4226850000000 1.0
C      1  0.5376920000000  0.4643890000000  0.4251330000000 1.0
C      1  0.4778600000000  0.4879910000000  0.3889620000000 1.0
C      1  0.4943890000000  0.5994250000000  0.4622670000000 1.0
C      1  0.4666950000000  0.5348540000000  0.3945040000000 1.0
C      1  0.5024220000000  0.5544860000000  0.5373560000000 1.0
C      1  0.4774350000000  0.4592020000000  0.6131400000000 1.0
C      1  0.6110340000000  0.4778480000000  0.4684220000000 1.0
C      1  0.5522770000000  0.4712150000000  0.5021570000000 1.0
C      1  0.5019190000000  0.4562390000000  0.5759480000000 1.0
C      1  0.5124950000000  0.5399500000000  0.4343930000000 1.0
C      1  0.4761270000000  0.5407140000000  0.5404800000000 1.0
C      1  0.4833660000000  0.5143700000000  0.5868090000000 1.0
C      1  0.4603170000000  0.5991420000000  0.5227470000000 1.0
C      1  0.4526260000000  0.5839360000000  0.4958240000000 1.0
C      1  0.6065970000000  0.4507480000000  0.4775970000000 1.0
C      1  0.4722960000000  0.4065720000000  0.4426220000000 1.0
C      1  0.5491790000000  0.5421520000000  0.5249290000000 1.0
C      1  0.5680840000000  0.5812350000000  0.4982710000000 1.0
C      1  0.4984160000000  0.5924300000000  0.5098300000000 1.0
C      1  0.4538680000000  0.5556170000000  0.5068180000000 1.0
C      1  0.5563900000000  0.5810450000000  0.4420100000000 1.0
C      1  0.4823720000000  0.4479840000000  0.4207650000000 1.0
C      1  0.4364250000000  0.5442560000000  0.5278650000000 1.0
C      1  0.5117140000000  0.5292240000000  0.3857690000000 1.0
C      1  0.4598640000000  0.5031140000000  0.4582230000000 1.0
C      1  0.4147390000000  0.5844740000000  0.5211620000000 1.0
C      1  0.5553000000000  0.5421650000000  0.5757250000000 1.0
C      1  0.4437140000000  0.4668330000000  0.5537940000000 1.0
C      1  0.4831940000000  0.4754060000000  0.4384800000000 1.0
C      1  0.5550650000000  0.5687290000000  0.4150960000000 1.0
C      1  0.4973720000000  0.3930110000000  0.4359600000000 1.0
C      1  0.5643280000000  0.4653260000000  0.4770210000000 1.0
C      1  0.4704790000000  0.4094080000000  0.5072310000000 1.0
C      1  0.5186870000000  0.5056270000000  0.4948750000000 1.0
C      1  0.4462360000000  0.4785980000000  0.4640530000000 1.0
C      1  0.5640050000000  0.5172250000000  0.5154900000000 1.0
C      1  0.4439000000000  0.4075770000000  0.5866380000000 1.0
C      1  0.4387600000000  0.5900270000000  0.5397830000000 1.0
C      1  0.5138590000000  0.5430600000000  0.4630510000000 1.0
C      1  0.3901980000000  0.4720400000000  0.4891860000000 1.0
C      1  0.5981870000000  0.5564980000000  0.4665590000000 1.0
C      1  0.5255890000000  0.3976370000000  0.4736030000000 1.0
C      1  0.5529520000000  0.6135570000000  0.5189720000000 1.0
C      1  0.5126330000000  0.4508550000000  0.5500000000000 1.0
C      1  0.5140230000000  0.5096390000000  0.4293090000000 1.0
C      1  0.6092450000000  0.5025430000000  0.5208280000000 1.0
C      1  0.4522830000000  0.4243390000000  0.5417870000000 1.0
C      1  0.5121670000000  0.4242630000000  0.4825870000000 1.0
C      1  0.4797600000000  0.4100650000000  0.5543440000000 1.0
C      1  0.4451500000000  0.5855600000000  0.4402300000000 1.0
C      1  0.5979750000000  0.4843700000000  0.5409860000000 1.0
C      1  0.4697130000000  0.5085140000000  0.4048140000000 1.0
C      1  0.4779000000000  0.4453070000000  0.5868160000000 1.0
C      1  0.4939760000000  0.4270070000000  0.5056640000000 1.0
C      1  0.4739750000000  0.5389450000000  0.4941430000000 1.0
C      1  0.3830750000000  0.4884180000000  0.5133510000000 1.0
C      1  0.4711000000000  0.5809100000000  0.5781820000000 1.0
C      1  0.5120530000000  0.5668750000000  0.5074730000000 1.0
C      1  0.5297390000000  0.5892100000000  0.4435450000000 1.0
C      1  0.5200290000000  0.5373550000000  0.6067370000000 1.0
C      1  0.5059090000000  0.4025040000000  0.5444710000000 1.0
C      1  0.5335180000000  0.4127560000000  0.5485190000000 1.0
C      1  0.5459080000000  0.5208860000000  0.6081760000000 1.0
C      1  0.5452010000000  0.5612350000000  0.5001780000000 1.0
C      1  0.4156960000000  0.5621570000000  0.4733920000000 1.0
C      1  0.3973840000000  0.4821960000000  0.5578020000000 1.0
C      1  0.5893740000000  0.4594440000000  0.5287510000000 1.0
C      1  0.4657660000000  0.5852090000000  0.4638740000000 1.0
C      1  0.5057980000000  0.4822810000000  0.3925600000000 1.0
C      1  0.5697790000000  0.4959360000000  0.4068860000000 1.0
C      1  0.4788020000000  0.4354170000000  0.4470290000000 1.0
C      1  0.4820110000000  0.5149010000000  0.5298410000000 1.0
C      1  0.4661920000000  0.4971900000000  0.5399730000000 1.0
C      1  0.5421500000000  0.5665050000000  0.5666980000000 1.0
C      1  0.6086600000000  0.5177050000000  0.4729470000000 1.0
C      1  0.4478830000000  0.4945760000000  0.5556570000000 1.0
C      1  0.4862520000000  0.5723960000000  0.4143450000000 1.0
C      1  0.5556220000000  0.5219360000000  0.4082150000000 1.0
C      1  0.4422580000000  0.4148650000000  0.5147340000000 1.0
C      1  0.5192970000000  0.4110030000000  0.4259800000000 1.0
C      1  0.5384170000000  0.5402000000000  0.3902620000000 1.0
C      1  0.5138450000000  0.5705340000000  0.5601700000000 1.0
C      1  0.5637430000000  0.4766320000000  0.5864510000000 1.0
C      1  0.4932570000000  0.5907170000000  0.5612680000000 1.0
C      1  0.5164420000000  0.4813190000000  0.5935120000000 1.0
C      1  0.4961190000000  0.5487340000000  0.6191580000000 1.0
C      1  0.4000690000000  0.5396210000000  0.4817940000000 1.0
C      1  0.4348120000000  0.5580770000000  0.4493360000000 1.0
C      1  0.5700750000000  0.5541900000000  0.4517770000000 1.0
C      1  0.5822590000000  0.5712720000000  0.5426470000000 1.0
C      1  0.6054200000000  0.5307910000000  0.5233760000000 1.0
C      1  0.4944850000000  0.4965550000000  0.6054970000000 1.0
C      1  0.5164610000000  0.4695330000000  0.4648970000000 1.0
C      1  0.5625990000000  0.4280860000000  0.4458940000000 1.0
C      1  0.5937060000000  0.5444490000000  0.5449700000000 1.0
C      1  0.5075580000000  0.4327310000000  0.4101990000000 1.0
C      1  0.5247780000000  0.4773110000000  0.4935820000000 1.0
C      1  0.4043440000000  0.4898350000000  0.4379720000000 1.0
C      1  0.3922790000000  0.5159660000000  0.5214660000000 1.0
C      1  0.5778620000000  0.4376280000000  0.4723980000000 1.0
C      1  0.4853340000000  0.5516850000000  0.4356280000000 1.0
C      1  0.5054680000000  0.5332970000000  0.5819810000000 1.0
C      1  0.5063170000000  0.4409960000000  0.4601190000000 1.0
C      1  0.5450160000000  0.4919690000000  0.6019300000000 1.0
C      1  0.5067800000000  0.6079940000000  0.4873660000000 1.0
C      1  0.5632150000000  0.4506530000000  0.4274790000000 1.0
C      1  0.4349810000000  0.4806010000000  0.4905270000000 1.0
C      1  0.4992710000000  0.5501520000000  0.4864870000000 1.0
C      1  0.5190800000000  0.5058150000000  0.4013890000000 1.0
C      1  0.5024690000000  0.4729530000000  0.5107800000000 1.0
C      1  0.4677770000000  0.5414240000000  0.6140580000000 1.0
C      1  0.5454210000000  0.4033910000000  0.5239490000000 1.0
C      1  0.4806640000000  0.3820970000000  0.5050590000000 1.0
C      1  0.4477310000000  0.4482490000000  0.4548520000000 1.0
C      1  0.4524660000000  0.4738190000000  0.3924420000000 1.0
C      1  0.5693720000000  0.5326280000000  0.5953450000000 1.0
C      1  0.5235630000000  0.4935910000000  0.5676930000000 1.0
C      1  0.5780220000000  0.4927200000000  0.5630780000000 1.0
C      1  0.5311050000000  0.4441850000000  0.6066570000000 1.0
C      1  0.4125870000000  0.5006940000000  0.5754240000000 1.0
C      1  0.4378630000000  0.5159930000000  0.5744080000000 1.0
C      1  0.5996290000000  0.5362340000000  0.4897020000000 1.0
C      1  0.4227600000000  0.5825240000000  0.4927970000000 1.0
C      1  0.4091070000000  0.4718260000000  0.5821100000000 1.0
C      1  0.4574620000000  0.5153490000000  0.6002760000000 1.0
C      1  0.5690210000000  0.5444470000000  0.4237550000000 1.0
C      1  0.4502120000000  0.5439930000000  0.5551890000000 1.0
C      1  0.4205950000000  0.5204760000000  0.5232650000000 1.0
C      1  0.3861210000000  0.5418670000000  0.5084190000000 1.0
C      1  0.5623340000000  0.4875520000000  0.4586110000000 1.0
C      1  0.4594120000000  0.5185360000000  0.4816800000000 1.0
C      1  0.5329170000000  0.6165260000000  0.4972510000000 1.0
C      1  0.5517230000000  0.4498460000000  0.5848990000000 1.0
C      1  0.4048730000000  0.4530880000000  0.5063180000000 1.0
C      1  0.4283290000000  0.5380160000000  0.4254220000000 1.0
C      1  0.5758180000000  0.5934820000000  0.5239290000000 1.0
C      1  0.5837710000000  0.4230070000000  0.4974820000000 1.0
C      1  0.4694440000000  0.4873840000000  0.6140910000000 1.0
C      1  0.4321510000000  0.4241500000000  0.5674160000000 1.0
C      1  0.4528210000000  0.4523710000000  0.5320150000000 1.0
C      1  0.4896350000000  0.4768510000000  0.4664680000000 1.0
C      1  0.4548670000000  0.4489370000000  0.4073200000000 1.0
C      1  0.5641890000000  0.4887530000000  0.5198990000000 1.0
C      1  0.6017740000000  0.4443450000000  0.5053270000000 1.0
C      1  0.5089340000000  0.5105480000000  0.5207120000000 1.0
C      1  0.4453570000000  0.5512980000000  0.4064130000000 1.0
C      1  0.3980910000000  0.4902050000000  0.4665270000000 1.0
C      1  0.5043450000000  0.5913670000000  0.4370520000000 1.0
C      1  0.4122510000000  0.5130400000000  0.4775300000000 1.0
C      1  0.5729610000000  0.5266650000000  0.4904980000000 1.0
C      1  0.5927100000000  0.5817220000000  0.4797510000000 1.0
C      1  0.6139910000000  0.4977060000000  0.4902890000000 1.0
C      1  0.5281930000000  0.5579710000000  0.4105070000000 1.0
C      1  0.4557750000000  0.4011280000000  0.4653760000000 1.0
C      1  0.4866130000000  0.6004270000000  0.5341240000000 1.0
C      1  0.5017720000000  0.3821880000000  0.4619560000000 1.0
C      1  0.5720940000000  0.4379940000000  0.5405740000000 1.0
C      1  0.5526210000000  0.5415640000000  0.4786140000000 1.0
C      1  0.4282010000000  0.4875250000000  0.4034800000000 1.0
C      1  0.5400730000000  0.4110780000000  0.4466470000000 1.0
C      1  0.5222790000000  0.5304700000000  0.5356880000000 1.0
C      1  0.4713390000000  0.4146140000000  0.5817610000000 1.0
C      1  0.4292540000000  0.4526120000000  0.5739950000000 1.0
C      1  0.5186460000000  0.4580620000000  0.4031730000000 1.0
C      1  0.5512900000000  0.4336400000000  0.5601650000000 1.0
C      1  0.4761550000000  0.3816550000000  0.4759630000000 1.0
C      1  0.5818610000000  0.4751370000000  0.4238340000000 1.0
C      1  0.5336840000000  0.4867680000000  0.4439270000000 1.0
C      1  0.5900520000000  0.4897630000000  0.4491310000000 1.0
C      1  0.5553300000000  0.4855020000000  0.5448790000000 1.0
END
