TITL C-883739-1268-232 76.6048322212689 125000 -28550.8878666032 0 0 192 (C1) n - 1
REM
REM in /home/nfs/bkarasulu/CARBON/AIRSS/Generating-Clusters/ReaxFF-fromJPCA2015/Units_Real/with-SteepDescent/Only-C1/SD-CG/Try1-3A/FIRE-CG
REM
REM
REM
REM
REM
REM ./C.cell (11c1c37f851c82e70ff6c80c92926a4b)
REM
REM compiler GCC version 9.2.1 20190827 (Red Hat 9.2.1-1)
REM options -cpp -mtune=generic -march=x86-64 -g -O0 -fpre-include=/usr/include/finclude/math-vector-fortran.h
REM seed 559711380 -636706609 267970485 -655245096 1128718496 -646641075 -240903825 -1829842633 -247571704 1611615619 -1664430601 -419895608 962806889 867342835 -1924659295 -1742757508 601702442 -1578175574 917424398 -2064420685 798474671 -2110519072 -1573158491 -1540549488 -1554458945 -1778942771 -208202390 1752388939 1675419253 448428059 -1558549398 -389936221 2008465911
REM
CELL 1.54180   50.00000   50.00000   50.00000   90.00000   90.00000   90.00000
LATT -1
SFAC C  
C      1  0.4942870000000  0.4657490000000  0.4444800000000 1.0
C      1  0.5073950000000  0.3897860000000  0.5219850000000 1.0
C      1  0.5060100000000  0.4438250000000  0.5280310000000 1.0
C      1  0.5869110000000  0.4419020000000  0.5293120000000 1.0
C      1  0.5781390000000  0.5441080000000  0.4767050000000 1.0
C      1  0.4126600000000  0.4224670000000  0.4871190000000 1.0
C      1  0.4425770000000  0.5299970000000  0.4322060000000 1.0
C      1  0.5885700000000  0.4946550000000  0.4579600000000 1.0
C      1  0.5747550000000  0.4170120000000  0.4871240000000 1.0
C      1  0.5572950000000  0.5376460000000  0.4357010000000 1.0
C      1  0.6005610000000  0.5184000000000  0.5579370000000 1.0
C      1  0.4163010000000  0.5638660000000  0.5408330000000 1.0
C      1  0.4996800000000  0.5546350000000  0.5308370000000 1.0
C      1  0.4724830000000  0.5040850000000  0.5704410000000 1.0
C      1  0.5840400000000  0.5313300000000  0.5791680000000 1.0
C      1  0.4368170000000  0.4363110000000  0.5539310000000 1.0
C      1  0.5108910000000  0.4262440000000  0.5785820000000 1.0
C      1  0.4430110000000  0.5083050000000  0.4779900000000 1.0
C      1  0.5942100000000  0.5651730000000  0.5423210000000 1.0
C      1  0.5376010000000  0.4883470000000  0.5129350000000 1.0
C      1  0.5300620000000  0.4831300000000  0.4678100000000 1.0
C      1  0.6045760000000  0.5446280000000  0.4863300000000 1.0
C      1  0.5312960000000  0.5814850000000  0.4918060000000 1.0
C      1  0.5250980000000  0.4524000000000  0.4140250000000 1.0
C      1  0.4688120000000  0.5348670000000  0.6001880000000 1.0
C      1  0.4842670000000  0.3990460000000  0.5405420000000 1.0
C      1  0.5121070000000  0.5417450000000  0.4015100000000 1.0
C      1  0.4348360000000  0.5163690000000  0.5639400000000 1.0
C      1  0.5776520000000  0.4813330000000  0.5785200000000 1.0
C      1  0.4044750000000  0.5350590000000  0.4847740000000 1.0
C      1  0.4993910000000  0.5666810000000  0.4109290000000 1.0
C      1  0.4562830000000  0.5879780000000  0.5451760000000 1.0
C      1  0.4971220000000  0.5363480000000  0.6074670000000 1.0
C      1  0.4706620000000  0.4674360000000  0.5220750000000 1.0
C      1  0.3953410000000  0.4901670000000  0.5230710000000 1.0
C      1  0.4656140000000  0.4648550000000  0.4469930000000 1.0
C      1  0.4351690000000  0.4054430000000  0.4315840000000 1.0
C      1  0.3949200000000  0.4532740000000  0.4544150000000 1.0
C      1  0.5459070000000  0.5284200000000  0.5442230000000 1.0
C      1  0.4940930000000  0.4996610000000  0.4718870000000 1.0
C      1  0.4638800000000  0.5352000000000  0.5253730000000 1.0
C      1  0.5697160000000  0.5945070000000  0.4758640000000 1.0
C      1  0.4094450000000  0.5176400000000  0.5670850000000 1.0
C      1  0.5097670000000  0.4884450000000  0.5410880000000 1.0
C      1  0.5107520000000  0.4447800000000  0.4377370000000 1.0
C      1  0.4923250000000  0.4858570000000  0.5195700000000 1.0
C      1  0.4184940000000  0.5461400000000  0.4402710000000 1.0
C      1  0.4756760000000  0.4403870000000  0.4887650000000 1.0
C      1  0.5003840000000  0.4501340000000  0.4999350000000 1.0
C      1  0.4903960000000  0.6094230000000  0.5079620000000 1.0
C      1  0.5609430000000  0.5239250000000  0.4896510000000 1.0
C      1  0.4844520000000  0.4854270000000  0.4017860000000 1.0
C      1  0.4627450000000  0.4792640000000  0.5604180000000 1.0
C      1  0.5758950000000  0.5851700000000  0.5283410000000 1.0
C      1  0.4563200000000  0.5072460000000  0.5984010000000 1.0
C      1  0.5617530000000  0.5674710000000  0.4337620000000 1.0
C      1  0.3887060000000  0.4283120000000  0.4698380000000 1.0
C      1  0.6075360000000  0.4843100000000  0.4782770000000 1.0
C      1  0.4728770000000  0.5110320000000  0.3950050000000 1.0
C      1  0.4963720000000  0.5501060000000  0.5015130000000 1.0
C      1  0.4548660000000  0.5724350000000  0.4028340000000 1.0
C      1  0.4531960000000  0.4556190000000  0.4723310000000 1.0
C      1  0.4433680000000  0.4034650000000  0.4598470000000 1.0
C      1  0.5128840000000  0.3975850000000  0.4409940000000 1.0
C      1  0.4802640000000  0.5920850000000  0.5609450000000 1.0
C      1  0.4744320000000  0.4116470000000  0.4973540000000 1.0
C      1  0.4709660000000  0.5638120000000  0.4582650000000 1.0
C      1  0.4298020000000  0.5264820000000  0.4929540000000 1.0
C      1  0.5116200000000  0.4798810000000  0.4022920000000 1.0
C      1  0.5942900000000  0.4897960000000  0.5552370000000 1.0
C      1  0.5685340000000  0.4703570000000  0.4015310000000 1.0
C      1  0.5870210000000  0.4364040000000  0.4664040000000 1.0
C      1  0.4279980000000  0.5738420000000  0.4458300000000 1.0
C      1  0.5926060000000  0.4603490000000  0.5087560000000 1.0
C      1  0.5799950000000  0.4170890000000  0.5158680000000 1.0
C      1  0.4879420000000  0.5243520000000  0.4587500000000 1.0
C      1  0.5293620000000  0.5838840000000  0.5198790000000 1.0
C      1  0.6091990000000  0.5261990000000  0.5088250000000 1.0
C      1  0.5549430000000  0.4096000000000  0.5349550000000 1.0
C      1  0.5267680000000  0.5519550000000  0.5436980000000 1.0
C      1  0.4828840000000  0.4219960000000  0.4085470000000 1.0
C      1  0.5243230000000  0.6045610000000  0.4515920000000 1.0
C      1  0.4658210000000  0.4486600000000  0.5947350000000 1.0
C      1  0.4362430000000  0.4817880000000  0.4899850000000 1.0
C      1  0.4567500000000  0.5191260000000  0.4549190000000 1.0
C      1  0.4775780000000  0.5681320000000  0.5769110000000 1.0
C      1  0.4109450000000  0.4199780000000  0.5169090000000 1.0
C      1  0.5464340000000  0.4110240000000  0.4910400000000 1.0
C      1  0.5873240000000  0.5570340000000  0.5684190000000 1.0
C      1  0.5238990000000  0.4554520000000  0.4808760000000 1.0
C      1  0.5358060000000  0.5550960000000  0.4832420000000 1.0
C      1  0.5551380000000  0.4947130000000  0.3896790000000 1.0
C      1  0.5418370000000  0.6040510000000  0.4760050000000 1.0
C      1  0.4359980000000  0.4874220000000  0.4118420000000 1.0
C      1  0.4406400000000  0.5665580000000  0.5575280000000 1.0
C      1  0.4875960000000  0.4135580000000  0.5654610000000 1.0
C      1  0.5255100000000  0.5646600000000  0.5705620000000 1.0
C      1  0.4616700000000  0.4050910000000  0.5235530000000 1.0
C      1  0.5437480000000  0.4565260000000  0.5036590000000 1.0
C      1  0.5374180000000  0.5200160000000  0.5877540000000 1.0
C      1  0.4605860000000  0.4684160000000  0.4163920000000 1.0
C      1  0.5357140000000  0.5416650000000  0.4566940000000 1.0
C      1  0.4737150000000  0.4857140000000  0.6135330000000 1.0
C      1  0.4600770000000  0.3915590000000  0.4386490000000 1.0
C      1  0.4838320000000  0.5334430000000  0.5430600000000 1.0
C      1  0.5684870000000  0.4507230000000  0.5512250000000 1.0
C      1  0.4329720000000  0.4325710000000  0.4204800000000 1.0
C      1  0.5489060000000  0.4995380000000  0.5370060000000 1.0
C      1  0.6085100000000  0.5323080000000  0.4525710000000 1.0
C      1  0.5581540000000  0.4257360000000  0.5615680000000 1.0
C      1  0.4057280000000  0.4840450000000  0.4960140000000 1.0
C      1  0.5139640000000  0.5046770000000  0.5830530000000 1.0
C      1  0.5553490000000  0.4792100000000  0.5974280000000 1.0
C      1  0.5382010000000  0.4270380000000  0.5140320000000 1.0
C      1  0.5490700000000  0.5926970000000  0.5372940000000 1.0
C      1  0.5202240000000  0.4056780000000  0.4722140000000 1.0
C      1  0.4992370000000  0.5034820000000  0.4996150000000 1.0
C      1  0.4557640000000  0.5477790000000  0.5752720000000 1.0
C      1  0.5209490000000  0.4643850000000  0.5505820000000 1.0
C      1  0.5015400000000  0.4932300000000  0.6077720000000 1.0
C      1  0.4715740000000  0.6040410000000  0.4709720000000 1.0
C      1  0.5216780000000  0.4330420000000  0.4608380000000 1.0
C      1  0.5406320000000  0.5375040000000  0.5055180000000 1.0
C      1  0.5421950000000  0.5876770000000  0.4378610000000 1.0
C      1  0.3964240000000  0.4640350000000  0.5389940000000 1.0
C      1  0.4014200000000  0.5280570000000  0.4562730000000 1.0
C      1  0.4857720000000  0.4007310000000  0.4286240000000 1.0
C      1  0.6084510000000  0.4971610000000  0.5054520000000 1.0
C      1  0.6029210000000  0.5364660000000  0.5351920000000 1.0
C      1  0.4411720000000  0.5739530000000  0.4996840000000 1.0
C      1  0.6060040000000  0.4551400000000  0.4781450000000 1.0
C      1  0.5489550000000  0.4733330000000  0.5505340000000 1.0
C      1  0.3975480000000  0.5144420000000  0.5396940000000 1.0
C      1  0.5409690000000  0.4257720000000  0.5848170000000 1.0
C      1  0.5000790000000  0.5080630000000  0.5594330000000 1.0
C      1  0.4276360000000  0.5076190000000  0.5877170000000 1.0
C      1  0.4493000000000  0.5820260000000  0.4675720000000 1.0
C      1  0.5323120000000  0.5915580000000  0.5620120000000 1.0
C      1  0.5000550000000  0.3991440000000  0.4945740000000 1.0
C      1  0.4456510000000  0.4817470000000  0.5181860000000 1.0
C      1  0.4585680000000  0.4388120000000  0.4088210000000 1.0
C      1  0.4654430000000  0.4350780000000  0.5655110000000 1.0
C      1  0.5156210000000  0.5145610000000  0.6218180000000 1.0
C      1  0.4458790000000  0.5139250000000  0.4073470000000 1.0
C      1  0.5683990000000  0.4644110000000  0.4913370000000 1.0
C      1  0.4692290000000  0.6111940000000  0.4984300000000 1.0
C      1  0.5028260000000  0.5586240000000  0.5895900000000 1.0
C      1  0.4893660000000  0.5752590000000  0.4379800000000 1.0
C      1  0.4942010000000  0.5993370000000  0.4530070000000 1.0
C      1  0.4379500000000  0.4289460000000  0.4731890000000 1.0
C      1  0.4791050000000  0.5451340000000  0.4787640000000 1.0
C      1  0.5383310000000  0.4545330000000  0.5948250000000 1.0
C      1  0.4001050000000  0.4996490000000  0.4496620000000 1.0
C      1  0.3963990000000  0.5549020000000  0.5047790000000 1.0
C      1  0.4360000000000  0.4172620000000  0.5325680000000 1.0
C      1  0.5272940000000  0.4047320000000  0.4159540000000 1.0
C      1  0.6017110000000  0.5665750000000  0.5010010000000 1.0
C      1  0.4790690000000  0.4449530000000  0.5381880000000 1.0
C      1  0.5117530000000  0.6061550000000  0.5258360000000 1.0
C      1  0.5434040000000  0.5008890000000  0.4875000000000 1.0
C      1  0.4523390000000  0.5947660000000  0.5166580000000 1.0
C      1  0.5282160000000  0.5034230000000  0.3982520000000 1.0
C      1  0.4155710000000  0.5757090000000  0.5138090000000 1.0
C      1  0.6008440000000  0.4811630000000  0.5275120000000 1.0
C      1  0.5562510000000  0.4517070000000  0.4204800000000 1.0
C      1  0.5673440000000  0.4740130000000  0.4637840000000 1.0
C      1  0.3975740000000  0.5425440000000  0.5315310000000 1.0
C      1  0.5852290000000  0.5890040000000  0.5009770000000 1.0
C      1  0.4466470000000  0.5443760000000  0.5068350000000 1.0
C      1  0.5842830000000  0.5203970000000  0.4435480000000 1.0
C      1  0.5691210000000  0.4494750000000  0.4467350000000 1.0
C      1  0.5141560000000  0.5308630000000  0.4444430000000 1.0
C      1  0.3892220000000  0.4371400000000  0.5279830000000 1.0
C      1  0.5287190000000  0.5252780000000  0.4200340000000 1.0
C      1  0.5115100000000  0.4265570000000  0.4018470000000 1.0
C      1  0.5067260000000  0.6034690000000  0.5548380000000 1.0
C      1  0.4215310000000  0.4610400000000  0.5529520000000 1.0
C      1  0.5563850000000  0.5309860000000  0.5704320000000 1.0
C      1  0.4782620000000  0.5634850000000  0.3903200000000 1.0
C      1  0.5420590000000  0.5044090000000  0.6116150000000 1.0
C      1  0.5732500000000  0.5701450000000  0.4608060000000 1.0
C      1  0.4372860000000  0.5766520000000  0.4200380000000 1.0
C      1  0.3934310000000  0.4802160000000  0.4697900000000 1.0
C      1  0.5074500000000  0.4860500000000  0.4555880000000 1.0
C      1  0.5136410000000  0.5275630000000  0.5039370000000 1.0
C      1  0.4355320000000  0.4882320000000  0.5458710000000 1.0
C      1  0.4660670000000  0.4582870000000  0.6154390000000 1.0
C      1  0.4126810000000  0.4818510000000  0.4276070000000 1.0
C      1  0.5135250000000  0.4553630000000  0.5794620000000 1.0
C      1  0.5341380000000  0.3863720000000  0.5321100000000 1.0
C      1  0.4129260000000  0.4530060000000  0.4311670000000 1.0
C      1  0.4877740000000  0.5349040000000  0.3866690000000 1.0
END
