TITL C-884140-4336-376 -1.73813536181629 125000 -18264.4475491511 0 0 123 (C1) n - 1
REM
REM in /home/nfs/bkarasulu/CARBON/AIRSS/Generating-Clusters/ReaxFF-fromJPCA2015/Units_Real/with-SteepDescent/Only-C1/SD-CG/Try1-3A/FIRE-CG
REM
REM
REM
REM
REM
REM ./C.cell (11c1c37f851c82e70ff6c80c92926a4b)
REM
REM compiler GCC version 9.2.1 20190827 (Red Hat 9.2.1-1)
REM options -cpp -mtune=generic -march=x86-64 -g -O0 -fpre-include=/usr/include/finclude/math-vector-fortran.h
REM seed -2083158069 1410392611 1572362478 954608225 1443993793 -1218262598 1821865127 -931015894 -436835010 161859814 1234434097 199971858 1369519510 1726431961 89645699 -1684270691 1199557525 -148955268 1802239782 902967361 273692572 2077031332 -1166965608 -1695812763 -1509838287 1316311480 1041196266 1188231202 1921826070 -478433493 -610603185 5127791 -401103527
REM
CELL 1.54180   50.00000   50.00000   50.00000   90.00000   90.00000   90.00000
LATT -1
SFAC C  
C      1  0.4520020000000  0.5076230000000  0.5542480000000 1.0
C      1  0.5969370000000  0.4472100000000  0.4543500000000 1.0
C      1  0.4864200000000  0.5308820000000  0.5287550000000 1.0
C      1  0.4670550000000  0.5353450000000  0.4692420000000 1.0
C      1  0.5411990000000  0.5116040000000  0.5078940000000 1.0
C      1  0.4403920000000  0.4892870000000  0.5736200000000 1.0
C      1  0.5124850000000  0.5256730000000  0.4086130000000 1.0
C      1  0.5679940000000  0.5422460000000  0.5330870000000 1.0
C      1  0.4020000000000  0.5560040000000  0.4752260000000 1.0
C      1  0.4716100000000  0.5193060000000  0.4922220000000 1.0
C      1  0.4711080000000  0.5526670000000  0.4233340000000 1.0
C      1  0.5575660000000  0.5678000000000  0.5406340000000 1.0
C      1  0.4585030000000  0.4312740000000  0.4563860000000 1.0
C      1  0.5019290000000  0.5064700000000  0.4590810000000 1.0
C      1  0.4847750000000  0.4873490000000  0.4483900000000 1.0
C      1  0.4353360000000  0.5141200000000  0.4329710000000 1.0
C      1  0.4933880000000  0.4815070000000  0.4054630000000 1.0
C      1  0.4450180000000  0.4952180000000  0.4136700000000 1.0
C      1  0.5555610000000  0.5146570000000  0.4220640000000 1.0
C      1  0.5573460000000  0.4271010000000  0.4790560000000 1.0
C      1  0.4357120000000  0.4341180000000  0.5315040000000 1.0
C      1  0.5067990000000  0.5458550000000  0.5133040000000 1.0
C      1  0.4895280000000  0.4961400000000  0.4973990000000 1.0
C      1  0.4092170000000  0.4997240000000  0.5073710000000 1.0
C      1  0.5312150000000  0.4581890000000  0.5960900000000 1.0
C      1  0.5015930000000  0.5748700000000  0.5611730000000 1.0
C      1  0.4796230000000  0.5567230000000  0.5705760000000 1.0
C      1  0.5169100000000  0.5959920000000  0.4788880000000 1.0
C      1  0.4704100000000  0.4681520000000  0.5258220000000 1.0
C      1  0.6016950000000  0.5355600000000  0.5025670000000 1.0
C      1  0.4739990000000  0.4690920000000  0.4962590000000 1.0
C      1  0.5097440000000  0.4705640000000  0.5832210000000 1.0
C      1  0.5079830000000  0.5852280000000  0.5345810000000 1.0
C      1  0.5195260000000  0.4888260000000  0.4739330000000 1.0
C      1  0.4134820000000  0.5163210000000  0.5308060000000 1.0
C      1  0.5469140000000  0.4902410000000  0.4629580000000 1.0
C      1  0.5489650000000  0.4209180000000  0.5311390000000 1.0
C      1  0.4575360000000  0.5800060000000  0.5187280000000 1.0
C      1  0.5510540000000  0.4752720000000  0.4390820000000 1.0
C      1  0.4438660000000  0.4693850000000  0.4292470000000 1.0
C      1  0.5548510000000  0.5382470000000  0.4357080000000 1.0
C      1  0.5952370000000  0.5071320000000  0.4968810000000 1.0
C      1  0.5088090000000  0.5594220000000  0.4397930000000 1.0
C      1  0.4215170000000  0.5600230000000  0.4984190000000 1.0
C      1  0.4551650000000  0.4838450000000  0.4519080000000 1.0
C      1  0.5823640000000  0.4889070000000  0.5147570000000 1.0
C      1  0.4136720000000  0.5444780000000  0.4509070000000 1.0
C      1  0.5571480000000  0.4668140000000  0.5100230000000 1.0
C      1  0.5128580000000  0.5135960000000  0.6041820000000 1.0
C      1  0.5614650000000  0.4477260000000  0.5339080000000 1.0
C      1  0.4788930000000  0.4774770000000  0.5857320000000 1.0
C      1  0.4648280000000  0.5827530000000  0.4721150000000 1.0
C      1  0.5280750000000  0.4271030000000  0.5480350000000 1.0
C      1  0.4824750000000  0.4103490000000  0.5225770000000 1.0
C      1  0.4448350000000  0.5775870000000  0.4931290000000 1.0
C      1  0.5374390000000  0.4861060000000  0.5178600000000 1.0
C      1  0.5185250000000  0.4972250000000  0.4065770000000 1.0
C      1  0.5357330000000  0.5816890000000  0.5250210000000 1.0
C      1  0.5217930000000  0.5309360000000  0.5547660000000 1.0
C      1  0.5464590000000  0.4890420000000  0.4151330000000 1.0
C      1  0.5284240000000  0.5311940000000  0.5264900000000 1.0
C      1  0.4880290000000  0.4557740000000  0.4209440000000 1.0
C      1  0.4218850000000  0.5445660000000  0.5232330000000 1.0
C      1  0.4425090000000  0.4222880000000  0.5029350000000 1.0
C      1  0.5520100000000  0.5130260000000  0.4798550000000 1.0
C      1  0.5589240000000  0.5299300000000  0.5730860000000 1.0
C      1  0.4945890000000  0.4603900000000  0.5401970000000 1.0
C      1  0.4446250000000  0.5583850000000  0.5344730000000 1.0
C      1  0.4730010000000  0.5025500000000  0.4045880000000 1.0
C      1  0.4307010000000  0.5036490000000  0.4871240000000 1.0
C      1  0.4759100000000  0.4222710000000  0.5493940000000 1.0
C      1  0.4614050000000  0.4460870000000  0.4310340000000 1.0
C      1  0.5245820000000  0.4882810000000  0.5650200000000 1.0
C      1  0.5880430000000  0.5468580000000  0.5219250000000 1.0
C      1  0.4674320000000  0.4089610000000  0.4978110000000 1.0
C      1  0.4815580000000  0.4206020000000  0.4717040000000 1.0
C      1  0.5272390000000  0.4312980000000  0.4445010000000 1.0
C      1  0.5492590000000  0.4473600000000  0.4378780000000 1.0
C      1  0.4961780000000  0.5357980000000  0.4613920000000 1.0
C      1  0.4852880000000  0.5891700000000  0.5160140000000 1.0
C      1  0.4885150000000  0.5930180000000  0.4873220000000 1.0
C      1  0.4537540000000  0.4396760000000  0.5546610000000 1.0
C      1  0.4456040000000  0.4777810000000  0.4785690000000 1.0
C      1  0.5410870000000  0.5563230000000  0.4830580000000 1.0
C      1  0.5448260000000  0.4518820000000  0.4860190000000 1.0
C      1  0.5898510000000  0.5294520000000  0.4784050000000 1.0
C      1  0.5512600000000  0.4613550000000  0.5798720000000 1.0
C      1  0.5758440000000  0.5203910000000  0.5515650000000 1.0
C      1  0.4819130000000  0.5336490000000  0.5867010000000 1.0
C      1  0.5144260000000  0.5457400000000  0.4852540000000 1.0
C      1  0.5041760000000  0.4258780000000  0.5103070000000 1.0
C      1  0.4230410000000  0.5057880000000  0.5563690000000 1.0
C      1  0.5734680000000  0.4352110000000  0.4527030000000 1.0
C      1  0.4234160000000  0.4597510000000  0.4808020000000 1.0
C      1  0.5157200000000  0.4842970000000  0.5379330000000 1.0
C      1  0.5130790000000  0.5816030000000  0.4556710000000 1.0
C      1  0.4383840000000  0.5255460000000  0.4591830000000 1.0
C      1  0.4181140000000  0.4525090000000  0.5213360000000 1.0
C      1  0.4501480000000  0.5102880000000  0.5076060000000 1.0
C      1  0.5623170000000  0.5387080000000  0.4678160000000 1.0
C      1  0.4558260000000  0.4928210000000  0.5292970000000 1.0
C      1  0.5176370000000  0.4588160000000  0.4747400000000 1.0
C      1  0.4661610000000  0.5696200000000  0.4460640000000 1.0
C      1  0.5776660000000  0.4919270000000  0.5426070000000 1.0
C      1  0.5346640000000  0.4081890000000  0.4791890000000 1.0
C      1  0.5323600000000  0.5130510000000  0.5764370000000 1.0
C      1  0.5120040000000  0.4148140000000  0.4608420000000 1.0
C      1  0.4938930000000  0.4454490000000  0.4892360000000 1.0
C      1  0.4647080000000  0.5408500000000  0.5485880000000 1.0
C      1  0.4370550000000  0.4343900000000  0.4768960000000 1.0
C      1  0.5290230000000  0.5460340000000  0.4229020000000 1.0
C      1  0.5384240000000  0.5825230000000  0.4959900000000 1.0
C      1  0.5222260000000  0.5566150000000  0.5703030000000 1.0
C      1  0.5515910000000  0.5575420000000  0.5676050000000 1.0
C      1  0.4955390000000  0.5041030000000  0.5240690000000 1.0
C      1  0.5020650000000  0.4366320000000  0.5551610000000 1.0
C      1  0.4568900000000  0.4647330000000  0.5729390000000 1.0
C      1  0.5664540000000  0.4661260000000  0.5552780000000 1.0
C      1  0.4855790000000  0.5069320000000  0.5974290000000 1.0
C      1  0.5300390000000  0.4120350000000  0.5081940000000 1.0
C      1  0.4065530000000  0.4702160000000  0.5033200000000 1.0
C      1  0.4836180000000  0.5293330000000  0.4081550000000 1.0
C      1  0.5029580000000  0.4649850000000  0.4436270000000 1.0
END
