TITL C-883735-9890-91 4.22205435925943 125000 -9605.48817165475 0 0 66 (C1) n - 1
REM
REM in /home/nfs/bkarasulu/CARBON/AIRSS/Generating-Clusters/ReaxFF-fromJPCA2015/Units_Real/with-SteepDescent/Only-C1/SD-CG/Try1-3A/FIRE-CG
REM
REM
REM
REM
REM
REM ./C.cell (11c1c37f851c82e70ff6c80c92926a4b)
REM
REM compiler GCC version 9.2.1 20190827 (Red Hat 9.2.1-1)
REM options -cpp -mtune=generic -march=x86-64 -g -O0 -fpre-include=/usr/include/finclude/math-vector-fortran.h
REM seed 47761688 -1578216934 499823159 260373851 -31744678 -34459982 -814014274 306683837 -180798052 175340791 1276148912 528756315 166253029 1579977466 -1808466720 -895753650 1119658120 1462185336 -1445888598 514097617 -1563683987 976495335 1075476797 -297747416 1527378957 223047748 -1697330215 -155636896 2011510169 1959420747 766714557 -2080069836 793752092
REM
CELL 1.54180   50.00000   50.00000   50.00000   90.00000   90.00000   90.00000
LATT -1
SFAC C  
C      1  0.5089230000000  0.5098660000000  0.4315870000000 1.0
C      1  0.4433190000000  0.5133470000000  0.4874420000000 1.0
C      1  0.5061760000000  0.4371690000000  0.5124470000000 1.0
C      1  0.4651410000000  0.4295140000000  0.4915230000000 1.0
C      1  0.4783800000000  0.4841280000000  0.5071440000000 1.0
C      1  0.4445990000000  0.4534110000000  0.5361120000000 1.0
C      1  0.5416150000000  0.4783880000000  0.4540310000000 1.0
C      1  0.4325180000000  0.4972930000000  0.5106490000000 1.0
C      1  0.5303800000000  0.5177330000000  0.5607420000000 1.0
C      1  0.4964010000000  0.5248680000000  0.4676820000000 1.0
C      1  0.5199980000000  0.5065310000000  0.5355590000000 1.0
C      1  0.4637490000000  0.4514860000000  0.5579470000000 1.0
C      1  0.4573310000000  0.5378160000000  0.4995450000000 1.0
C      1  0.5077220000000  0.4395740000000  0.4674360000000 1.0
C      1  0.4811700000000  0.4721350000000  0.5682220000000 1.0
C      1  0.5480480000000  0.5527910000000  0.5117220000000 1.0
C      1  0.5252410000000  0.4391980000000  0.4913110000000 1.0
C      1  0.5571700000000  0.4774120000000  0.4781220000000 1.0
C      1  0.4472250000000  0.5128760000000  0.5565190000000 1.0
C      1  0.4707260000000  0.4981620000000  0.5578240000000 1.0
C      1  0.5248990000000  0.5067230000000  0.4924420000000 1.0
C      1  0.5771640000000  0.5091240000000  0.5130710000000 1.0
C      1  0.5063310000000  0.5630920000000  0.4566700000000 1.0
C      1  0.5581510000000  0.5159220000000  0.5496330000000 1.0
C      1  0.4423550000000  0.5134340000000  0.4541350000000 1.0
C      1  0.4345780000000  0.5182260000000  0.5319570000000 1.0
C      1  0.5481110000000  0.4578110000000  0.4985200000000 1.0
C      1  0.4633850000000  0.4322760000000  0.5374970000000 1.0
C      1  0.5364680000000  0.5014000000000  0.4370780000000 1.0
C      1  0.4799460000000  0.4258380000000  0.5156940000000 1.0
C      1  0.5493220000000  0.4693940000000  0.5253680000000 1.0
C      1  0.4453380000000  0.4850350000000  0.4459870000000 1.0
C      1  0.5103590000000  0.4735520000000  0.5664340000000 1.0
C      1  0.4734670000000  0.4867300000000  0.4539800000000 1.0
C      1  0.5489770000000  0.5243600000000  0.4487900000000 1.0
C      1  0.5154250000000  0.4821850000000  0.4869580000000 1.0
C      1  0.5643180000000  0.5328910000000  0.5265950000000 1.0
C      1  0.5719100000000  0.5022620000000  0.4851300000000 1.0
C      1  0.4387700000000  0.4688180000000  0.5117620000000 1.0
C      1  0.4444930000000  0.4581520000000  0.4595330000000 1.0
C      1  0.5063930000000  0.5814010000000  0.5043320000000 1.0
C      1  0.4687110000000  0.4457390000000  0.4544140000000 1.0
C      1  0.4819170000000  0.4303290000000  0.4687280000000 1.0
C      1  0.4914010000000  0.5364530000000  0.4407930000000 1.0
C      1  0.5218230000000  0.4769020000000  0.5362430000000 1.0
C      1  0.5546260000000  0.5515440000000  0.4833960000000 1.0
C      1  0.4611110000000  0.5308980000000  0.4418660000000 1.0
C      1  0.5671590000000  0.5273520000000  0.4709900000000 1.0
C      1  0.4978430000000  0.5219710000000  0.5248990000000 1.0
C      1  0.4454370000000  0.4517040000000  0.4883530000000 1.0
C      1  0.4991000000000  0.5754060000000  0.5303080000000 1.0
C      1  0.5265380000000  0.5706430000000  0.5203420000000 1.0
C      1  0.5233020000000  0.4950700000000  0.5809420000000 1.0
C      1  0.4745490000000  0.5035440000000  0.5281440000000 1.0
C      1  0.4533730000000  0.5420310000000  0.5274060000000 1.0
C      1  0.4992490000000  0.5392410000000  0.5483420000000 1.0
C      1  0.4940630000000  0.5677940000000  0.4821230000000 1.0
C      1  0.4677670000000  0.4929380000000  0.4824840000000 1.0
C      1  0.4980090000000  0.4851790000000  0.4393660000000 1.0
C      1  0.5147090000000  0.4683090000000  0.4576340000000 1.0
C      1  0.5037400000000  0.4681030000000  0.5116400000000 1.0
C      1  0.5258040000000  0.5289020000000  0.4672480000000 1.0
C      1  0.5667080000000  0.4912230000000  0.5341880000000 1.0
C      1  0.5338860000000  0.5600160000000  0.4641800000000 1.0
C      1  0.4780120000000  0.5558010000000  0.5403310000000 1.0
C      1  0.4851710000000  0.5405830000000  0.4905070000000 1.0
END
