TITL C-884127-5181-86 -0.0112465574324575 125000 -14410.1083707998 0 0 98 (C1) n - 1
REM
REM in /home/nfs/bkarasulu/CARBON/AIRSS/Generating-Clusters/ReaxFF-fromJPCA2015/Units_Real/with-SteepDescent/Only-C1/SD-CG/Try1-3A/FIRE-CG
REM
REM
REM
REM
REM
REM ./C.cell (11c1c37f851c82e70ff6c80c92926a4b)
REM
REM compiler GCC version 9.2.1 20190827 (Red Hat 9.2.1-1)
REM options -cpp -mtune=generic -march=x86-64 -g -O0 -fpre-include=/usr/include/finclude/math-vector-fortran.h
REM seed 656862472 821708310 -1148369471 1226156767 -7399713 853352472 1424476328 1245365586 -1246169783 1592090933 -587736051 -1582902892 -2060777887 -1199820116 603986151 -1822545114 -402599227 62977589 588220680 1006260247 1711390208 240772465 -315279281 1040098942 650211195 -117044026 277209418 -1636956851 -1896660261 -1833591635 147898625 -1920077362 -280646950
REM
CELL 1.54180   50.00000   50.00000   50.00000   90.00000   90.00000   90.00000
LATT -1
SFAC C  
C      1  0.5267790000000  0.4975460000000  0.5494260000000 1.0
C      1  0.5155180000000  0.5143580000000  0.5039880000000 1.0
C      1  0.4654050000000  0.4985440000000  0.4863010000000 1.0
C      1  0.5909340000000  0.5010480000000  0.5204700000000 1.0
C      1  0.4772440000000  0.4138170000000  0.4942380000000 1.0
C      1  0.4481660000000  0.4749010000000  0.4806740000000 1.0
C      1  0.5483210000000  0.5780860000000  0.5100260000000 1.0
C      1  0.4483210000000  0.5714740000000  0.5143030000000 1.0
C      1  0.4962300000000  0.5273270000000  0.5208280000000 1.0
C      1  0.5646000000000  0.4709830000000  0.4336190000000 1.0
C      1  0.5307540000000  0.4876790000000  0.4639800000000 1.0
C      1  0.5782490000000  0.4778420000000  0.5325740000000 1.0
C      1  0.4111420000000  0.5081170000000  0.4570930000000 1.0
C      1  0.5514760000000  0.5180490000000  0.4336020000000 1.0
C      1  0.5769780000000  0.5401620000000  0.4907710000000 1.0
C      1  0.4021740000000  0.5029660000000  0.5216600000000 1.0
C      1  0.4526580000000  0.5081560000000  0.4328260000000 1.0
C      1  0.4888980000000  0.4394550000000  0.5059090000000 1.0
C      1  0.5070720000000  0.4773850000000  0.5359030000000 1.0
C      1  0.5267440000000  0.4399890000000  0.4500820000000 1.0
C      1  0.4600930000000  0.5780740000000  0.4873410000000 1.0
C      1  0.4714050000000  0.4658730000000  0.5663660000000 1.0
C      1  0.4386040000000  0.4599720000000  0.5300670000000 1.0
C      1  0.5626020000000  0.4660010000000  0.5559150000000 1.0
C      1  0.4397210000000  0.4298280000000  0.4569190000000 1.0
C      1  0.4498940000000  0.4783230000000  0.5494140000000 1.0
C      1  0.4968150000000  0.5010850000000  0.5972710000000 1.0
C      1  0.5463370000000  0.4863070000000  0.5683140000000 1.0
C      1  0.4991250000000  0.5662020000000  0.4442740000000 1.0
C      1  0.5180300000000  0.5782230000000  0.4579790000000 1.0
C      1  0.5005920000000  0.4269580000000  0.4516220000000 1.0
C      1  0.5243260000000  0.5834710000000  0.4988740000000 1.0
C      1  0.4553350000000  0.4602190000000  0.4547040000000 1.0
C      1  0.5455850000000  0.4422290000000  0.5501570000000 1.0
C      1  0.4258710000000  0.5511200000000  0.5197380000000 1.0
C      1  0.4593590000000  0.4803100000000  0.4315540000000 1.0
C      1  0.4296700000000  0.4668920000000  0.5015750000000 1.0
C      1  0.5009710000000  0.4475130000000  0.5315140000000 1.0
C      1  0.5115370000000  0.4663020000000  0.4210230000000 1.0
C      1  0.4870410000000  0.4813970000000  0.4194880000000 1.0
C      1  0.5272670000000  0.4591110000000  0.4747950000000 1.0
C      1  0.5605190000000  0.5527290000000  0.5557550000000 1.0
C      1  0.5462200000000  0.5641640000000  0.4605560000000 1.0
C      1  0.5164390000000  0.4026980000000  0.4921570000000 1.0
C      1  0.4955100000000  0.4962110000000  0.4914010000000 1.0
C      1  0.4710310000000  0.5240710000000  0.4740660000000 1.0
C      1  0.5782660000000  0.5025700000000  0.4704990000000 1.0
C      1  0.4914730000000  0.4395020000000  0.5594240000000 1.0
C      1  0.4034040000000  0.4952680000000  0.4744830000000 1.0
C      1  0.4045150000000  0.4818650000000  0.4996360000000 1.0
C      1  0.4428540000000  0.5073570000000  0.5482580000000 1.0
C      1  0.4903870000000  0.4829370000000  0.5153790000000 1.0
C      1  0.5488090000000  0.5415970000000  0.4472100000000 1.0
C      1  0.5328170000000  0.4136920000000  0.5079630000000 1.0
C      1  0.5006580000000  0.5849060000000  0.4839470000000 1.0
C      1  0.4915460000000  0.5663480000000  0.5499500000000 1.0
C      1  0.4980820000000  0.4553170000000  0.4836360000000 1.0
C      1  0.4774510000000  0.5242410000000  0.4419690000000 1.0
C      1  0.4508620000000  0.4370640000000  0.5404070000000 1.0
C      1  0.5913880000000  0.5164670000000  0.4939370000000 1.0
C      1  0.5445970000000  0.5684200000000  0.5388810000000 1.0
C      1  0.4662830000000  0.5566620000000  0.5595030000000 1.0
C      1  0.5197290000000  0.5533400000000  0.5451690000000 1.0
C      1  0.5774690000000  0.4460050000000  0.4797250000000 1.0
C      1  0.5751060000000  0.4590410000000  0.4555810000000 1.0
C      1  0.4786320000000  0.5543440000000  0.4323610000000 1.0
C      1  0.5512290000000  0.4531170000000  0.4985860000000 1.0
C      1  0.4825940000000  0.5378280000000  0.4967090000000 1.0
C      1  0.4839630000000  0.4825550000000  0.5819760000000 1.0
C      1  0.4849620000000  0.4506570000000  0.4581350000000 1.0
C      1  0.5620500000000  0.5629720000000  0.4866160000000 1.0
C      1  0.4562540000000  0.4189630000000  0.4758470000000 1.0
C      1  0.4665700000000  0.5756770000000  0.5368400000000 1.0
C      1  0.5369690000000  0.4564860000000  0.4278870000000 1.0
C      1  0.4990760000000  0.5062680000000  0.4292720000000 1.0
C      1  0.4078470000000  0.5669540000000  0.5119020000000 1.0
C      1  0.4227590000000  0.5203770000000  0.5320120000000 1.0
C      1  0.4528910000000  0.5672330000000  0.4377240000000 1.0
C      1  0.5430950000000  0.5050990000000  0.5071490000000 1.0
C      1  0.4963540000000  0.4054510000000  0.4725810000000 1.0
C      1  0.5474440000000  0.4326500000000  0.5205810000000 1.0
C      1  0.4288730000000  0.5234980000000  0.4409480000000 1.0
C      1  0.5259000000000  0.5030270000000  0.4401990000000 1.0
C      1  0.5503090000000  0.5103290000000  0.5855210000000 1.0
C      1  0.5225290000000  0.5169340000000  0.5931690000000 1.0
C      1  0.4437230000000  0.5725850000000  0.4631620000000 1.0
C      1  0.5554780000000  0.4789290000000  0.5132850000000 1.0
C      1  0.4829170000000  0.5652380000000  0.4919170000000 1.0
C      1  0.5503300000000  0.5036130000000  0.4787920000000 1.0
C      1  0.4619290000000  0.5269110000000  0.5589670000000 1.0
C      1  0.5726810000000  0.4980400000000  0.4416450000000 1.0
C      1  0.4884810000000  0.5201340000000  0.5489520000000 1.0
C      1  0.5217110000000  0.4357650000000  0.5658890000000 1.0
C      1  0.5299150000000  0.5261360000000  0.5465020000000 1.0
C      1  0.4670630000000  0.4179790000000  0.5526990000000 1.0
C      1  0.5613350000000  0.5329510000000  0.5720140000000 1.0
C      1  0.4312570000000  0.5525230000000  0.4463660000000 1.0
C      1  0.4996180000000  0.5230100000000  0.5771270000000 1.0
END
