TITL C-883729-9652-184 39.5770016823634 125000 -26433.383599123 0 0 180 (C1) n - 1
REM
REM in /home/nfs/bkarasulu/CARBON/AIRSS/Generating-Clusters/ReaxFF-fromJPCA2015/Units_Real/with-SteepDescent/Only-C1/SD-CG/Try1-3A/FIRE-CG
REM
REM
REM
REM
REM
REM ./C.cell (11c1c37f851c82e70ff6c80c92926a4b)
REM
REM compiler GCC version 9.2.1 20190827 (Red Hat 9.2.1-1)
REM options -cpp -mtune=generic -march=x86-64 -g -O0 -fpre-include=/usr/include/finclude/math-vector-fortran.h
REM seed -1391025702 2115712113 -1202551647 -203344116 -39285805 529374464 -1030101937 1142313818 -356090725 -109516789 -1296510729 2083063123 -377312036 -1749908790 2035915286 1647963822 -399792448 -1229258160 -1144492427 -844078040 -1715119563 1459478305 1481441255 -284639451 1027010891 757451046 817551931 717807278 1963555673 -1317103306 -1449981813 -1080079176 -980740746
REM
CELL 1.54180   50.00000   50.00000   50.00000   90.00000   90.00000   90.00000
LATT -1
SFAC C  
C      1  0.5606880000000  0.4896050000000  0.4817830000000 1.0
C      1  0.4407000000000  0.5821650000000  0.5397600000000 1.0
C      1  0.4706260000000  0.3908330000000  0.5199100000000 1.0
C      1  0.5935810000000  0.5398880000000  0.5081610000000 1.0
C      1  0.5761120000000  0.5326540000000  0.4155880000000 1.0
C      1  0.5739160000000  0.4492200000000  0.5582510000000 1.0
C      1  0.4946730000000  0.4618750000000  0.4103510000000 1.0
C      1  0.4576090000000  0.5603900000000  0.4652480000000 1.0
C      1  0.4972280000000  0.4693500000000  0.5031740000000 1.0
C      1  0.5547440000000  0.4590810000000  0.4053730000000 1.0
C      1  0.5517860000000  0.4495220000000  0.5767780000000 1.0
C      1  0.6006170000000  0.4773330000000  0.4516100000000 1.0
C      1  0.5382560000000  0.4388630000000  0.5055880000000 1.0
C      1  0.5147480000000  0.4082010000000  0.4571320000000 1.0
C      1  0.4133870000000  0.5326730000000  0.4368380000000 1.0
C      1  0.4024210000000  0.4680550000000  0.4898320000000 1.0
C      1  0.4845520000000  0.5120170000000  0.4877080000000 1.0
C      1  0.5811010000000  0.4586760000000  0.4450040000000 1.0
C      1  0.3977430000000  0.4669900000000  0.5450100000000 1.0
C      1  0.4644850000000  0.4950790000000  0.5037550000000 1.0
C      1  0.4498610000000  0.4151450000000  0.5556150000000 1.0
C      1  0.5417420000000  0.4835070000000  0.4016460000000 1.0
C      1  0.4487750000000  0.4463430000000  0.5548320000000 1.0
C      1  0.5101400000000  0.5306640000000  0.5511870000000 1.0
C      1  0.5124720000000  0.5314760000000  0.3873200000000 1.0
C      1  0.5373120000000  0.4632320000000  0.4531970000000 1.0
C      1  0.5556860000000  0.5128640000000  0.4663800000000 1.0
C      1  0.5727340000000  0.4657320000000  0.4229400000000 1.0
C      1  0.5256510000000  0.5579360000000  0.3981510000000 1.0
C      1  0.5909300000000  0.5012630000000  0.5418640000000 1.0
C      1  0.4664510000000  0.4693430000000  0.4233580000000 1.0
C      1  0.5420100000000  0.6042520000000  0.5606080000000 1.0
C      1  0.3988140000000  0.5281080000000  0.4766170000000 1.0
C      1  0.4567750000000  0.5112050000000  0.5889030000000 1.0
C      1  0.4760530000000  0.4013780000000  0.4920860000000 1.0
C      1  0.4408960000000  0.4776270000000  0.4066770000000 1.0
C      1  0.5045600000000  0.5089320000000  0.6093450000000 1.0
C      1  0.4920300000000  0.6091790000000  0.5146110000000 1.0
C      1  0.4983540000000  0.5115020000000  0.5684280000000 1.0
C      1  0.6035450000000  0.5085660000000  0.4504140000000 1.0
C      1  0.4099150000000  0.4635660000000  0.5181350000000 1.0
C      1  0.4742250000000  0.4010780000000  0.5588860000000 1.0
C      1  0.5172580000000  0.5565100000000  0.5878790000000 1.0
C      1  0.5151590000000  0.5934690000000  0.5079190000000 1.0
C      1  0.6074450000000  0.5181160000000  0.4757580000000 1.0
C      1  0.4504380000000  0.5372470000000  0.5075960000000 1.0
C      1  0.4431300000000  0.5104910000000  0.5171760000000 1.0
C      1  0.5562410000000  0.5159370000000  0.5996600000000 1.0
C      1  0.4336640000000  0.5312860000000  0.4149010000000 1.0
C      1  0.4964930000000  0.4874770000000  0.5297140000000 1.0
C      1  0.4604170000000  0.5422330000000  0.4173860000000 1.0
C      1  0.5117500000000  0.4832020000000  0.4007660000000 1.0
C      1  0.5122720000000  0.6069590000000  0.5661650000000 1.0
C      1  0.5103080000000  0.3857930000000  0.5218630000000 1.0
C      1  0.5820110000000  0.5561700000000  0.4591970000000 1.0
C      1  0.5154670000000  0.4778730000000  0.4454210000000 1.0
C      1  0.4468600000000  0.5307220000000  0.4777430000000 1.0
C      1  0.5535360000000  0.5655630000000  0.4490960000000 1.0
C      1  0.4548340000000  0.4678130000000  0.4987430000000 1.0
C      1  0.5541890000000  0.5100700000000  0.4097340000000 1.0
C      1  0.5597820000000  0.5785720000000  0.4977230000000 1.0
C      1  0.4987050000000  0.5361260000000  0.6007240000000 1.0
C      1  0.4922710000000  0.6050740000000  0.5432580000000 1.0
C      1  0.4693350000000  0.5055800000000  0.5619990000000 1.0
C      1  0.4124370000000  0.4682410000000  0.5712990000000 1.0
C      1  0.5741590000000  0.4138710000000  0.5181540000000 1.0
C      1  0.4976860000000  0.4586620000000  0.5994800000000 1.0
C      1  0.4497380000000  0.4722530000000  0.4698860000000 1.0
C      1  0.4984610000000  0.5088210000000  0.3981310000000 1.0
C      1  0.5801530000000  0.5600880000000  0.4870600000000 1.0
C      1  0.3992190000000  0.5343050000000  0.5046190000000 1.0
C      1  0.5448340000000  0.4962990000000  0.5057730000000 1.0
C      1  0.5541250000000  0.4310440000000  0.4346440000000 1.0
C      1  0.5604010000000  0.5311070000000  0.5755320000000 1.0
C      1  0.5545280000000  0.4553860000000  0.5214900000000 1.0
C      1  0.4723900000000  0.5139830000000  0.4139880000000 1.0
C      1  0.5404690000000  0.3899160000000  0.5225360000000 1.0
C      1  0.5177540000000  0.4905450000000  0.5724080000000 1.0
C      1  0.4405400000000  0.4642080000000  0.5773680000000 1.0
C      1  0.4081740000000  0.5494970000000  0.4600690000000 1.0
C      1  0.5323070000000  0.5527780000000  0.4660780000000 1.0
C      1  0.5190900000000  0.5764570000000  0.4192420000000 1.0
C      1  0.5492780000000  0.4656800000000  0.6001040000000 1.0
C      1  0.3960910000000  0.4908110000000  0.5611670000000 1.0
C      1  0.4434560000000  0.5061730000000  0.4028860000000 1.0
C      1  0.5330080000000  0.5083100000000  0.6152560000000 1.0
C      1  0.5057850000000  0.5519660000000  0.4616510000000 1.0
C      1  0.5235750000000  0.4116270000000  0.5612970000000 1.0
C      1  0.4806010000000  0.5533340000000  0.5062500000000 1.0
C      1  0.4799450000000  0.4519070000000  0.5530050000000 1.0
C      1  0.5362840000000  0.5933850000000  0.4879380000000 1.0
C      1  0.5068760000000  0.4369990000000  0.4174480000000 1.0
C      1  0.5405830000000  0.5333240000000  0.3925480000000 1.0
C      1  0.5242110000000  0.5114950000000  0.4915250000000 1.0
C      1  0.4305250000000  0.4233260000000  0.4801460000000 1.0
C      1  0.4933580000000  0.4893570000000  0.4557630000000 1.0
C      1  0.4992920000000  0.4420900000000  0.5758530000000 1.0
C      1  0.5061700000000  0.5055220000000  0.4712440000000 1.0
C      1  0.4532320000000  0.5838620000000  0.5669410000000 1.0
C      1  0.3914450000000  0.4953080000000  0.4800340000000 1.0
C      1  0.4757780000000  0.4811280000000  0.5481220000000 1.0
C      1  0.4399170000000  0.5953910000000  0.5139880000000 1.0
C      1  0.4163840000000  0.4620230000000  0.4169440000000 1.0
C      1  0.5515660000000  0.5767430000000  0.5565870000000 1.0
C      1  0.5425220000000  0.5333090000000  0.4848440000000 1.0
C      1  0.5581640000000  0.5669170000000  0.5266770000000 1.0
C      1  0.4457010000000  0.5011770000000  0.4598550000000 1.0
C      1  0.4193450000000  0.5377710000000  0.5557470000000 1.0
C      1  0.5808180000000  0.5462640000000  0.5323760000000 1.0
C      1  0.4845390000000  0.4842260000000  0.6049440000000 1.0
C      1  0.4953890000000  0.4199180000000  0.4387280000000 1.0
C      1  0.5786470000000  0.5254270000000  0.5530240000000 1.0
C      1  0.5056210000000  0.3974930000000  0.4821420000000 1.0
C      1  0.5078680000000  0.5665030000000  0.5214790000000 1.0
C      1  0.4178830000000  0.5833190000000  0.4981590000000 1.0
C      1  0.4071460000000  0.4863860000000  0.4278730000000 1.0
C      1  0.5884430000000  0.4717940000000  0.5454250000000 1.0
C      1  0.5617720000000  0.4624380000000  0.4680820000000 1.0
C      1  0.4697320000000  0.5731710000000  0.4896020000000 1.0
C      1  0.4199560000000  0.5762870000000  0.4690820000000 1.0
C      1  0.4137110000000  0.4496570000000  0.4430950000000 1.0
C      1  0.6083110000000  0.4712980000000  0.4790940000000 1.0
C      1  0.3997820000000  0.5637910000000  0.5108780000000 1.0
C      1  0.5002600000000  0.3963270000000  0.5488230000000 1.0
C      1  0.5127210000000  0.4536650000000  0.4618970000000 1.0
C      1  0.5994860000000  0.4494060000000  0.4962320000000 1.0
C      1  0.5439190000000  0.5552940000000  0.5757140000000 1.0
C      1  0.6010790000000  0.5120000000000  0.5160300000000 1.0
C      1  0.5043240000000  0.5789740000000  0.5743560000000 1.0
C      1  0.5359000000000  0.5893350000000  0.4384330000000 1.0
C      1  0.4038960000000  0.5153280000000  0.5466780000000 1.0
C      1  0.4698040000000  0.4303340000000  0.5051160000000 1.0
C      1  0.4123010000000  0.4451440000000  0.4703720000000 1.0
C      1  0.4900590000000  0.5390160000000  0.4830760000000 1.0
C      1  0.5201200000000  0.4805580000000  0.5461610000000 1.0
C      1  0.4593290000000  0.4546730000000  0.4490110000000 1.0
C      1  0.5550970000000  0.4319340000000  0.4818620000000 1.0
C      1  0.4458680000000  0.4010270000000  0.5296130000000 1.0
C      1  0.5830230000000  0.4247470000000  0.4937210000000 1.0
C      1  0.5094640000000  0.4437490000000  0.5088110000000 1.0
C      1  0.4137930000000  0.5122540000000  0.5194260000000 1.0
C      1  0.4957180000000  0.5716470000000  0.4404920000000 1.0
C      1  0.5336280000000  0.5508040000000  0.5179730000000 1.0
C      1  0.5366990000000  0.4362740000000  0.4134440000000 1.0
C      1  0.4936920000000  0.5760380000000  0.5469660000000 1.0
C      1  0.5031330000000  0.5158340000000  0.5288220000000 1.0
C      1  0.4568530000000  0.5562170000000  0.5782390000000 1.0
C      1  0.5222740000000  0.4746140000000  0.5967290000000 1.0
C      1  0.4443440000000  0.5874200000000  0.4586600000000 1.0
C      1  0.4665250000000  0.6058790000000  0.4658030000000 1.0
C      1  0.4184550000000  0.5046460000000  0.4455740000000 1.0
C      1  0.4931640000000  0.5997050000000  0.4560370000000 1.0
C      1  0.5303810000000  0.5251760000000  0.5310070000000 1.0
C      1  0.4545110000000  0.4120910000000  0.4702210000000 1.0
C      1  0.4697160000000  0.5370680000000  0.5964990000000 1.0
C      1  0.4714440000000  0.5573680000000  0.4390680000000 1.0
C      1  0.4661620000000  0.6015830000000  0.4984080000000 1.0
C      1  0.5541120000000  0.5439220000000  0.4305480000000 1.0
C      1  0.4568360000000  0.4829290000000  0.5958160000000 1.0
C      1  0.5838680000000  0.4603330000000  0.5187260000000 1.0
C      1  0.5914990000000  0.5344190000000  0.4411700000000 1.0
C      1  0.4400530000000  0.4264280000000  0.5093050000000 1.0
C      1  0.5429390000000  0.4804210000000  0.5296660000000 1.0
C      1  0.5709730000000  0.4216420000000  0.5447520000000 1.0
C      1  0.4349450000000  0.5518260000000  0.5357960000000 1.0
C      1  0.3681350000000  0.4888240000000  0.4876950000000 1.0
C      1  0.4470640000000  0.5374000000000  0.5574930000000 1.0
C      1  0.4378050000000  0.4548580000000  0.5223190000000 1.0
C      1  0.5240320000000  0.4005700000000  0.5023120000000 1.0
C      1  0.5221860000000  0.6004240000000  0.4612910000000 1.0
C      1  0.5484760000000  0.4027050000000  0.5477170000000 1.0
C      1  0.5457230000000  0.5176430000000  0.4391850000000 1.0
C      1  0.4875870000000  0.4356360000000  0.5265480000000 1.0
C      1  0.5431900000000  0.4174640000000  0.4569560000000 1.0
C      1  0.5259570000000  0.4365010000000  0.5713670000000 1.0
C      1  0.4924620000000  0.4671680000000  0.4757910000000 1.0
C      1  0.6135840000000  0.4972120000000  0.4932580000000 1.0
C      1  0.4686160000000  0.4966240000000  0.4390840000000 1.0
C      1  0.5558740000000  0.4902890000000  0.6104820000000 1.0
C      1  0.4683000000000  0.4266100000000  0.4494150000000 1.0
END
