TITL C-884128-4793-246 54.9233355668202 125000 -28688.9929144251 0 0 192 (C1) n - 1
REM
REM in /home/nfs/bkarasulu/CARBON/AIRSS/Generating-Clusters/ReaxFF-fromJPCA2015/Units_Real/with-SteepDescent/Only-C1/SD-CG/Try1-3A/FIRE-CG
REM
REM
REM
REM
REM
REM ./C.cell (11c1c37f851c82e70ff6c80c92926a4b)
REM
REM compiler GCC version 9.2.1 20190827 (Red Hat 9.2.1-1)
REM options -cpp -mtune=generic -march=x86-64 -g -O0 -fpre-include=/usr/include/finclude/math-vector-fortran.h
REM seed -999520781 1807260947 -1191829326 819805766 -1049183177 182443991 1315632440 -537371095 2094792136 251990079 1799612131 -2013801760 -822883074 870197030 1082373057 1273672181 932753625 -609929252 1961766358 -647234459 -1803488477 -1260599373 -1894572111 -1204864620 -172959653 181353834 -1784009148 -1250470279 444774211 1638772164 -103100615 -2009246717 -1015681428
REM
CELL 1.54180   50.00000   50.00000   50.00000   90.00000   90.00000   90.00000
LATT -1
SFAC C  
C      1  0.4199920000000  0.5100610000000  0.5297340000000 1.0
C      1  0.4665720000000  0.5190530000000  0.3888460000000 1.0
C      1  0.4990400000000  0.3920530000000  0.4542990000000 1.0
C      1  0.4697850000000  0.5951110000000  0.5471160000000 1.0
C      1  0.4809070000000  0.4133960000000  0.4386500000000 1.0
C      1  0.4260190000000  0.5619760000000  0.4983000000000 1.0
C      1  0.6012120000000  0.4788540000000  0.4613380000000 1.0
C      1  0.5045310000000  0.5684660000000  0.4983280000000 1.0
C      1  0.5058270000000  0.5157720000000  0.4027040000000 1.0
C      1  0.4959380000000  0.4734890000000  0.4473690000000 1.0
C      1  0.5630900000000  0.5701310000000  0.5262690000000 1.0
C      1  0.5046010000000  0.5333000000000  0.5549660000000 1.0
C      1  0.5842530000000  0.5621460000000  0.4586340000000 1.0
C      1  0.4216770000000  0.4271150000000  0.5100820000000 1.0
C      1  0.4331110000000  0.4826680000000  0.4120910000000 1.0
C      1  0.4969040000000  0.5483610000000  0.4526450000000 1.0
C      1  0.5997470000000  0.5168990000000  0.5286760000000 1.0
C      1  0.4671350000000  0.6076600000000  0.5201770000000 1.0
C      1  0.4651390000000  0.4783280000000  0.5167440000000 1.0
C      1  0.5466780000000  0.4462950000000  0.4178910000000 1.0
C      1  0.5640600000000  0.4214200000000  0.5380310000000 1.0
C      1  0.4983940000000  0.4706240000000  0.3933020000000 1.0
C      1  0.5345840000000  0.5306930000000  0.5480550000000 1.0
C      1  0.5337360000000  0.5020160000000  0.4407030000000 1.0
C      1  0.5055550000000  0.4982770000000  0.6183190000000 1.0
C      1  0.5025800000000  0.3803250000000  0.5055310000000 1.0
C      1  0.4263490000000  0.5937840000000  0.5272890000000 1.0
C      1  0.4709670000000  0.5490730000000  0.3951620000000 1.0
C      1  0.5411820000000  0.4937270000000  0.5160270000000 1.0
C      1  0.5408340000000  0.4455780000000  0.4977360000000 1.0
C      1  0.5437070000000  0.5483730000000  0.5264620000000 1.0
C      1  0.5156110000000  0.4369680000000  0.5370450000000 1.0
C      1  0.5695280000000  0.5153170000000  0.6025100000000 1.0
C      1  0.5933540000000  0.5357710000000  0.4916070000000 1.0
C      1  0.5063810000000  0.5203920000000  0.4503380000000 1.0
C      1  0.5287070000000  0.5414630000000  0.6047780000000 1.0
C      1  0.5416550000000  0.4523260000000  0.4463940000000 1.0
C      1  0.4890570000000  0.4982360000000  0.3867010000000 1.0
C      1  0.4178940000000  0.4431540000000  0.5661670000000 1.0
C      1  0.6096410000000  0.4996740000000  0.5059700000000 1.0
C      1  0.4787040000000  0.5735180000000  0.4859300000000 1.0
C      1  0.5187590000000  0.4098960000000  0.4668790000000 1.0
C      1  0.4937730000000  0.4498030000000  0.5946860000000 1.0
C      1  0.4813120000000  0.3985260000000  0.5532330000000 1.0
C      1  0.5549330000000  0.5128350000000  0.5563050000000 1.0
C      1  0.4930560000000  0.5868930000000  0.5623840000000 1.0
C      1  0.5477420000000  0.5144590000000  0.4165670000000 1.0
C      1  0.5810930000000  0.4338700000000  0.4780140000000 1.0
C      1  0.5890380000000  0.4528250000000  0.4531550000000 1.0
C      1  0.4351160000000  0.4455440000000  0.5905040000000 1.0
C      1  0.4793130000000  0.4175580000000  0.5745400000000 1.0
C      1  0.5229000000000  0.5664240000000  0.5909690000000 1.0
C      1  0.5884330000000  0.5334690000000  0.4478570000000 1.0
C      1  0.4997490000000  0.4749870000000  0.5496890000000 1.0
C      1  0.4687380000000  0.4625710000000  0.4512070000000 1.0
C      1  0.5555930000000  0.4683420000000  0.5087240000000 1.0
C      1  0.4975010000000  0.5557170000000  0.3936190000000 1.0
C      1  0.4013800000000  0.5320540000000  0.5348340000000 1.0
C      1  0.5140780000000  0.4508280000000  0.4934710000000 1.0
C      1  0.4553190000000  0.5200700000000  0.5022670000000 1.0
C      1  0.5152060000000  0.4296830000000  0.5879480000000 1.0
C      1  0.5620090000000  0.5616100000000  0.5713000000000 1.0
C      1  0.5618610000000  0.5760320000000  0.4470970000000 1.0
C      1  0.4302980000000  0.4177490000000  0.5592490000000 1.0
C      1  0.6051090000000  0.5592970000000  0.5042780000000 1.0
C      1  0.4259410000000  0.5758830000000  0.4585550000000 1.0
C      1  0.5302740000000  0.5614820000000  0.4174570000000 1.0
C      1  0.5044240000000  0.5251060000000  0.6071640000000 1.0
C      1  0.5033930000000  0.4853520000000  0.4726320000000 1.0
C      1  0.5866590000000  0.4365630000000  0.5266360000000 1.0
C      1  0.4296860000000  0.5063090000000  0.5017070000000 1.0
C      1  0.5399410000000  0.5804010000000  0.5715860000000 1.0
C      1  0.4656430000000  0.5532480000000  0.5287560000000 1.0
C      1  0.4285920000000  0.4248960000000  0.4542620000000 1.0
C      1  0.5663830000000  0.4812320000000  0.4836340000000 1.0
C      1  0.4192840000000  0.4908850000000  0.5518060000000 1.0
C      1  0.4520770000000  0.5251580000000  0.4540190000000 1.0
C      1  0.4032990000000  0.4418880000000  0.4530100000000 1.0
C      1  0.5104930000000  0.3934190000000  0.5467690000000 1.0
C      1  0.4517590000000  0.4217610000000  0.5803270000000 1.0
C      1  0.5075890000000  0.5289990000000  0.5079970000000 1.0
C      1  0.5144820000000  0.5589030000000  0.4726840000000 1.0
C      1  0.5456750000000  0.6007610000000  0.4944550000000 1.0
C      1  0.3882470000000  0.5270730000000  0.5077550000000 1.0
C      1  0.5529020000000  0.4780900000000  0.4540050000000 1.0
C      1  0.4354330000000  0.4114250000000  0.5312750000000 1.0
C      1  0.4498240000000  0.4208310000000  0.4339620000000 1.0
C      1  0.4683520000000  0.5049500000000  0.5270660000000 1.0
C      1  0.4204860000000  0.5289300000000  0.4486340000000 1.0
C      1  0.3935350000000  0.4633690000000  0.4723910000000 1.0
C      1  0.5996410000000  0.4752680000000  0.4910550000000 1.0
C      1  0.5382620000000  0.5939870000000  0.4477690000000 1.0
C      1  0.4576420000000  0.4393580000000  0.4128650000000 1.0
C      1  0.4332890000000  0.4220940000000  0.4831690000000 1.0
C      1  0.5866870000000  0.4807190000000  0.5416650000000 1.0
C      1  0.6130120000000  0.5156540000000  0.4827430000000 1.0
C      1  0.5150080000000  0.6085130000000  0.5289420000000 1.0
C      1  0.4074420000000  0.5036860000000  0.4477100000000 1.0
C      1  0.4479820000000  0.4941130000000  0.5908720000000 1.0
C      1  0.4559520000000  0.4674180000000  0.4905950000000 1.0
C      1  0.4898540000000  0.4722770000000  0.5760310000000 1.0
C      1  0.4805550000000  0.4620530000000  0.5332550000000 1.0
C      1  0.5215520000000  0.5409060000000  0.3975810000000 1.0
C      1  0.3848910000000  0.4979890000000  0.5045480000000 1.0
C      1  0.5002880000000  0.6101530000000  0.4797030000000 1.0
C      1  0.5702630000000  0.4786100000000  0.4266940000000 1.0
C      1  0.4083920000000  0.5519220000000  0.4609180000000 1.0
C      1  0.5534830000000  0.4885360000000  0.4049300000000 1.0
C      1  0.4759400000000  0.4224370000000  0.5043460000000 1.0
C      1  0.5256140000000  0.4760260000000  0.6221690000000 1.0
C      1  0.4686820000000  0.5725970000000  0.4170980000000 1.0
C      1  0.5804450000000  0.5620720000000  0.5481700000000 1.0
C      1  0.5007100000000  0.4246740000000  0.4166270000000 1.0
C      1  0.4886350000000  0.5867350000000  0.4337000000000 1.0
C      1  0.5651640000000  0.5308440000000  0.4839150000000 1.0
C      1  0.5132260000000  0.5003180000000  0.5129470000000 1.0
C      1  0.4287940000000  0.5345170000000  0.5765690000000 1.0
C      1  0.5502650000000  0.4886040000000  0.5726820000000 1.0
C      1  0.4554080000000  0.5539420000000  0.5011970000000 1.0
C      1  0.6027960000000  0.5083020000000  0.4564060000000 1.0
C      1  0.5178030000000  0.4188200000000  0.5597950000000 1.0
C      1  0.5188620000000  0.5964860000000  0.5557660000000 1.0
C      1  0.4569490000000  0.4379890000000  0.4906240000000 1.0
C      1  0.5490610000000  0.5531520000000  0.4374390000000 1.0
C      1  0.5568080000000  0.5404280000000  0.5942670000000 1.0
C      1  0.4441760000000  0.4711500000000  0.5934280000000 1.0
C      1  0.5290540000000  0.6077930000000  0.4714230000000 1.0
C      1  0.5774680000000  0.4629360000000  0.5299690000000 1.0
C      1  0.4983050000000  0.4690950000000  0.6169380000000 1.0
C      1  0.4535860000000  0.5706990000000  0.5494660000000 1.0
C      1  0.5176600000000  0.5852860000000  0.4288490000000 1.0
C      1  0.4303670000000  0.4803770000000  0.4921750000000 1.0
C      1  0.5023910000000  0.4332460000000  0.4746310000000 1.0
C      1  0.4828530000000  0.5928380000000  0.4640440000000 1.0
C      1  0.4503040000000  0.5698550000000  0.4407290000000 1.0
C      1  0.5423250000000  0.5485020000000  0.4766480000000 1.0
C      1  0.4460250000000  0.5087320000000  0.4064140000000 1.0
C      1  0.4125440000000  0.4859420000000  0.4706910000000 1.0
C      1  0.4033930000000  0.4602360000000  0.4320630000000 1.0
C      1  0.4162300000000  0.4631880000000  0.5447380000000 1.0
C      1  0.5987250000000  0.5465750000000  0.5299990000000 1.0
C      1  0.5821140000000  0.5061880000000  0.5473430000000 1.0
C      1  0.4402600000000  0.6060770000000  0.5062760000000 1.0
C      1  0.5473650000000  0.4641100000000  0.5573650000000 1.0
C      1  0.5776300000000  0.4511280000000  0.4264790000000 1.0
C      1  0.4257330000000  0.5049440000000  0.5771630000000 1.0
C      1  0.5553650000000  0.4221050000000  0.4885840000000 1.0
C      1  0.3894350000000  0.4695830000000  0.5011380000000 1.0
C      1  0.4120210000000  0.4546140000000  0.5164390000000 1.0
C      1  0.4810140000000  0.4366270000000  0.4573220000000 1.0
C      1  0.5291780000000  0.4705770000000  0.4032630000000 1.0
C      1  0.4603330000000  0.3956890000000  0.5321240000000 1.0
C      1  0.5248000000000  0.4645430000000  0.5394750000000 1.0
C      1  0.5652190000000  0.4862010000000  0.5974100000000 1.0
C      1  0.5951430000000  0.4441160000000  0.4997920000000 1.0
C      1  0.4931250000000  0.6147070000000  0.5091430000000 1.0
C      1  0.4810310000000  0.5425590000000  0.5964180000000 1.0
C      1  0.5251550000000  0.5878320000000  0.5113930000000 1.0
C      1  0.4685070000000  0.5508270000000  0.4524600000000 1.0
C      1  0.5906340000000  0.5754700000000  0.4840280000000 1.0
C      1  0.4932410000000  0.5433620000000  0.5295550000000 1.0
C      1  0.4032110000000  0.5459700000000  0.4896110000000 1.0
C      1  0.5161210000000  0.4813430000000  0.4289010000000 1.0
C      1  0.5390820000000  0.4235270000000  0.4508610000000 1.0
C      1  0.4498820000000  0.4633070000000  0.4274660000000 1.0
C      1  0.5251240000000  0.3923170000000  0.5214670000000 1.0
C      1  0.4129340000000  0.5489550000000  0.5553420000000 1.0
C      1  0.4931340000000  0.5103260000000  0.4722270000000 1.0
C      1  0.4906290000000  0.5178890000000  0.4268560000000 1.0
C      1  0.4239780000000  0.5758110000000  0.5493130000000 1.0
C      1  0.5036200000000  0.4768170000000  0.4985630000000 1.0
C      1  0.5473600000000  0.4639060000000  0.6062640000000 1.0
C      1  0.5564290000000  0.4370970000000  0.5633840000000 1.0
C      1  0.5293240000000  0.4219770000000  0.4221690000000 1.0
C      1  0.4981290000000  0.3765600000000  0.4775250000000 1.0
C      1  0.5322510000000  0.5406640000000  0.5027930000000 1.0
C      1  0.5696490000000  0.5858900000000  0.5017980000000 1.0
C      1  0.4270940000000  0.5882090000000  0.4850590000000 1.0
C      1  0.5678320000000  0.5328180000000  0.4282030000000 1.0
C      1  0.4902630000000  0.4375040000000  0.5236870000000 1.0
C      1  0.4730810000000  0.4954040000000  0.5765570000000 1.0
C      1  0.5568170000000  0.5056600000000  0.4945480000000 1.0
C      1  0.5494770000000  0.4086620000000  0.5159950000000 1.0
C      1  0.4548180000000  0.5392680000000  0.5875310000000 1.0
C      1  0.4968130000000  0.5590970000000  0.5762330000000 1.0
C      1  0.5430610000000  0.4392400000000  0.5899870000000 1.0
C      1  0.4661130000000  0.5136090000000  0.4770700000000 1.0
C      1  0.4631310000000  0.5140120000000  0.4293870000000 1.0
C      1  0.4863090000000  0.4451630000000  0.4023860000000 1.0
C      1  0.4748660000000  0.3927110000000  0.5071820000000 1.0
C      1  0.4058100000000  0.4864220000000  0.4227130000000 1.0
C      1  0.4802670000000  0.5111600000000  0.5525530000000 1.0
END
