TITL C-884131-4643-45 -581145.621097048 125000 -18271.4482166354 0 0 122 (C1) n - 1
REM
REM in /home/nfs/bkarasulu/CARBON/AIRSS/Generating-Clusters/ReaxFF-fromJPCA2015/Units_Real/with-SteepDescent/Only-C1/SD-CG/Try1-3A/FIRE-CG
REM
REM
REM
REM
REM
REM ./C.cell (11c1c37f851c82e70ff6c80c92926a4b)
REM
REM compiler GCC version 9.2.1 20190827 (Red Hat 9.2.1-1)
REM options -cpp -mtune=generic -march=x86-64 -g -O0 -fpre-include=/usr/include/finclude/math-vector-fortran.h
REM seed -1721826683 1161432617 132566562 977485472 2133517036 -77297945 -1791420509 1572164124 -983598290 -1848238893 1063820482 -391467442 1344494302 1739118543 2037832596 663325767 -659660641 917138293 -2119019549 -1471821765 -1546456659 1764366705 817484667 415383441 2078977946 2021561981 -1014791001 1381245055 -1088644129 1637417581 1675300711 1802416019 1639704040
REM
CELL 1.54180   50.00000   50.00000   50.00000   90.00000   90.00000   90.00000
LATT -1
SFAC C  
C      1  0.5345050000000  0.4535450000000  0.5790400000000 1.0
C      1  0.4262760000000  0.5449100000000  0.4314470000000 1.0
C      1  0.4339190000000  0.4962660000000  0.5610370000000 1.0
C      1  0.5518480000000  0.4796540000000  0.4184180000000 1.0
C      1  0.5488890000000  0.5145760000000  0.4454070000000 1.0
C      1  0.4960450000000  0.4188710000000  0.4574360000000 1.0
C      1  0.4103640000000  0.5240970000000  0.4757190000000 1.0
C      1  0.4065310000000  0.4717970000000  0.4770340000000 1.0
C      1  0.5093280000000  0.5920260000000  0.4534070000000 1.0
C      1  0.4764570000000  0.5235250000000  0.4078950000000 1.0
C      1  0.5037390000000  0.4731310000000  0.5410080000000 1.0
C      1  0.5712800000000  0.5301590000000  0.5665290000000 1.0
C      1  0.4684800000000  0.4693920000000  0.4139790000000 1.0
C      1  0.4605330000000  0.4460220000000  0.4739580000000 1.0
C      1  0.5325430000000  0.4762330000000  0.5982460000000 1.0
C      1  0.4473830000000  0.4118510000000  0.5052850000000 1.0
C      1  0.4961810000000  0.4671150000000  0.4649900000000 1.0
C      1  0.4237530000000  0.4947540000000  0.4369670000000 1.0
C      1  0.4315930000000  0.5243810000000  0.5647880000000 1.0
C      1  0.4988430000000  0.5011720000000  0.4968100000000 1.0
C      1  0.5404610000000  0.5277480000000  0.4038730000000 1.0
C      1  0.4444100000000  0.5600940000000  0.4921870000000 1.0
C      1  0.5033790000000  0.5485580000000  0.4312020000000 1.0
C      1  0.5059500000000  0.4858250000000  0.4468090000000 1.0
C      1  0.4982440000000  0.4222280000000  0.5277210000000 1.0
C      1  0.5281270000000  0.4180920000000  0.5201450000000 1.0
C      1  0.5094740000000  0.4448750000000  0.4530920000000 1.0
C      1  0.5206530000000  0.5339370000000  0.5814050000000 1.0
C      1  0.4745720000000  0.5819250000000  0.5342600000000 1.0
C      1  0.4148030000000  0.5371230000000  0.5208450000000 1.0
C      1  0.5474250000000  0.5625360000000  0.4413100000000 1.0
C      1  0.4669570000000  0.4235440000000  0.4589130000000 1.0
C      1  0.4017020000000  0.4992470000000  0.4900330000000 1.0
C      1  0.4743270000000  0.4352070000000  0.5840780000000 1.0
C      1  0.5100270000000  0.4919250000000  0.5944010000000 1.0
C      1  0.5277990000000  0.4277140000000  0.5827700000000 1.0
C      1  0.4972310000000  0.5152450000000  0.5903870000000 1.0
C      1  0.4030240000000  0.4926250000000  0.5185520000000 1.0
C      1  0.5314150000000  0.5291470000000  0.5049270000000 1.0
C      1  0.4869320000000  0.5433930000000  0.5228670000000 1.0
C      1  0.4607070000000  0.5218630000000  0.4593450000000 1.0
C      1  0.4899620000000  0.4982480000000  0.5453670000000 1.0
C      1  0.4175250000000  0.5471700000000  0.4930300000000 1.0
C      1  0.5232640000000  0.5066840000000  0.3929720000000 1.0
C      1  0.5790440000000  0.5519420000000  0.4964240000000 1.0
C      1  0.5602350000000  0.5721260000000  0.5052900000000 1.0
C      1  0.5386440000000  0.5838000000000  0.4903620000000 1.0
C      1  0.5488230000000  0.4327770000000  0.4767470000000 1.0
C      1  0.4208380000000  0.4810650000000  0.5395880000000 1.0
C      1  0.5885080000000  0.5056940000000  0.5665260000000 1.0
C      1  0.5217600000000  0.5375160000000  0.5548410000000 1.0
C      1  0.5820130000000  0.4897620000000  0.5908870000000 1.0
C      1  0.4627110000000  0.5774860000000  0.5075250000000 1.0
C      1  0.4634240000000  0.5146500000000  0.4307940000000 1.0
C      1  0.4953800000000  0.5051680000000  0.3999690000000 1.0
C      1  0.5829500000000  0.4673280000000  0.5334270000000 1.0
C      1  0.5328730000000  0.4126730000000  0.4917060000000 1.0
C      1  0.4499810000000  0.4894600000000  0.4208110000000 1.0
C      1  0.4895290000000  0.5709710000000  0.4966190000000 1.0
C      1  0.5535930000000  0.4979280000000  0.5972440000000 1.0
C      1  0.5045590000000  0.5907550000000  0.5320230000000 1.0
C      1  0.5316660000000  0.4690200000000  0.5031170000000 1.0
C      1  0.5692230000000  0.4779080000000  0.4691550000000 1.0
C      1  0.5272140000000  0.4794330000000  0.4030850000000 1.0
C      1  0.5724500000000  0.4981870000000  0.5034190000000 1.0
C      1  0.5559070000000  0.5710210000000  0.5350390000000 1.0
C      1  0.4171230000000  0.5215420000000  0.4470660000000 1.0
C      1  0.5170100000000  0.5411870000000  0.5276110000000 1.0
C      1  0.5129840000000  0.5883800000000  0.5042640000000 1.0
C      1  0.5328290000000  0.4772100000000  0.5309810000000 1.0
C      1  0.5722950000000  0.5493380000000  0.5453910000000 1.0
C      1  0.5018670000000  0.5435630000000  0.4597530000000 1.0
C      1  0.4264450000000  0.4346620000000  0.5127670000000 1.0
C      1  0.5831590000000  0.5357910000000  0.5209110000000 1.0
C      1  0.4560570000000  0.4722880000000  0.4647980000000 1.0
C      1  0.5112530000000  0.4001670000000  0.4747740000000 1.0
C      1  0.5486830000000  0.5241550000000  0.5843750000000 1.0
C      1  0.4647960000000  0.4586840000000  0.5688960000000 1.0
C      1  0.5494550000000  0.4305800000000  0.5350850000000 1.0
C      1  0.5786960000000  0.5333910000000  0.4746130000000 1.0
C      1  0.4893480000000  0.4542270000000  0.5237100000000 1.0
C      1  0.4544490000000  0.5495330000000  0.4669130000000 1.0
C      1  0.5554990000000  0.5186770000000  0.5132270000000 1.0
C      1  0.4580490000000  0.4993990000000  0.4771510000000 1.0
C      1  0.4923250000000  0.5693340000000  0.4665530000000 1.0
C      1  0.4150580000000  0.4522860000000  0.4948330000000 1.0
C      1  0.5251910000000  0.5047620000000  0.4576550000000 1.0
C      1  0.5301470000000  0.5833480000000  0.5444740000000 1.0
C      1  0.5959770000000  0.4906840000000  0.5411480000000 1.0
C      1  0.5021430000000  0.4722790000000  0.4938440000000 1.0
C      1  0.4354640000000  0.4563670000000  0.5313690000000 1.0
C      1  0.5311060000000  0.5505200000000  0.4202580000000 1.0
C      1  0.5565280000000  0.4673670000000  0.4453950000000 1.0
C      1  0.4777830000000  0.5497480000000  0.4143670000000 1.0
C      1  0.4209830000000  0.5444720000000  0.5486230000000 1.0
C      1  0.4453190000000  0.4228980000000  0.4780760000000 1.0
C      1  0.4377710000000  0.5213160000000  0.5193030000000 1.0
C      1  0.5482410000000  0.4340480000000  0.5641190000000 1.0
C      1  0.4620310000000  0.4118810000000  0.5675500000000 1.0
C      1  0.4993570000000  0.4811790000000  0.4173140000000 1.0
C      1  0.4272160000000  0.4734030000000  0.4554640000000 1.0
C      1  0.4790440000000  0.5035380000000  0.5706280000000 1.0
C      1  0.4739980000000  0.4084390000000  0.5151480000000 1.0
C      1  0.5953320000000  0.5078020000000  0.5169060000000 1.0
C      1  0.5582650000000  0.4571200000000  0.4914450000000 1.0
C      1  0.5006470000000  0.4217450000000  0.5798120000000 1.0
C      1  0.4504440000000  0.5575700000000  0.4206280000000 1.0
C      1  0.5391480000000  0.4443240000000  0.4523510000000 1.0
C      1  0.4416870000000  0.5631500000000  0.4456270000000 1.0
C      1  0.4555050000000  0.5052630000000  0.5059910000000 1.0
C      1  0.5626880000000  0.5402160000000  0.4520600000000 1.0
C      1  0.5141480000000  0.5199950000000  0.4805610000000 1.0
C      1  0.4638790000000  0.4559630000000  0.5391910000000 1.0
C      1  0.5572560000000  0.5083260000000  0.4180170000000 1.0
C      1  0.4568360000000  0.4860700000000  0.5751190000000 1.0
C      1  0.4896450000000  0.4083780000000  0.5563890000000 1.0
C      1  0.4474400000000  0.5471640000000  0.5592190000000 1.0
C      1  0.4844530000000  0.5114180000000  0.5195220000000 1.0
C      1  0.5812680000000  0.5031830000000  0.4780830000000 1.0
C      1  0.5365150000000  0.5834880000000  0.4601670000000 1.0
C      1  0.4718280000000  0.5551050000000  0.5451910000000 1.0
C      1  0.5691530000000  0.4479710000000  0.5208270000000 1.0
END
