TITL C-883733-4178-444 -0.287985770580854 125000 -6094.39013834534 0 0 42 (C1) n - 1
REM
REM in /home/nfs/bkarasulu/CARBON/AIRSS/Generating-Clusters/ReaxFF-fromJPCA2015/Units_Real/with-SteepDescent/Only-C1/SD-CG/Try1-3A/FIRE-CG
REM
REM
REM
REM
REM
REM ./C.cell (11c1c37f851c82e70ff6c80c92926a4b)
REM
REM compiler GCC version 9.2.1 20190827 (Red Hat 9.2.1-1)
REM options -cpp -mtune=generic -march=x86-64 -g -O0 -fpre-include=/usr/include/finclude/math-vector-fortran.h
REM seed 2094536774 845200866 664376393 524318940 -733501399 -229437211 -1119967591 343211266 -1115053852 92098276 -1318504547 457978116 -1207295622 -1552440933 1038112894 -243421476 -1103889060 616335831 -1893553434 -518156725 -2067443098 2079580079 901135481 1962561800 556004817 1432108900 1824157488 -1836867903 -1526264265 1783602206 1219366309 -1770362716 -780162678
REM
CELL 1.54180   50.00000   50.00000   50.00000   90.00000   90.00000   90.00000
LATT -1
SFAC C  
C      1  0.4560700000000  0.5386260000000  0.5223630000000 1.0
C      1  0.5066310000000  0.5011350000000  0.4496560000000 1.0
C      1  0.4690190000000  0.4871810000000  0.4755550000000 1.0
C      1  0.4967910000000  0.5151040000000  0.5058700000000 1.0
C      1  0.4803090000000  0.5091910000000  0.4592930000000 1.0
C      1  0.4316500000000  0.4849040000000  0.5182260000000 1.0
C      1  0.5593100000000  0.5316650000000  0.4880250000000 1.0
C      1  0.5260420000000  0.5638150000000  0.5132900000000 1.0
C      1  0.4757480000000  0.4690160000000  0.5215990000000 1.0
C      1  0.5278240000000  0.4408890000000  0.4912780000000 1.0
C      1  0.5118630000000  0.5290460000000  0.4859350000000 1.0
C      1  0.4475280000000  0.5308580000000  0.4959480000000 1.0
C      1  0.5485000000000  0.5438870000000  0.5133580000000 1.0
C      1  0.4575740000000  0.4596680000000  0.4693620000000 1.0
C      1  0.4271820000000  0.5112370000000  0.5090620000000 1.0
C      1  0.5209350000000  0.5514390000000  0.4678490000000 1.0
C      1  0.4961750000000  0.4520300000000  0.4564840000000 1.0
C      1  0.5532820000000  0.4965810000000  0.4559710000000 1.0
C      1  0.5264840000000  0.5061020000000  0.5446600000000 1.0
C      1  0.5335330000000  0.5138470000000  0.4457460000000 1.0
C      1  0.4787070000000  0.4376110000000  0.4727850000000 1.0
C      1  0.4770520000000  0.5080030000000  0.5554880000000 1.0
C      1  0.4969950000000  0.5617210000000  0.5097280000000 1.0
C      1  0.5198000000000  0.4501290000000  0.5363740000000 1.0
C      1  0.5463640000000  0.5163170000000  0.5249740000000 1.0
C      1  0.4507360000000  0.4991900000000  0.5522800000000 1.0
C      1  0.5001790000000  0.5206340000000  0.5501490000000 1.0
C      1  0.4675030000000  0.5332860000000  0.4736550000000 1.0
C      1  0.4986790000000  0.4354610000000  0.4953910000000 1.0
C      1  0.4869510000000  0.5369170000000  0.5260630000000 1.0
C      1  0.4808950000000  0.5580830000000  0.4835960000000 1.0
C      1  0.4501640000000  0.4732750000000  0.5359260000000 1.0
C      1  0.5574290000000  0.4828120000000  0.4803090000000 1.0
C      1  0.5592800000000  0.5053380000000  0.5007260000000 1.0
C      1  0.5252230000000  0.4772350000000  0.5471200000000 1.0
C      1  0.5409000000000  0.4382460000000  0.5181260000000 1.0
C      1  0.5355770000000  0.4636580000000  0.4738840000000 1.0
C      1  0.4936750000000  0.4459530000000  0.5221150000000 1.0
C      1  0.5151340000000  0.4725780000000  0.4531060000000 1.0
C      1  0.5468570000000  0.5364100000000  0.4611670000000 1.0
C      1  0.4825470000000  0.4896860000000  0.5015190000000 1.0
C      1  0.4369010000000  0.5212350000000  0.5359890000000 1.0
END
