TITL C-883729-9652-361 -6.2592115054134 125000 -6420.58626566189 0 0 44 (C1) n - 1
REM
REM in /home/nfs/bkarasulu/CARBON/AIRSS/Generating-Clusters/ReaxFF-fromJPCA2015/Units_Real/with-SteepDescent/Only-C1/SD-CG/Try1-3A/FIRE-CG
REM
REM
REM
REM
REM
REM ./C.cell (11c1c37f851c82e70ff6c80c92926a4b)
REM
REM compiler GCC version 9.2.1 20190827 (Red Hat 9.2.1-1)
REM options -cpp -mtune=generic -march=x86-64 -g -O0 -fpre-include=/usr/include/finclude/math-vector-fortran.h
REM seed -1511155694 -2071592586 244902456 905294619 1928430792 1629231680 -33020890 1289786422 1714832319 1105844757 -365869500 1780991769 483753427 944334730 -976601931 1241641940 1521113193 -243262918 1042698573 120339126 -57037977 2074408965 976427496 -2059469047 25696998 831457101 -1840590044 -1364325771 417975361 -891444557 1132219259 1415725864 1994566963
REM
CELL 1.54180   50.00000   50.00000   50.00000   90.00000   90.00000   90.00000
LATT -1
SFAC C  
C      1  0.5391640000000  0.5405880000000  0.5221910000000 1.0
C      1  0.5318070000000  0.4622450000000  0.5536570000000 1.0
C      1  0.4931470000000  0.4782300000000  0.5242320000000 1.0
C      1  0.4625280000000  0.4993120000000  0.4863900000000 1.0
C      1  0.4528010000000  0.5577330000000  0.5068540000000 1.0
C      1  0.4686760000000  0.5000890000000  0.4345060000000 1.0
C      1  0.4585680000000  0.5546390000000  0.4803490000000 1.0
C      1  0.5166560000000  0.5095780000000  0.5496600000000 1.0
C      1  0.4685980000000  0.5336790000000  0.5467490000000 1.0
C      1  0.5193810000000  0.5003310000000  0.4870580000000 1.0
C      1  0.4752620000000  0.5263970000000  0.4756660000000 1.0
C      1  0.5427260000000  0.5154620000000  0.5378640000000 1.0
C      1  0.5381240000000  0.4464110000000  0.4805990000000 1.0
C      1  0.5091300000000  0.5375920000000  0.4411500000000 1.0
C      1  0.4498630000000  0.5530020000000  0.5336390000000 1.0
C      1  0.5599000000000  0.4939540000000  0.5276860000000 1.0
C      1  0.4263730000000  0.4723020000000  0.4848270000000 1.0
C      1  0.5633350000000  0.4879750000000  0.4988750000000 1.0
C      1  0.5092540000000  0.4763620000000  0.4996650000000 1.0
C      1  0.5195740000000  0.4470700000000  0.5035710000000 1.0
C      1  0.4295150000000  0.5048490000000  0.5219610000000 1.0
C      1  0.5236320000000  0.5426740000000  0.4668920000000 1.0
C      1  0.4417820000000  0.5248970000000  0.5396570000000 1.0
C      1  0.5625830000000  0.4589940000000  0.4921590000000 1.0
C      1  0.5468680000000  0.5045250000000  0.4809330000000 1.0
C      1  0.5598570000000  0.4680720000000  0.5418460000000 1.0
C      1  0.4796560000000  0.5231710000000  0.4463810000000 1.0
C      1  0.4678430000000  0.4785230000000  0.4589160000000 1.0
C      1  0.5503760000000  0.5341190000000  0.4756400000000 1.0
C      1  0.4333520000000  0.5008770000000  0.4927490000000 1.0
C      1  0.4968820000000  0.5295120000000  0.5392740000000 1.0
C      1  0.4268300000000  0.4576470000000  0.5115270000000 1.0
C      1  0.5058500000000  0.5290920000000  0.4878070000000 1.0
C      1  0.5105840000000  0.5405040000000  0.5161550000000 1.0
C      1  0.4417780000000  0.4781130000000  0.5276150000000 1.0
C      1  0.5092630000000  0.4812770000000  0.5495820000000 1.0
C      1  0.4676580000000  0.4870090000000  0.5145020000000 1.0
C      1  0.5588950000000  0.5482570000000  0.5005000000000 1.0
C      1  0.5300410000000  0.5352360000000  0.4264340000000 1.0
C      1  0.5167870000000  0.4552560000000  0.4628050000000 1.0
C      1  0.4422440000000  0.4621360000000  0.4618760000000 1.0
C      1  0.5711870000000  0.4506970000000  0.5196950000000 1.0
C      1  0.5256140000000  0.4470530000000  0.5313820000000 1.0
C      1  0.4960560000000  0.4645580000000  0.4585250000000 1.0
END
