TITL C-883732-77-14 242352.93830047 125000 -8682.42285686686 0 0 59 (C1) n - 1
REM
REM in /home/nfs/bkarasulu/CARBON/AIRSS/Generating-Clusters/ReaxFF-fromJPCA2015/Units_Real/with-SteepDescent/Only-C1/SD-CG/Try1-3A/FIRE-CG
REM
REM
REM
REM
REM
REM ./C.cell (11c1c37f851c82e70ff6c80c92926a4b)
REM
REM compiler GCC version 9.2.1 20190827 (Red Hat 9.2.1-1)
REM options -cpp -mtune=generic -march=x86-64 -g -O0 -fpre-include=/usr/include/finclude/math-vector-fortran.h
REM seed 601139213 -1478145771 -305923059 -191631352 793394868 561509892 1052664482 2014356563 -2081393024 -635509586 -1357142108 1432392649 -219919110 912652689 -238532254 1404722197 1189642801 -1770896672 -1934709449 1278986263 771707342 -359925269 726212793 2070781975 742538628 581026967 -417727215 861097537 315702039 1640309296 -883842531 -1213251848 -276871511
REM
CELL 1.54180   50.00000   50.00000   50.00000   90.00000   90.00000   90.00000
LATT -1
SFAC C  
C      1  0.5066450000000  0.5777760000000  0.5442360000000 1.0
C      1  0.4770580000000  0.5130660000000  0.5556280000000 1.0
C      1  0.5101830000000  0.5802040000000  0.5140190000000 1.0
C      1  0.4608420000000  0.4187190000000  0.5025110000000 1.0
C      1  0.5384470000000  0.5501130000000  0.4820510000000 1.0
C      1  0.4693070000000  0.5370860000000  0.5443320000000 1.0
C      1  0.5525710000000  0.5179520000000  0.5574590000000 1.0
C      1  0.4864080000000  0.5130170000000  0.4187330000000 1.0
C      1  0.5258730000000  0.5288500000000  0.5634250000000 1.0
C      1  0.5119050000000  0.5186310000000  0.4289320000000 1.0
C      1  0.4366910000000  0.4799790000000  0.4680910000000 1.0
C      1  0.4380540000000  0.4354690000000  0.4925550000000 1.0
C      1  0.4165270000000  0.4465420000000  0.5107070000000 1.0
C      1  0.5469230000000  0.4564380000000  0.5367780000000 1.0
C      1  0.4841590000000  0.5801160000000  0.5268660000000 1.0
C      1  0.4390680000000  0.4973880000000  0.5237860000000 1.0
C      1  0.4602410000000  0.4919360000000  0.5422750000000 1.0
C      1  0.5545180000000  0.5086200000000  0.4522890000000 1.0
C      1  0.5363460000000  0.4520680000000  0.4615190000000 1.0
C      1  0.5012870000000  0.4584000000000  0.5460880000000 1.0
C      1  0.5179160000000  0.5462450000000  0.4648420000000 1.0
C      1  0.4857780000000  0.4286440000000  0.4889560000000 1.0
C      1  0.5139070000000  0.4793230000000  0.5636560000000 1.0
C      1  0.4222350000000  0.4744840000000  0.5195930000000 1.0
C      1  0.5593980000000  0.5296590000000  0.4719550000000 1.0
C      1  0.5391420000000  0.4702850000000  0.4843000000000 1.0
C      1  0.4985500000000  0.5410270000000  0.4469890000000 1.0
C      1  0.5138450000000  0.4903890000000  0.4945430000000 1.0
C      1  0.4485830000000  0.4527540000000  0.4711750000000 1.0
C      1  0.5653950000000  0.4787950000000  0.4929900000000 1.0
C      1  0.4923680000000  0.4787930000000  0.5103860000000 1.0
C      1  0.4781680000000  0.4898490000000  0.4519290000000 1.0
C      1  0.5517530000000  0.5039070000000  0.5292830000000 1.0
C      1  0.4602700000000  0.5602050000000  0.5309250000000 1.0
C      1  0.5706840000000  0.5032930000000  0.4764310000000 1.0
C      1  0.5295640000000  0.4976050000000  0.4401810000000 1.0
C      1  0.4485570000000  0.5233220000000  0.4486690000000 1.0
C      1  0.4724740000000  0.5252050000000  0.4861070000000 1.0
C      1  0.4771770000000  0.4692870000000  0.5318380000000 1.0
C      1  0.4918310000000  0.4638970000000  0.4483720000000 1.0
C      1  0.4341850000000  0.5083800000000  0.4693230000000 1.0
C      1  0.5417740000000  0.4680890000000  0.5641290000000 1.0
C      1  0.5258580000000  0.4322980000000  0.4793670000000 1.0
C      1  0.5200290000000  0.4701740000000  0.4439890000000 1.0
C      1  0.5342040000000  0.5654350000000  0.5075370000000 1.0
C      1  0.5289160000000  0.5102760000000  0.5136830000000 1.0
C      1  0.4706270000000  0.5386250000000  0.4602930000000 1.0
C      1  0.5627150000000  0.4765070000000  0.5219050000000 1.0
C      1  0.4877020000000  0.5024280000000  0.4767290000000 1.0
C      1  0.5057720000000  0.5077510000000  0.5636970000000 1.0
C      1  0.5476160000000  0.5621240000000  0.5338920000000 1.0
C      1  0.5625430000000  0.5410220000000  0.5455470000000 1.0
C      1  0.4769840000000  0.4466330000000  0.4669120000000 1.0
C      1  0.5256300000000  0.5576140000000  0.5538800000000 1.0
C      1  0.5206170000000  0.4447220000000  0.5290740000000 1.0
C      1  0.4622390000000  0.5047690000000  0.4303690000000 1.0
C      1  0.4420730000000  0.5188640000000  0.4994980000000 1.0
C      1  0.5131560000000  0.4298240000000  0.5042250000000 1.0
C      1  0.4467130000000  0.5451250000000  0.5105490000000 1.0
END
