TITL C-884136-4169-121 14.4844383817963 125000 -19897.1658895826 0 0 133 (C1) n - 1
REM
REM in /home/nfs/bkarasulu/CARBON/AIRSS/Generating-Clusters/ReaxFF-fromJPCA2015/Units_Real/with-SteepDescent/Only-C1/SD-CG/Try1-3A/FIRE-CG
REM
REM
REM
REM
REM
REM ./C.cell (11c1c37f851c82e70ff6c80c92926a4b)
REM
REM compiler GCC version 9.2.1 20190827 (Red Hat 9.2.1-1)
REM options -cpp -mtune=generic -march=x86-64 -g -O0 -fpre-include=/usr/include/finclude/math-vector-fortran.h
REM seed -1090154123 -877207752 -114029246 -436574189 -141925914 1552179737 403055215 338358825 1390158312 1202204502 894197356 485261898 1799056506 -1449879455 -1776975122 -1152119081 -1654980686 -421653873 -1629104184 807455101 -590775277 1437306387 851412065 926942075 1435764096 -1900214247 -2036781921 -1561238755 1415354421 1482576058 1023711550 -747940335 -1334957212
REM
CELL 1.54180   50.00000   50.00000   50.00000   90.00000   90.00000   90.00000
LATT -1
SFAC C  
C      1  0.5258850000000  0.5963640000000  0.4827460000000 1.0
C      1  0.4670640000000  0.5794100000000  0.4866850000000 1.0
C      1  0.4867310000000  0.4095350000000  0.4442890000000 1.0
C      1  0.3929720000000  0.5247710000000  0.5330550000000 1.0
C      1  0.4634550000000  0.4090760000000  0.4800730000000 1.0
C      1  0.4770190000000  0.4874090000000  0.4569620000000 1.0
C      1  0.4711600000000  0.4964870000000  0.5838700000000 1.0
C      1  0.4906040000000  0.4124230000000  0.5206010000000 1.0
C      1  0.4683750000000  0.5214180000000  0.4209040000000 1.0
C      1  0.6075460000000  0.5138070000000  0.4809840000000 1.0
C      1  0.5316190000000  0.5786610000000  0.4614090000000 1.0
C      1  0.4420880000000  0.4463090000000  0.4577870000000 1.0
C      1  0.5295690000000  0.5177920000000  0.4544020000000 1.0
C      1  0.4662410000000  0.4182190000000  0.5372310000000 1.0
C      1  0.4169900000000  0.4360640000000  0.5164370000000 1.0
C      1  0.4837880000000  0.5181910000000  0.5401410000000 1.0
C      1  0.4837810000000  0.5703840000000  0.4421900000000 1.0
C      1  0.5963650000000  0.5114410000000  0.5077720000000 1.0
C      1  0.5389810000000  0.5321300000000  0.4139080000000 1.0
C      1  0.6015870000000  0.4903930000000  0.4640510000000 1.0
C      1  0.4631760000000  0.5150110000000  0.5606700000000 1.0
C      1  0.5917060000000  0.4993810000000  0.4368090000000 1.0
C      1  0.4829780000000  0.5150080000000  0.4668650000000 1.0
C      1  0.4138280000000  0.5251640000000  0.5549890000000 1.0
C      1  0.5478500000000  0.5365130000000  0.4415110000000 1.0
C      1  0.4386160000000  0.5512350000000  0.4550320000000 1.0
C      1  0.4404910000000  0.4323810000000  0.5356890000000 1.0
C      1  0.4063610000000  0.4573500000000  0.5357120000000 1.0
C      1  0.5543900000000  0.5619030000000  0.4557660000000 1.0
C      1  0.4568420000000  0.4874600000000  0.4837340000000 1.0
C      1  0.5249250000000  0.6074710000000  0.5291010000000 1.0
C      1  0.5657570000000  0.4613500000000  0.4357610000000 1.0
C      1  0.5942210000000  0.4643570000000  0.4757240000000 1.0
C      1  0.5357130000000  0.4332590000000  0.5448030000000 1.0
C      1  0.4269260000000  0.5059470000000  0.4434760000000 1.0
C      1  0.4626720000000  0.3949650000000  0.4520580000000 1.0
C      1  0.5348020000000  0.4581160000000  0.4888370000000 1.0
C      1  0.4167400000000  0.4583150000000  0.4663100000000 1.0
C      1  0.5598200000000  0.4494670000000  0.5450800000000 1.0
C      1  0.4108420000000  0.4883280000000  0.4573200000000 1.0
C      1  0.5717030000000  0.5537870000000  0.4782490000000 1.0
C      1  0.5144540000000  0.5046970000000  0.6099430000000 1.0
C      1  0.5976570000000  0.5322030000000  0.5296690000000 1.0
C      1  0.4096540000000  0.5055190000000  0.4810300000000 1.0
C      1  0.4140080000000  0.5631750000000  0.5022670000000 1.0
C      1  0.4930110000000  0.5158720000000  0.4075960000000 1.0
C      1  0.5037760000000  0.5631560000000  0.4915550000000 1.0
C      1  0.4168630000000  0.4473580000000  0.4909930000000 1.0
C      1  0.5043280000000  0.5306880000000  0.6045810000000 1.0
C      1  0.4904580000000  0.4928620000000  0.6000900000000 1.0
C      1  0.4842920000000  0.4279460000000  0.4197500000000 1.0
C      1  0.5664500000000  0.4740610000000  0.5605980000000 1.0
C      1  0.5503370000000  0.4818020000000  0.4899680000000 1.0
C      1  0.5967530000000  0.5393600000000  0.4686460000000 1.0
C      1  0.4387250000000  0.5421770000000  0.5418180000000 1.0
C      1  0.4209760000000  0.5006360000000  0.5697600000000 1.0
C      1  0.3960430000000  0.4970060000000  0.5310590000000 1.0
C      1  0.5943320000000  0.5263020000000  0.4442240000000 1.0
C      1  0.3939380000000  0.5427230000000  0.5085110000000 1.0
C      1  0.5277930000000  0.5896910000000  0.5526360000000 1.0
C      1  0.4373580000000  0.5075820000000  0.4923110000000 1.0
C      1  0.5765550000000  0.4425990000000  0.5204700000000 1.0
C      1  0.4458030000000  0.4579540000000  0.4320470000000 1.0
C      1  0.4666690000000  0.4520370000000  0.4157160000000 1.0
C      1  0.5417460000000  0.5982840000000  0.5064610000000 1.0
C      1  0.4960380000000  0.5913890000000  0.4959220000000 1.0
C      1  0.5691110000000  0.4210160000000  0.5013240000000 1.0
C      1  0.5298170000000  0.4461500000000  0.4606270000000 1.0
C      1  0.5271840000000  0.4956460000000  0.4750570000000 1.0
C      1  0.5046610000000  0.5300930000000  0.4558810000000 1.0
C      1  0.4871050000000  0.5591340000000  0.5645930000000 1.0
C      1  0.5750870000000  0.4894980000000  0.5096970000000 1.0
C      1  0.5020260000000  0.4730210000000  0.4665580000000 1.0
C      1  0.5616300000000  0.4252280000000  0.4728240000000 1.0
C      1  0.5378350000000  0.4541620000000  0.4348620000000 1.0
C      1  0.5089590000000  0.5482200000000  0.5831760000000 1.0
C      1  0.4372790000000  0.5633620000000  0.5206060000000 1.0
C      1  0.4987990000000  0.5818700000000  0.5501830000000 1.0
C      1  0.3964440000000  0.5321010000000  0.4811660000000 1.0
C      1  0.4596680000000  0.5705210000000  0.4592500000000 1.0
C      1  0.4973000000000  0.4408290000000  0.5741520000000 1.0
C      1  0.5051240000000  0.4160590000000  0.4697410000000 1.0
C      1  0.4265180000000  0.4495430000000  0.5554130000000 1.0
C      1  0.4435260000000  0.5273920000000  0.4352270000000 1.0
C      1  0.5182300000000  0.5124100000000  0.4951400000000 1.0
C      1  0.4441910000000  0.5181240000000  0.5188270000000 1.0
C      1  0.4839930000000  0.5372680000000  0.5177580000000 1.0
C      1  0.5233670000000  0.4920290000000  0.5499140000000 1.0
C      1  0.4893430000000  0.4041290000000  0.4928460000000 1.0
C      1  0.5367980000000  0.5356110000000  0.5789460000000 1.0
C      1  0.5767060000000  0.4478290000000  0.4597440000000 1.0
C      1  0.5156550000000  0.4280690000000  0.5233980000000 1.0
C      1  0.4639100000000  0.4379940000000  0.4758830000000 1.0
C      1  0.5094670000000  0.4520230000000  0.5074550000000 1.0
C      1  0.4878510000000  0.4692350000000  0.5252490000000 1.0
C      1  0.4751650000000  0.4283880000000  0.5627120000000 1.0
C      1  0.4630050000000  0.5612520000000  0.5085560000000 1.0
C      1  0.5558660000000  0.5742780000000  0.5181590000000 1.0
C      1  0.4973160000000  0.5984200000000  0.5256270000000 1.0
C      1  0.5347240000000  0.5281220000000  0.5119730000000 1.0
C      1  0.5504190000000  0.4846610000000  0.5825320000000 1.0
C      1  0.5499890000000  0.5712790000000  0.5469190000000 1.0
C      1  0.4662160000000  0.4762370000000  0.4308040000000 1.0
C      1  0.5255410000000  0.4458350000000  0.5691050000000 1.0
C      1  0.5113220000000  0.5471130000000  0.5134480000000 1.0
C      1  0.5061880000000  0.4426020000000  0.4109650000000 1.0
C      1  0.5676670000000  0.4878680000000  0.4243020000000 1.0
C      1  0.4196510000000  0.4835660000000  0.5310050000000 1.0
C      1  0.5409130000000  0.5097660000000  0.5372230000000 1.0
C      1  0.5278540000000  0.4747170000000  0.5717770000000 1.0
C      1  0.5105690000000  0.5398440000000  0.4057920000000 1.0
C      1  0.4466220000000  0.4970950000000  0.5371170000000 1.0
C      1  0.5567640000000  0.5466980000000  0.5609770000000 1.0
C      1  0.4339480000000  0.4736400000000  0.5722020000000 1.0
C      1  0.4966560000000  0.4928140000000  0.5400270000000 1.0
C      1  0.4923150000000  0.4479210000000  0.4786060000000 1.0
C      1  0.5895230000000  0.4638170000000  0.5050160000000 1.0
C      1  0.5580280000000  0.5498130000000  0.5032930000000 1.0
C      1  0.5676580000000  0.4982250000000  0.5418210000000 1.0
C      1  0.4622000000000  0.4712560000000  0.5802140000000 1.0
C      1  0.5176060000000  0.4952980000000  0.4091090000000 1.0
C      1  0.5390770000000  0.5098460000000  0.5928430000000 1.0
C      1  0.4786270000000  0.4567880000000  0.5606720000000 1.0
C      1  0.5061870000000  0.5597290000000  0.4619150000000 1.0
C      1  0.5770700000000  0.5275720000000  0.5504760000000 1.0
C      1  0.5339470000000  0.4193330000000  0.4642810000000 1.0
C      1  0.4765530000000  0.4862880000000  0.5042510000000 1.0
C      1  0.4615840000000  0.5453680000000  0.5616430000000 1.0
C      1  0.4920770000000  0.5558900000000  0.4197530000000 1.0
C      1  0.5212840000000  0.4662200000000  0.4120930000000 1.0
C      1  0.4906900000000  0.5133590000000  0.4950670000000 1.0
C      1  0.5448700000000  0.5034000000000  0.4118030000000 1.0
C      1  0.4165310000000  0.5529870000000  0.4738140000000 1.0
END
