TITL C-884128-4793-259 25.1219157042706 125000 -17417.8029593973 0 0 119 (C1) n - 1
REM
REM in /home/nfs/bkarasulu/CARBON/AIRSS/Generating-Clusters/ReaxFF-fromJPCA2015/Units_Real/with-SteepDescent/Only-C1/SD-CG/Try1-3A/FIRE-CG
REM
REM
REM
REM
REM
REM ./C.cell (11c1c37f851c82e70ff6c80c92926a4b)
REM
REM compiler GCC version 9.2.1 20190827 (Red Hat 9.2.1-1)
REM options -cpp -mtune=generic -march=x86-64 -g -O0 -fpre-include=/usr/include/finclude/math-vector-fortran.h
REM seed 695526605 1353511625 -218251295 -1500022857 542755976 1324563431 810507992 990924940 -1724290282 421013624 450185415 44953703 324524468 117829641 1681967876 409477431 445689567 -2111586420 1240809908 -1012891190 1233767309 -877667951 552437429 -649479531 -1846044552 -1806246911 347539052 -2095028464 -22170769 979385527 -1232001392 694849128 1167345843
REM
CELL 1.54180   50.00000   50.00000   50.00000   90.00000   90.00000   90.00000
LATT -1
SFAC C  
C      1  0.4542830000000  0.5068580000000  0.4221810000000 1.0
C      1  0.4101300000000  0.5072380000000  0.4406670000000 1.0
C      1  0.4893100000000  0.4884340000000  0.5538650000000 1.0
C      1  0.5643140000000  0.4467290000000  0.4950770000000 1.0
C      1  0.4776020000000  0.5237220000000  0.4184590000000 1.0
C      1  0.4320060000000  0.5484100000000  0.4534760000000 1.0
C      1  0.4422920000000  0.5751140000000  0.4516380000000 1.0
C      1  0.5005880000000  0.5105010000000  0.4554310000000 1.0
C      1  0.4065000000000  0.4584790000000  0.4914480000000 1.0
C      1  0.5070750000000  0.4434670000000  0.5695130000000 1.0
C      1  0.4903660000000  0.5780100000000  0.5493590000000 1.0
C      1  0.4363160000000  0.4643960000000  0.4428990000000 1.0
C      1  0.5368460000000  0.5643620000000  0.5445070000000 1.0
C      1  0.5852430000000  0.4833620000000  0.4482370000000 1.0
C      1  0.4800610000000  0.4677490000000  0.5301580000000 1.0
C      1  0.5288760000000  0.4857130000000  0.5850730000000 1.0
C      1  0.4745760000000  0.4400080000000  0.4529460000000 1.0
C      1  0.5267970000000  0.5335680000000  0.4061810000000 1.0
C      1  0.4728700000000  0.4439450000000  0.5664210000000 1.0
C      1  0.5131690000000  0.4873000000000  0.4075960000000 1.0
C      1  0.4553870000000  0.4775180000000  0.4257870000000 1.0
C      1  0.5267890000000  0.4436300000000  0.4276800000000 1.0
C      1  0.5146290000000  0.4836380000000  0.5421940000000 1.0
C      1  0.4488180000000  0.4928500000000  0.5617720000000 1.0
C      1  0.5605530000000  0.5056330000000  0.5450120000000 1.0
C      1  0.4432300000000  0.5406870000000  0.5587040000000 1.0
C      1  0.4256420000000  0.4870800000000  0.4595140000000 1.0
C      1  0.5431210000000  0.5231150000000  0.4286570000000 1.0
C      1  0.5778960000000  0.4701950000000  0.5090570000000 1.0
C      1  0.5046980000000  0.4601490000000  0.4176870000000 1.0
C      1  0.5202220000000  0.4974340000000  0.5170670000000 1.0
C      1  0.5506320000000  0.4280270000000  0.5408190000000 1.0
C      1  0.4978280000000  0.5685300000000  0.5745660000000 1.0
C      1  0.5148600000000  0.4072330000000  0.5275290000000 1.0
C      1  0.4768930000000  0.5249850000000  0.4672470000000 1.0
C      1  0.5693060000000  0.4763900000000  0.5355010000000 1.0
C      1  0.4351920000000  0.4433460000000  0.5236420000000 1.0
C      1  0.4924490000000  0.5075940000000  0.5099680000000 1.0
C      1  0.4421330000000  0.5633740000000  0.5005920000000 1.0
C      1  0.5726310000000  0.5872690000000  0.4822130000000 1.0
C      1  0.5618620000000  0.5728980000000  0.5325080000000 1.0
C      1  0.5812530000000  0.5643500000000  0.4659080000000 1.0
C      1  0.5256120000000  0.4607330000000  0.5530560000000 1.0
C      1  0.5397730000000  0.4941630000000  0.4161010000000 1.0
C      1  0.5096370000000  0.4663400000000  0.5901130000000 1.0
C      1  0.5979500000000  0.4844420000000  0.4676370000000 1.0
C      1  0.4458090000000  0.5269110000000  0.5204230000000 1.0
C      1  0.4709050000000  0.4908920000000  0.5162880000000 1.0
C      1  0.4536770000000  0.5540580000000  0.5282540000000 1.0
C      1  0.4775380000000  0.4824030000000  0.4728380000000 1.0
C      1  0.4856350000000  0.4071100000000  0.5289020000000 1.0
C      1  0.5412100000000  0.5163220000000  0.5253120000000 1.0
C      1  0.5172710000000  0.5810530000000  0.5568480000000 1.0
C      1  0.4774740000000  0.4212470000000  0.5518690000000 1.0
C      1  0.5048410000000  0.4836440000000  0.4602120000000 1.0
C      1  0.5220030000000  0.5302540000000  0.4513280000000 1.0
C      1  0.5298720000000  0.4756020000000  0.4957530000000 1.0
C      1  0.3994240000000  0.5095290000000  0.5515620000000 1.0
C      1  0.5243940000000  0.5376430000000  0.5357330000000 1.0
C      1  0.5010550000000  0.5502980000000  0.5097700000000 1.0
C      1  0.5546840000000  0.4559430000000  0.5494370000000 1.0
C      1  0.4278030000000  0.4622270000000  0.5443940000000 1.0
C      1  0.4519620000000  0.4038700000000  0.4903780000000 1.0
C      1  0.5517900000000  0.4467670000000  0.4688100000000 1.0
C      1  0.4537380000000  0.5003210000000  0.4728750000000 1.0
C      1  0.5950240000000  0.4905260000000  0.4954670000000 1.0
C      1  0.4740930000000  0.4215960000000  0.5044300000000 1.0
C      1  0.5871080000000  0.5360070000000  0.4713220000000 1.0
C      1  0.4052500000000  0.4802270000000  0.4835550000000 1.0
C      1  0.5531730000000  0.4251360000000  0.5110680000000 1.0
C      1  0.4796940000000  0.5861730000000  0.4735340000000 1.0
C      1  0.4940290000000  0.4337740000000  0.4787070000000 1.0
C      1  0.5440660000000  0.4670000000000  0.4267140000000 1.0
C      1  0.5427250000000  0.5471280000000  0.4822140000000 1.0
C      1  0.5188700000000  0.5891650000000  0.4840890000000 1.0
C      1  0.5341020000000  0.4296190000000  0.4537350000000 1.0
C      1  0.4320040000000  0.5241350000000  0.4325930000000 1.0
C      1  0.5612500000000  0.5439550000000  0.4583890000000 1.0
C      1  0.5372430000000  0.4701580000000  0.4552240000000 1.0
C      1  0.4742480000000  0.5104020000000  0.5955890000000 1.0
C      1  0.4179890000000  0.4355940000000  0.5002360000000 1.0
C      1  0.5040860000000  0.5563550000000  0.4460310000000 1.0
C      1  0.4114200000000  0.4968380000000  0.5045400000000 1.0
C      1  0.5297820000000  0.4110740000000  0.5015270000000 1.0
C      1  0.5147080000000  0.5202010000000  0.5591880000000 1.0
C      1  0.4845090000000  0.5362370000000  0.5952200000000 1.0
C      1  0.5249090000000  0.4205570000000  0.5512100000000 1.0
C      1  0.4530720000000  0.5825450000000  0.4808630000000 1.0
C      1  0.4185440000000  0.5292380000000  0.5562030000000 1.0
C      1  0.5117770000000  0.4550360000000  0.4897180000000 1.0
C      1  0.4880050000000  0.4854880000000  0.5829510000000 1.0
C      1  0.5980260000000  0.5332850000000  0.5216380000000 1.0
C      1  0.4819420000000  0.5625770000000  0.5278930000000 1.0
C      1  0.4543700000000  0.5176100000000  0.5748280000000 1.0
C      1  0.4335440000000  0.4221770000000  0.4780260000000 1.0
C      1  0.5932000000000  0.5202060000000  0.4956020000000 1.0
C      1  0.5589150000000  0.4902710000000  0.4574680000000 1.0
C      1  0.5836230000000  0.5266070000000  0.5455850000000 1.0
C      1  0.4780030000000  0.4578740000000  0.4301550000000 1.0
C      1  0.5055760000000  0.5409590000000  0.5783140000000 1.0
C      1  0.4500200000000  0.4637970000000  0.5637850000000 1.0
C      1  0.4885110000000  0.5303240000000  0.4938550000000 1.0
C      1  0.4339190000000  0.5170570000000  0.4955330000000 1.0
C      1  0.5023520000000  0.5143010000000  0.4051940000000 1.0
C      1  0.4466720000000  0.4395900000000  0.4559240000000 1.0
C      1  0.5320980000000  0.5210580000000  0.4790150000000 1.0
C      1  0.5035650000000  0.5828010000000  0.4594610000000 1.0
C      1  0.5462290000000  0.4968440000000  0.4829910000000 1.0
C      1  0.4150240000000  0.4876670000000  0.5327180000000 1.0
C      1  0.4470260000000  0.5006990000000  0.5331150000000 1.0
C      1  0.5453820000000  0.5986040000000  0.4870390000000 1.0
C      1  0.5634360000000  0.5913010000000  0.5093360000000 1.0
C      1  0.5236030000000  0.5645330000000  0.4957420000000 1.0
C      1  0.5186170000000  0.4158850000000  0.4747110000000 1.0
C      1  0.4635110000000  0.4466750000000  0.5187180000000 1.0
C      1  0.4294930000000  0.5448320000000  0.4833010000000 1.0
C      1  0.4798740000000  0.5424050000000  0.4413450000000 1.0
C      1  0.5842910000000  0.5543890000000  0.5381190000000 1.0
C      1  0.5381920000000  0.5064470000000  0.5696200000000 1.0
END
