TITL C-884141-4321-328 2.73098474083363 125000 -14486.7135682832 0 0 97 (C1) n - 1
REM
REM in /home/nfs/bkarasulu/CARBON/AIRSS/Generating-Clusters/ReaxFF-fromJPCA2015/Units_Real/with-SteepDescent/Only-C1/SD-CG/Try1-3A/FIRE-CG
REM
REM
REM
REM
REM
REM ./C.cell (11c1c37f851c82e70ff6c80c92926a4b)
REM
REM compiler GCC version 9.2.1 20190827 (Red Hat 9.2.1-1)
REM options -cpp -mtune=generic -march=x86-64 -g -O0 -fpre-include=/usr/include/finclude/math-vector-fortran.h
REM seed -1482138608 -1823185358 1820144248 -911226029 -368067057 166985209 -1807399917 -467340091 -719416617 -672235452 -922713420 233329854 1247105793 -316766057 824979704 1740290618 -1651810877 1613790343 364576464 -343529120 -1059448394 376753554 -1368291775 -1810252320 -1849880020 -146709837 1530318870 1452605889 106269635 1340051426 1809709884 1836701227 -2138893080
REM
CELL 1.54180   50.00000   50.00000   50.00000   90.00000   90.00000   90.00000
LATT -1
SFAC C  
C      1  0.4778190000000  0.5682870000000  0.5183610000000 1.0
C      1  0.4389610000000  0.5360380000000  0.4626600000000 1.0
C      1  0.5822960000000  0.4645380000000  0.4648550000000 1.0
C      1  0.5554390000000  0.4295900000000  0.5232080000000 1.0
C      1  0.5847800000000  0.4766900000000  0.4945660000000 1.0
C      1  0.4812570000000  0.4087920000000  0.4744020000000 1.0
C      1  0.4433170000000  0.5553700000000  0.4847940000000 1.0
C      1  0.4927960000000  0.4874970000000  0.4210120000000 1.0
C      1  0.5097270000000  0.5284740000000  0.5735250000000 1.0
C      1  0.4590770000000  0.5484480000000  0.5609280000000 1.0
C      1  0.5562350000000  0.5529480000000  0.5580650000000 1.0
C      1  0.5168160000000  0.5549540000000  0.4601580000000 1.0
C      1  0.6050180000000  0.5324510000000  0.5415750000000 1.0
C      1  0.5999750000000  0.5289630000000  0.5097970000000 1.0
C      1  0.3958200000000  0.4894690000000  0.4849770000000 1.0
C      1  0.6015770000000  0.5018300000000  0.4993070000000 1.0
C      1  0.4358350000000  0.5486330000000  0.5133460000000 1.0
C      1  0.4441510000000  0.4939190000000  0.4385320000000 1.0
C      1  0.4994700000000  0.6068550000000  0.4966600000000 1.0
C      1  0.5738370000000  0.4388600000000  0.4587860000000 1.0
C      1  0.4846770000000  0.5173900000000  0.5175150000000 1.0
C      1  0.4136250000000  0.4651170000000  0.4734030000000 1.0
C      1  0.4753700000000  0.5918790000000  0.4999830000000 1.0
C      1  0.4462370000000  0.5243330000000  0.5695730000000 1.0
C      1  0.4452920000000  0.4414360000000  0.5347650000000 1.0
C      1  0.5599660000000  0.4939190000000  0.5007430000000 1.0
C      1  0.5593090000000  0.5763720000000  0.5383470000000 1.0
C      1  0.5451830000000  0.4773780000000  0.5734190000000 1.0
C      1  0.5176450000000  0.4768740000000  0.5287140000000 1.0
C      1  0.5425660000000  0.4727570000000  0.5482060000000 1.0
C      1  0.4747650000000  0.5007760000000  0.4743720000000 1.0
C      1  0.5684590000000  0.4619960000000  0.5445950000000 1.0
C      1  0.4486800000000  0.4452720000000  0.4605560000000 1.0
C      1  0.5006020000000  0.5107920000000  0.4766640000000 1.0
C      1  0.5647890000000  0.5284670000000  0.4511480000000 1.0
C      1  0.5596900000000  0.5403270000000  0.4814630000000 1.0
C      1  0.5616580000000  0.4762480000000  0.4470310000000 1.0
C      1  0.5491650000000  0.5844470000000  0.4911640000000 1.0
C      1  0.3962660000000  0.5112780000000  0.4665270000000 1.0
C      1  0.4441890000000  0.4299320000000  0.5079660000000 1.0
C      1  0.5017840000000  0.4169410000000  0.4511660000000 1.0
C      1  0.5284700000000  0.6016950000000  0.5056990000000 1.0
C      1  0.4543390000000  0.5595700000000  0.5329020000000 1.0
C      1  0.4233180000000  0.4819500000000  0.4544680000000 1.0
C      1  0.4912420000000  0.4247540000000  0.5588130000000 1.0
C      1  0.5417320000000  0.5633970000000  0.4725540000000 1.0
C      1  0.5159500000000  0.4201470000000  0.5536700000000 1.0
C      1  0.5825050000000  0.4515330000000  0.5206020000000 1.0
C      1  0.4194760000000  0.5257870000000  0.5139120000000 1.0
C      1  0.4907880000000  0.5445280000000  0.5070100000000 1.0
C      1  0.5312280000000  0.5231590000000  0.5287150000000 1.0
C      1  0.4651560000000  0.4501540000000  0.4381070000000 1.0
C      1  0.4398990000000  0.4703140000000  0.5327520000000 1.0
C      1  0.4538250000000  0.5820930000000  0.4795770000000 1.0
C      1  0.4817820000000  0.4518050000000  0.5057990000000 1.0
C      1  0.5157280000000  0.5387930000000  0.4327750000000 1.0
C      1  0.4665730000000  0.4386110000000  0.5576340000000 1.0
C      1  0.5307140000000  0.4877970000000  0.5959280000000 1.0
C      1  0.4558120000000  0.5138870000000  0.4571080000000 1.0
C      1  0.5477810000000  0.5194950000000  0.5037770000000 1.0
C      1  0.5290660000000  0.4731350000000  0.4500570000000 1.0
C      1  0.4939210000000  0.4401630000000  0.4366550000000 1.0
C      1  0.5024510000000  0.5408050000000  0.4806850000000 1.0
C      1  0.4069270000000  0.5615090000000  0.4503260000000 1.0
C      1  0.4405700000000  0.4875370000000  0.5552120000000 1.0
C      1  0.4127590000000  0.5855800000000  0.4507200000000 1.0
C      1  0.5561570000000  0.4195830000000  0.4546810000000 1.0
C      1  0.5032690000000  0.5139700000000  0.4250330000000 1.0
C      1  0.5335550000000  0.5349500000000  0.5540780000000 1.0
C      1  0.4323000000000  0.4422630000000  0.4819070000000 1.0
C      1  0.4853810000000  0.5386100000000  0.5672940000000 1.0
C      1  0.5826640000000  0.5497930000000  0.4985450000000 1.0
C      1  0.4654540000000  0.4773380000000  0.4272220000000 1.0
C      1  0.5809980000000  0.5428070000000  0.5517880000000 1.0
C      1  0.4716930000000  0.4246380000000  0.5000310000000 1.0
C      1  0.4098680000000  0.5329430000000  0.4535060000000 1.0
C      1  0.5124150000000  0.4894220000000  0.4640450000000 1.0
C      1  0.4058390000000  0.5065790000000  0.5057300000000 1.0
C      1  0.5385990000000  0.5932550000000  0.5299080000000 1.0
C      1  0.5098680000000  0.4639220000000  0.4296420000000 1.0
C      1  0.4773420000000  0.4605950000000  0.5713290000000 1.0
C      1  0.5080310000000  0.5040670000000  0.5283950000000 1.0
C      1  0.4673650000000  0.4998980000000  0.5019710000000 1.0
C      1  0.4618070000000  0.4734100000000  0.5119570000000 1.0
C      1  0.5693300000000  0.5732360000000  0.5099590000000 1.0
C      1  0.4804220000000  0.4852290000000  0.5824630000000 1.0
C      1  0.5101010000000  0.4554980000000  0.5120660000000 1.0
C      1  0.5704970000000  0.5015390000000  0.4493230000000 1.0
C      1  0.5045320000000  0.5018030000000  0.5864130000000 1.0
C      1  0.5276330000000  0.4155260000000  0.4834050000000 1.0
C      1  0.4335460000000  0.5906830000000  0.4634270000000 1.0
C      1  0.5409330000000  0.5273300000000  0.4362470000000 1.0
C      1  0.4725780000000  0.3867290000000  0.4831070000000 1.0
C      1  0.4507340000000  0.4979380000000  0.5788900000000 1.0
C      1  0.5392720000000  0.4208620000000  0.5437170000000 1.0
C      1  0.5316850000000  0.4335300000000  0.5052600000000 1.0
C      1  0.5299980000000  0.4073160000000  0.4563720000000 1.0
END
