TITL C-884129-4740-461 90.4218078857587 125000 -29981.1523039662 0 0 199 (C1) n - 1
REM
REM in /home/nfs/bkarasulu/CARBON/AIRSS/Generating-Clusters/ReaxFF-fromJPCA2015/Units_Real/with-SteepDescent/Only-C1/SD-CG/Try1-3A/FIRE-CG
REM
REM
REM
REM
REM
REM ./C.cell (11c1c37f851c82e70ff6c80c92926a4b)
REM
REM compiler GCC version 9.2.1 20190827 (Red Hat 9.2.1-1)
REM options -cpp -mtune=generic -march=x86-64 -g -O0 -fpre-include=/usr/include/finclude/math-vector-fortran.h
REM seed 931182882 901199382 151862436 -1343071048 914351330 555378040 -1985244090 186574651 -235395238 1981622747 668239717 -1875849666 -87411388 -1660039453 1157384416 -2121930193 1650731485 717645690 1402092393 913868827 -602401636 -1404693796 -1801622678 2000369698 -1912036924 65787416 673683860 170504687 -666260277 -1071413866 -1689181488 -1980435150 -1171443184
REM
CELL 1.54180   50.00000   50.00000   50.00000   90.00000   90.00000   90.00000
LATT -1
SFAC C  
C      1  0.5313660000000  0.4234450000000  0.4653980000000 1.0
C      1  0.4058580000000  0.5562010000000  0.5424990000000 1.0
C      1  0.4851900000000  0.5563180000000  0.4755560000000 1.0
C      1  0.4816050000000  0.4710340000000  0.5640830000000 1.0
C      1  0.5313900000000  0.5884280000000  0.4170880000000 1.0
C      1  0.5606760000000  0.5056530000000  0.5865850000000 1.0
C      1  0.4503980000000  0.5280900000000  0.4010410000000 1.0
C      1  0.5282720000000  0.5078050000000  0.6001790000000 1.0
C      1  0.4657060000000  0.5035030000000  0.3974030000000 1.0
C      1  0.5062530000000  0.6087530000000  0.4592660000000 1.0
C      1  0.4999010000000  0.5749310000000  0.4916840000000 1.0
C      1  0.5767490000000  0.4412410000000  0.4450780000000 1.0
C      1  0.6185620000000  0.4943880000000  0.5002700000000 1.0
C      1  0.5347800000000  0.5021670000000  0.4950260000000 1.0
C      1  0.4541620000000  0.4274300000000  0.4493800000000 1.0
C      1  0.5610160000000  0.5424220000000  0.5031850000000 1.0
C      1  0.4143690000000  0.5180230000000  0.4768800000000 1.0
C      1  0.4876070000000  0.3995160000000  0.5675750000000 1.0
C      1  0.5588400000000  0.4217800000000  0.5481020000000 1.0
C      1  0.6078840000000  0.5210590000000  0.4949160000000 1.0
C      1  0.4959630000000  0.5092650000000  0.4628880000000 1.0
C      1  0.4050020000000  0.4368420000000  0.4953660000000 1.0
C      1  0.5457610000000  0.4081300000000  0.4875510000000 1.0
C      1  0.5828510000000  0.5236080000000  0.5123320000000 1.0
C      1  0.5309970000000  0.4130180000000  0.4132190000000 1.0
C      1  0.4167720000000  0.5828130000000  0.5370190000000 1.0
C      1  0.5670380000000  0.4779730000000  0.5820220000000 1.0
C      1  0.4565090000000  0.4325220000000  0.5233010000000 1.0
C      1  0.5084740000000  0.3913370000000  0.5245680000000 1.0
C      1  0.4432890000000  0.5181850000000  0.5121390000000 1.0
C      1  0.5292690000000  0.5464450000000  0.4647290000000 1.0
C      1  0.4362360000000  0.3986370000000  0.4926120000000 1.0
C      1  0.4693610000000  0.4282690000000  0.4759660000000 1.0
C      1  0.5716270000000  0.5251280000000  0.5699500000000 1.0
C      1  0.5711040000000  0.4646740000000  0.4818710000000 1.0
C      1  0.5704190000000  0.5021030000000  0.5278270000000 1.0
C      1  0.4179730000000  0.4278750000000  0.5507740000000 1.0
C      1  0.4440870000000  0.5912170000000  0.5449370000000 1.0
C      1  0.5620030000000  0.5589210000000  0.4332490000000 1.0
C      1  0.4277630000000  0.5396330000000  0.5516260000000 1.0
C      1  0.5676420000000  0.5538210000000  0.5598040000000 1.0
C      1  0.5288590000000  0.3880320000000  0.5025480000000 1.0
C      1  0.5071840000000  0.4838870000000  0.3917100000000 1.0
C      1  0.3973990000000  0.5342200000000  0.4436040000000 1.0
C      1  0.3978360000000  0.5634560000000  0.4944520000000 1.0
C      1  0.5134820000000  0.5325590000000  0.5126120000000 1.0
C      1  0.5455560000000  0.6048640000000  0.5218310000000 1.0
C      1  0.3982120000000  0.5459820000000  0.5162230000000 1.0
C      1  0.5523170000000  0.5348980000000  0.4768080000000 1.0
C      1  0.4199650000000  0.5329180000000  0.3974830000000 1.0
C      1  0.5019440000000  0.5374360000000  0.4616560000000 1.0
C      1  0.6016820000000  0.4360120000000  0.5310260000000 1.0
C      1  0.4631020000000  0.5831980000000  0.4311300000000 1.0
C      1  0.4227470000000  0.4723540000000  0.5557200000000 1.0
C      1  0.3983750000000  0.4983770000000  0.5212920000000 1.0
C      1  0.4941000000000  0.4287500000000  0.4240710000000 1.0
C      1  0.5784130000000  0.4654500000000  0.5579730000000 1.0
C      1  0.4140730000000  0.4390360000000  0.5805290000000 1.0
C      1  0.5050920000000  0.4567270000000  0.5536820000000 1.0
C      1  0.6034150000000  0.5379960000000  0.4714730000000 1.0
C      1  0.5257190000000  0.4968870000000  0.5530380000000 1.0
C      1  0.4892480000000  0.5750170000000  0.5187120000000 1.0
C      1  0.5412650000000  0.4612880000000  0.5919950000000 1.0
C      1  0.4538510000000  0.4812100000000  0.4117960000000 1.0
C      1  0.5317690000000  0.5537930000000  0.4391030000000 1.0
C      1  0.5953410000000  0.4201800000000  0.4524880000000 1.0
C      1  0.4610670000000  0.5404170000000  0.6201750000000 1.0
C      1  0.4550490000000  0.4609350000000  0.5535020000000 1.0
C      1  0.4467470000000  0.4319480000000  0.5497910000000 1.0
C      1  0.5552240000000  0.5896810000000  0.4775070000000 1.0
C      1  0.5600630000000  0.5215720000000  0.4068570000000 1.0
C      1  0.4631900000000  0.4593090000000  0.5250910000000 1.0
C      1  0.4890410000000  0.4599520000000  0.5104390000000 1.0
C      1  0.5225890000000  0.4790640000000  0.6096620000000 1.0
C      1  0.6165030000000  0.4876230000000  0.5290980000000 1.0
C      1  0.6043580000000  0.4632070000000  0.5414680000000 1.0
C      1  0.5110860000000  0.5147470000000  0.5724540000000 1.0
C      1  0.5226810000000  0.4719230000000  0.4461410000000 1.0
C      1  0.5131490000000  0.4000370000000  0.5523630000000 1.0
C      1  0.5273880000000  0.4515820000000  0.4680660000000 1.0
C      1  0.4222600000000  0.4658210000000  0.4589020000000 1.0
C      1  0.5014270000000  0.3877500000000  0.4562440000000 1.0
C      1  0.4612240000000  0.5628190000000  0.6026440000000 1.0
C      1  0.4390120000000  0.5907800000000  0.4701680000000 1.0
C      1  0.4597160000000  0.4949170000000  0.5067360000000 1.0
C      1  0.4254560000000  0.4720180000000  0.4162380000000 1.0
C      1  0.5661870000000  0.5936430000000  0.5037150000000 1.0
C      1  0.4790750000000  0.4551420000000  0.4838230000000 1.0
C      1  0.4470540000000  0.5374750000000  0.5308770000000 1.0
C      1  0.4967040000000  0.4679290000000  0.6110010000000 1.0
C      1  0.5496230000000  0.5698640000000  0.4064910000000 1.0
C      1  0.5591260000000  0.5731660000000  0.5856420000000 1.0
C      1  0.5381340000000  0.5574740000000  0.5449790000000 1.0
C      1  0.4581250000000  0.5414780000000  0.4257250000000 1.0
C      1  0.5062570000000  0.5159060000000  0.6165470000000 1.0
C      1  0.5380200000000  0.5431940000000  0.5196030000000 1.0
C      1  0.4066060000000  0.5474330000000  0.4693030000000 1.0
C      1  0.5118230000000  0.4528470000000  0.5260650000000 1.0
C      1  0.5601500000000  0.4497410000000  0.5415060000000 1.0
C      1  0.5044030000000  0.5954700000000  0.5351110000000 1.0
C      1  0.5250430000000  0.6160160000000  0.5040780000000 1.0
C      1  0.4796770000000  0.3850670000000  0.5201430000000 1.0
C      1  0.5316410000000  0.5871930000000  0.5398520000000 1.0
C      1  0.5722080000000  0.4883170000000  0.4680870000000 1.0
C      1  0.4396390000000  0.5110180000000  0.4635240000000 1.0
C      1  0.5287600000000  0.4693880000000  0.5652540000000 1.0
C      1  0.4703790000000  0.5336450000000  0.5424550000000 1.0
C      1  0.5064410000000  0.5102070000000  0.4932430000000 1.0
C      1  0.4704400000000  0.4430620000000  0.4313320000000 1.0
C      1  0.5730350000000  0.4136020000000  0.4975770000000 1.0
C      1  0.5945210000000  0.4252680000000  0.4813060000000 1.0
C      1  0.4894670000000  0.4938700000000  0.5128870000000 1.0
C      1  0.5692680000000  0.4615100000000  0.4256210000000 1.0
C      1  0.4015880000000  0.4618610000000  0.5693810000000 1.0
C      1  0.4469740000000  0.4829010000000  0.4603080000000 1.0
C      1  0.3926300000000  0.5054040000000  0.4449790000000 1.0
C      1  0.4623470000000  0.3838360000000  0.4935230000000 1.0
C      1  0.5396880000000  0.4600390000000  0.5187450000000 1.0
C      1  0.4580930000000  0.5468250000000  0.4732550000000 1.0
C      1  0.5511290000000  0.5070330000000  0.4719160000000 1.0
C      1  0.5350780000000  0.4155790000000  0.5646650000000 1.0
C      1  0.4312510000000  0.5057570000000  0.5948200000000 1.0
C      1  0.5798180000000  0.4158660000000  0.5268990000000 1.0
C      1  0.4698950000000  0.4738960000000  0.4356890000000 1.0
C      1  0.4596260000000  0.5277690000000  0.4519840000000 1.0
C      1  0.4354590000000  0.5636410000000  0.4638580000000 1.0
C      1  0.5826540000000  0.5051490000000  0.5534710000000 1.0
C      1  0.5126010000000  0.5452010000000  0.5595110000000 1.0
C      1  0.5162710000000  0.3797630000000  0.4787410000000 1.0
C      1  0.4392630000000  0.5638800000000  0.4320370000000 1.0
C      1  0.5468950000000  0.4899910000000  0.5182760000000 1.0
C      1  0.5587490000000  0.4209600000000  0.4095580000000 1.0
C      1  0.4789580000000  0.3956390000000  0.4731950000000 1.0
C      1  0.5823650000000  0.5692390000000  0.5091940000000 1.0
C      1  0.5123450000000  0.4325020000000  0.4024760000000 1.0
C      1  0.4151590000000  0.5203240000000  0.5058080000000 1.0
C      1  0.4258080000000  0.4254420000000  0.4503280000000 1.0
C      1  0.4903460000000  0.5782450000000  0.4228500000000 1.0
C      1  0.4780670000000  0.5779810000000  0.5862260000000 1.0
C      1  0.4177180000000  0.4162480000000  0.4774390000000 1.0
C      1  0.4731640000000  0.3902630000000  0.5459170000000 1.0
C      1  0.4628130000000  0.5133220000000  0.5601480000000 1.0
C      1  0.4457490000000  0.4809940000000  0.6044680000000 1.0
C      1  0.4802300000000  0.5141410000000  0.6229760000000 1.0
C      1  0.6125140000000  0.4779730000000  0.4769550000000 1.0
C      1  0.4973870000000  0.4869040000000  0.4449440000000 1.0
C      1  0.5189740000000  0.4592920000000  0.3881920000000 1.0
C      1  0.4035850000000  0.4636850000000  0.4803860000000 1.0
C      1  0.5729360000000  0.4143600000000  0.4343140000000 1.0
C      1  0.4310660000000  0.5129730000000  0.5644210000000 1.0
C      1  0.3913370000000  0.4911620000000  0.4753310000000 1.0
C      1  0.5470520000000  0.4802870000000  0.4321960000000 1.0
C      1  0.4749230000000  0.6147270000000  0.5007980000000 1.0
C      1  0.5715190000000  0.5743200000000  0.4605970000000 1.0
C      1  0.5961890000000  0.5221670000000  0.4474280000000 1.0
C      1  0.5164930000000  0.4107940000000  0.4414220000000 1.0
C      1  0.6047870000000  0.5366870000000  0.5330380000000 1.0
C      1  0.4580240000000  0.5837660000000  0.5674360000000 1.0
C      1  0.4608580000000  0.4769050000000  0.4842510000000 1.0
C      1  0.5467010000000  0.4694670000000  0.3884160000000 1.0
C      1  0.5092810000000  0.6000790000000  0.4305850000000 1.0
C      1  0.4519780000000  0.4223940000000  0.4981540000000 1.0
C      1  0.5119560000000  0.5343900000000  0.4003270000000 1.0
C      1  0.5223230000000  0.5957170000000  0.4808900000000 1.0
C      1  0.4332090000000  0.4558750000000  0.5961760000000 1.0
C      1  0.4594220000000  0.5947320000000  0.5168560000000 1.0
C      1  0.4074170000000  0.4955470000000  0.5490480000000 1.0
C      1  0.5502130000000  0.4936280000000  0.4063620000000 1.0
C      1  0.5285510000000  0.4331110000000  0.5872860000000 1.0
C      1  0.6097300000000  0.5106350000000  0.5453700000000 1.0
C      1  0.5317920000000  0.5730090000000  0.5875580000000 1.0
C      1  0.4370970000000  0.5972500000000  0.4975040000000 1.0
C      1  0.5076540000000  0.4953840000000  0.5330320000000 1.0
C      1  0.5981270000000  0.4941770000000  0.4568940000000 1.0
C      1  0.5072030000000  0.5657590000000  0.5802740000000 1.0
C      1  0.5018900000000  0.4384550000000  0.5990350000000 1.0
C      1  0.4824510000000  0.4187800000000  0.5914980000000 1.0
C      1  0.4953780000000  0.5451170000000  0.5331250000000 1.0
C      1  0.4167980000000  0.4500280000000  0.4352020000000 1.0
C      1  0.4065850000000  0.4334370000000  0.5242460000000 1.0
C      1  0.5071750000000  0.5528640000000  0.4221580000000 1.0
C      1  0.4126740000000  0.5466270000000  0.4222090000000 1.0
C      1  0.5466610000000  0.4534870000000  0.4897610000000 1.0
C      1  0.5400250000000  0.5418060000000  0.3980140000000 1.0
C      1  0.4957980000000  0.5080510000000  0.3951690000000 1.0
C      1  0.4992100000000  0.6184830000000  0.5169060000000 1.0
C      1  0.4847510000000  0.4987430000000  0.5706860000000 1.0
C      1  0.5966760000000  0.4544960000000  0.4850300000000 1.0
C      1  0.5765410000000  0.5325300000000  0.4282800000000 1.0
C      1  0.5637340000000  0.4486530000000  0.4001040000000 1.0
C      1  0.4740580000000  0.4860320000000  0.6145470000000 1.0
C      1  0.3764010000000  0.4934340000000  0.5021630000000 1.0
C      1  0.4803550000000  0.6127110000000  0.4711960000000 1.0
C      1  0.4409840000000  0.5285730000000  0.6060230000000 1.0
C      1  0.5880950000000  0.5592000000000  0.5381720000000 1.0
C      1  0.4596650000000  0.6006440000000  0.4545070000000 1.0
C      1  0.4077260000000  0.4900480000000  0.4284480000000 1.0
C      1  0.4120620000000  0.5854490000000  0.5083370000000 1.0
C      1  0.5905720000000  0.5633470000000  0.4789110000000 1.0
END
