TITL C-884136-4169-14 15802.098259766 125000 -12287.9689201989 0 0 81 (C1) n - 1
REM
REM in /home/nfs/bkarasulu/CARBON/AIRSS/Generating-Clusters/ReaxFF-fromJPCA2015/Units_Real/with-SteepDescent/Only-C1/SD-CG/Try1-3A/FIRE-CG
REM
REM
REM
REM
REM
REM ./C.cell (11c1c37f851c82e70ff6c80c92926a4b)
REM
REM compiler GCC version 9.2.1 20190827 (Red Hat 9.2.1-1)
REM options -cpp -mtune=generic -march=x86-64 -g -O0 -fpre-include=/usr/include/finclude/math-vector-fortran.h
REM seed 1536246491 121557226 -809427756 -393921428 1062418822 -467917641 499110847 -1831726762 -1709117139 -1586114090 -1832338727 -1126330840 872756741 -1876411667 -179029022 415936087 1680119186 -971407582 -543772975 1681136806 1297906030 446762981 -2112710200 -531757171 94402825 1741263572 437362391 179570279 42660769 -1904226497 1955325370 2105285718 970686165
REM
CELL 1.54180   50.00000   50.00000   50.00000   90.00000   90.00000   90.00000
LATT -1
SFAC C  
C      1  0.4358310000000  0.5086070000000  0.4554420000000 1.0
C      1  0.5315260000000  0.4449610000000  0.4545000000000 1.0
C      1  0.5586480000000  0.4889530000000  0.5408190000000 1.0
C      1  0.4596240000000  0.4976780000000  0.5658700000000 1.0
C      1  0.4579720000000  0.4415370000000  0.4614520000000 1.0
C      1  0.4804170000000  0.5010270000000  0.4247040000000 1.0
C      1  0.4694740000000  0.4716690000000  0.5747840000000 1.0
C      1  0.4821750000000  0.5547120000000  0.4388390000000 1.0
C      1  0.4244880000000  0.4840110000000  0.4875120000000 1.0
C      1  0.4751460000000  0.5222090000000  0.5733980000000 1.0
C      1  0.5049750000000  0.4841240000000  0.4239850000000 1.0
C      1  0.5177030000000  0.5352330000000  0.5265170000000 1.0
C      1  0.5500670000000  0.5433040000000  0.4418700000000 1.0
C      1  0.5701780000000  0.5141980000000  0.5302170000000 1.0
C      1  0.5777250000000  0.5381580000000  0.4866490000000 1.0
C      1  0.4266840000000  0.4706890000000  0.5390500000000 1.0
C      1  0.5283250000000  0.5255070000000  0.5526210000000 1.0
C      1  0.4877930000000  0.4285390000000  0.5315280000000 1.0
C      1  0.4616340000000  0.4352890000000  0.5178770000000 1.0
C      1  0.5642660000000  0.5611180000000  0.4989650000000 1.0
C      1  0.4770240000000  0.4839610000000  0.4668740000000 1.0
C      1  0.4563500000000  0.4746050000000  0.4891230000000 1.0
C      1  0.5122930000000  0.4921400000000  0.5017500000000 1.0
C      1  0.5682860000000  0.5301150000000  0.4600700000000 1.0
C      1  0.5596180000000  0.5037600000000  0.4638250000000 1.0
C      1  0.4606530000000  0.5481240000000  0.5693800000000 1.0
C      1  0.4419730000000  0.5481270000000  0.5455190000000 1.0
C      1  0.5179700000000  0.4303920000000  0.4766930000000 1.0
C      1  0.4295720000000  0.5232740000000  0.5337630000000 1.0
C      1  0.4546840000000  0.4443990000000  0.4907080000000 1.0
C      1  0.5576430000000  0.4607600000000  0.5310240000000 1.0
C      1  0.4363020000000  0.4982280000000  0.5480890000000 1.0
C      1  0.4719140000000  0.5359830000000  0.4790110000000 1.0
C      1  0.5577600000000  0.4447180000000  0.4684400000000 1.0
C      1  0.4444520000000  0.4462100000000  0.5390400000000 1.0
C      1  0.4213000000000  0.5126350000000  0.4796510000000 1.0
C      1  0.4869130000000  0.5615220000000  0.5634240000000 1.0
C      1  0.5332320000000  0.4959160000000  0.4587370000000 1.0
C      1  0.5028810000000  0.5122960000000  0.5196760000000 1.0
C      1  0.5751900000000  0.4930300000000  0.4837740000000 1.0
C      1  0.4217080000000  0.4786280000000  0.5137970000000 1.0
C      1  0.5558480000000  0.5369090000000  0.5419510000000 1.0
C      1  0.5353750000000  0.5260700000000  0.4222800000000 1.0
C      1  0.5004360000000  0.5358170000000  0.5665330000000 1.0
C      1  0.4588580000000  0.5658430000000  0.5317190000000 1.0
C      1  0.5297920000000  0.4196750000000  0.5008750000000 1.0
C      1  0.5207370000000  0.4701300000000  0.5577170000000 1.0
C      1  0.5392720000000  0.5667860000000  0.4856540000000 1.0
C      1  0.5808380000000  0.5145200000000  0.5029720000000 1.0
C      1  0.5165630000000  0.4293810000000  0.5254430000000 1.0
C      1  0.5114320000000  0.4607730000000  0.4403930000000 1.0
C      1  0.4672150000000  0.5608550000000  0.4635990000000 1.0
C      1  0.5746180000000  0.4641340000000  0.4836750000000 1.0
C      1  0.5511370000000  0.5601440000000  0.5253270000000 1.0
C      1  0.4302780000000  0.5275700000000  0.5050600000000 1.0
C      1  0.4965430000000  0.4603660000000  0.5713280000000 1.0
C      1  0.5351650000000  0.4950930000000  0.5556550000000 1.0
C      1  0.4981050000000  0.4480560000000  0.4857420000000 1.0
C      1  0.5711460000000  0.4480850000000  0.5081470000000 1.0
C      1  0.4822850000000  0.5783780000000  0.5377040000000 1.0
C      1  0.4581230000000  0.4897800000000  0.4432820000000 1.0
C      1  0.4807840000000  0.5302750000000  0.4201700000000 1.0
C      1  0.4787360000000  0.5768090000000  0.4863290000000 1.0
C      1  0.4474430000000  0.4577720000000  0.4416450000000 1.0
C      1  0.5326540000000  0.4495600000000  0.5399410000000 1.0
C      1  0.4739600000000  0.4818540000000  0.5121000000000 1.0
C      1  0.4876690000000  0.4572860000000  0.4610840000000 1.0
C      1  0.4940030000000  0.5774550000000  0.5106940000000 1.0
C      1  0.4978660000000  0.5275670000000  0.4727100000000 1.0
C      1  0.5332670000000  0.5606430000000  0.4579130000000 1.0
C      1  0.4589950000000  0.5283520000000  0.5034040000000 1.0
C      1  0.5566840000000  0.4274200000000  0.4925050000000 1.0
C      1  0.4747560000000  0.5093500000000  0.5184770000000 1.0
C      1  0.5308050000000  0.4967400000000  0.4300440000000 1.0
C      1  0.4848600000000  0.4351960000000  0.5599710000000 1.0
C      1  0.4577170000000  0.4457230000000  0.5649470000000 1.0
C      1  0.4984400000000  0.4677930000000  0.5066750000000 1.0
C      1  0.5060070000000  0.5488200000000  0.4550510000000 1.0
C      1  0.5083980000000  0.5316840000000  0.4163320000000 1.0
C      1  0.5077740000000  0.5003740000000  0.4740600000000 1.0
C      1  0.5230460000000  0.5606170000000  0.5119240000000 1.0
END
