TITL C-883737-113-79 23.9420679082184 125000 -20705.6916900082 0 0 140 (C1) n - 1
REM
REM in /home/nfs/bkarasulu/CARBON/AIRSS/Generating-Clusters/ReaxFF-fromJPCA2015/Units_Real/with-SteepDescent/Only-C1/SD-CG/Try1-3A/FIRE-CG
REM
REM
REM
REM
REM
REM ./C.cell (11c1c37f851c82e70ff6c80c92926a4b)
REM
REM compiler GCC version 9.2.1 20190827 (Red Hat 9.2.1-1)
REM options -cpp -mtune=generic -march=x86-64 -g -O0 -fpre-include=/usr/include/finclude/math-vector-fortran.h
REM seed 1612165583 105208991 -1013122998 1397160518 807816583 -1916821903 284967753 1523304985 -1628778747 -1080600658 1414082996 1919104838 952248668 825340190 -1425830692 1902847580 -192105903 -945449638 1088579929 1250686906 1226538075 -1082127233 1945704072 312448938 -884160719 565231546 381391113 1997066042 -1976286310 -674179763 -465196867 1700395146 -720917162
REM
CELL 1.54180   50.00000   50.00000   50.00000   90.00000   90.00000   90.00000
LATT -1
SFAC C  
C      1  0.5335960000000  0.5649100000000  0.4548110000000 1.0
C      1  0.5367870000000  0.5547840000000  0.5826610000000 1.0
C      1  0.4106230000000  0.4667160000000  0.4630940000000 1.0
C      1  0.5026840000000  0.5549550000000  0.5050810000000 1.0
C      1  0.5199730000000  0.4994650000000  0.5651710000000 1.0
C      1  0.4306370000000  0.4350400000000  0.5003760000000 1.0
C      1  0.4804340000000  0.5961140000000  0.5275240000000 1.0
C      1  0.5358760000000  0.4684780000000  0.5293620000000 1.0
C      1  0.4223110000000  0.4813610000000  0.5031980000000 1.0
C      1  0.5594110000000  0.4364790000000  0.4618820000000 1.0
C      1  0.4552380000000  0.5526340000000  0.4428430000000 1.0
C      1  0.4765780000000  0.4625750000000  0.4986890000000 1.0
C      1  0.4174350000000  0.5213510000000  0.5497840000000 1.0
C      1  0.5144060000000  0.5974840000000  0.4878210000000 1.0
C      1  0.4661400000000  0.5937040000000  0.4822270000000 1.0
C      1  0.4462400000000  0.4219100000000  0.4795900000000 1.0
C      1  0.5788150000000  0.5692600000000  0.4832600000000 1.0
C      1  0.4122720000000  0.4964590000000  0.4571770000000 1.0
C      1  0.4631000000000  0.5726740000000  0.5629120000000 1.0
C      1  0.4835120000000  0.4693690000000  0.5463440000000 1.0
C      1  0.5116260000000  0.4587330000000  0.5414280000000 1.0
C      1  0.4694980000000  0.4037630000000  0.4825860000000 1.0
C      1  0.5361790000000  0.5930080000000  0.5082790000000 1.0
C      1  0.4703810000000  0.5763010000000  0.4424510000000 1.0
C      1  0.5750920000000  0.4939300000000  0.5490340000000 1.0
C      1  0.4869650000000  0.5088620000000  0.4865800000000 1.0
C      1  0.5903060000000  0.4751480000000  0.4795790000000 1.0
C      1  0.5519330000000  0.4786650000000  0.4457380000000 1.0
C      1  0.5005400000000  0.5559890000000  0.4761200000000 1.0
C      1  0.4869510000000  0.5586850000000  0.5496330000000 1.0
C      1  0.5305390000000  0.5849790000000  0.5367710000000 1.0
C      1  0.5610880000000  0.4315500000000  0.4930900000000 1.0
C      1  0.5483610000000  0.4966020000000  0.4225820000000 1.0
C      1  0.5723370000000  0.4619880000000  0.4588800000000 1.0
C      1  0.5600390000000  0.4798330000000  0.5685940000000 1.0
C      1  0.6005360000000  0.5016960000000  0.4731190000000 1.0
C      1  0.4524220000000  0.4395170000000  0.4558620000000 1.0
C      1  0.5298390000000  0.5492020000000  0.5141500000000 1.0
C      1  0.4807220000000  0.5486790000000  0.5226480000000 1.0
C      1  0.4168780000000  0.5714010000000  0.4759050000000 1.0
C      1  0.4545680000000  0.5868090000000  0.5391770000000 1.0
C      1  0.5387060000000  0.4284960000000  0.5587390000000 1.0
C      1  0.5257310000000  0.4716610000000  0.4910260000000 1.0
C      1  0.5476140000000  0.5682390000000  0.5563000000000 1.0
C      1  0.4904930000000  0.4167880000000  0.5458810000000 1.0
C      1  0.5003460000000  0.4489080000000  0.4534090000000 1.0
C      1  0.4853290000000  0.5220510000000  0.5602250000000 1.0
C      1  0.5379950000000  0.4259990000000  0.4448750000000 1.0
C      1  0.4989000000000  0.5278820000000  0.4249330000000 1.0
C      1  0.4602220000000  0.5103100000000  0.5669180000000 1.0
C      1  0.5366170000000  0.5527180000000  0.4258760000000 1.0
C      1  0.5178490000000  0.5890290000000  0.4590990000000 1.0
C      1  0.5942680000000  0.5087150000000  0.4451690000000 1.0
C      1  0.5265420000000  0.5194550000000  0.4278380000000 1.0
C      1  0.4675250000000  0.4766230000000  0.5742000000000 1.0
C      1  0.5705540000000  0.5242050000000  0.5388170000000 1.0
C      1  0.4314100000000  0.5502270000000  0.5099360000000 1.0
C      1  0.5059140000000  0.5559550000000  0.4222180000000 1.0
C      1  0.4726370000000  0.4219000000000  0.4400180000000 1.0
C      1  0.4592220000000  0.5320800000000  0.5888670000000 1.0
C      1  0.4443460000000  0.5543360000000  0.5764490000000 1.0
C      1  0.4065920000000  0.4969060000000  0.5723930000000 1.0
C      1  0.4859900000000  0.4652100000000  0.5956870000000 1.0
C      1  0.4002300000000  0.5012910000000  0.5026430000000 1.0
C      1  0.5389670000000  0.4994940000000  0.5820650000000 1.0
C      1  0.5025640000000  0.5843210000000  0.5428090000000 1.0
C      1  0.5776620000000  0.5190650000000  0.5114950000000 1.0
C      1  0.5929400000000  0.4243680000000  0.5339290000000 1.0
C      1  0.4625090000000  0.4699480000000  0.4734810000000 1.0
C      1  0.3999380000000  0.5029710000000  0.5315490000000 1.0
C      1  0.5419010000000  0.4116260000000  0.5051480000000 1.0
C      1  0.4550880000000  0.5318360000000  0.5170820000000 1.0
C      1  0.5269690000000  0.4408790000000  0.4224950000000 1.0
C      1  0.5722850000000  0.5163800000000  0.4271050000000 1.0
C      1  0.4244420000000  0.4989760000000  0.4302390000000 1.0
C      1  0.5595070000000  0.5821020000000  0.4974900000000 1.0
C      1  0.5479400000000  0.4580270000000  0.5052820000000 1.0
C      1  0.5133940000000  0.5436250000000  0.5968310000000 1.0
C      1  0.5898370000000  0.4353940000000  0.5070360000000 1.0
C      1  0.4553910000000  0.5282010000000  0.4559350000000 1.0
C      1  0.4267990000000  0.4719480000000  0.4252350000000 1.0
C      1  0.4988770000000  0.5802480000000  0.4371880000000 1.0
C      1  0.5183880000000  0.4048370000000  0.4564380000000 1.0
C      1  0.5027180000000  0.4526800000000  0.4982850000000 1.0
C      1  0.4530220000000  0.5017910000000  0.4167050000000 1.0
C      1  0.4265770000000  0.4507720000000  0.4440560000000 1.0
C      1  0.5633370000000  0.5431680000000  0.4341220000000 1.0
C      1  0.6009610000000  0.5235520000000  0.4946840000000 1.0
C      1  0.4454320000000  0.5165120000000  0.5417270000000 1.0
C      1  0.5838250000000  0.4488830000000  0.5507460000000 1.0
C      1  0.5496370000000  0.5250150000000  0.4748400000000 1.0
C      1  0.5434610000000  0.5340030000000  0.5350290000000 1.0
C      1  0.5338020000000  0.4170620000000  0.5323250000000 1.0
C      1  0.5306570000000  0.4931630000000  0.5099870000000 1.0
C      1  0.5104570000000  0.4236930000000  0.5676700000000 1.0
C      1  0.5541860000000  0.5113430000000  0.4977020000000 1.0
C      1  0.4448440000000  0.4897990000000  0.4870230000000 1.0
C      1  0.4639580000000  0.4164650000000  0.5346880000000 1.0
C      1  0.5048200000000  0.4353320000000  0.4784920000000 1.0
C      1  0.5053240000000  0.5049960000000  0.5159140000000 1.0
C      1  0.5338220000000  0.4668860000000  0.4107950000000 1.0
C      1  0.5943330000000  0.4642120000000  0.5062730000000 1.0
C      1  0.4879140000000  0.6021270000000  0.4996100000000 1.0
C      1  0.4646910000000  0.4625920000000  0.5243120000000 1.0
C      1  0.4420820000000  0.4590440000000  0.5738800000000 1.0
C      1  0.5191670000000  0.5267070000000  0.5267910000000 1.0
C      1  0.5274350000000  0.4844650000000  0.4632320000000 1.0
C      1  0.4736620000000  0.5129920000000  0.4376400000000 1.0
C      1  0.5585540000000  0.4499760000000  0.5651290000000 1.0
C      1  0.4882320000000  0.4048970000000  0.4575670000000 1.0
C      1  0.4768960000000  0.5715050000000  0.4698740000000 1.0
C      1  0.5729280000000  0.5555790000000  0.5513700000000 1.0
C      1  0.4431560000000  0.4413890000000  0.5282280000000 1.0
C      1  0.4938120000000  0.4375340000000  0.4253440000000 1.0
C      1  0.4712220000000  0.4066550000000  0.5101970000000 1.0
C      1  0.5891410000000  0.4733790000000  0.5347290000000 1.0
C      1  0.6027800000000  0.5529560000000  0.4906950000000 1.0
C      1  0.4683800000000  0.4808860000000  0.4067890000000 1.0
C      1  0.5004310000000  0.4402510000000  0.5902730000000 1.0
C      1  0.4310940000000  0.5686730000000  0.5331390000000 1.0
C      1  0.5033280000000  0.4767430000000  0.4523220000000 1.0
C      1  0.5267370000000  0.5155520000000  0.4610420000000 1.0
C      1  0.4366240000000  0.5928840000000  0.4819480000000 1.0
C      1  0.4134800000000  0.4557660000000  0.4905590000000 1.0
C      1  0.4140280000000  0.5436180000000  0.4873490000000 1.0
C      1  0.5074480000000  0.4332300000000  0.5265230000000 1.0
C      1  0.4257450000000  0.4552260000000  0.5505620000000 1.0
C      1  0.4052500000000  0.5165240000000  0.4781410000000 1.0
C      1  0.5079190000000  0.4709800000000  0.4011960000000 1.0
C      1  0.4572810000000  0.5165790000000  0.4867790000000 1.0
C      1  0.4982290000000  0.4996370000000  0.5459730000000 1.0
C      1  0.5384630000000  0.5285600000000  0.5940060000000 1.0
C      1  0.4239320000000  0.5513870000000  0.5556860000000 1.0
C      1  0.5201750000000  0.4106220000000  0.4849740000000 1.0
C      1  0.4814080000000  0.4897380000000  0.4611070000000 1.0
C      1  0.4054990000000  0.4792720000000  0.5501750000000 1.0
C      1  0.4881950000000  0.5315720000000  0.5878590000000 1.0
C      1  0.5598290000000  0.5507690000000  0.4637980000000 1.0
C      1  0.5029860000000  0.5279680000000  0.4713650000000 1.0
C      1  0.4833970000000  0.4581500000000  0.4024130000000 1.0
END
