TITL C-883727-9645-368 3.75155494225692 125000 -19898.3422867217 0 0 132 (C1) n - 1
REM
REM in /home/nfs/bkarasulu/CARBON/AIRSS/Generating-Clusters/ReaxFF-fromJPCA2015/Units_Real/with-SteepDescent/Only-C1/SD-CG/Try1-3A/FIRE-CG
REM
REM
REM
REM
REM
REM ./C.cell (11c1c37f851c82e70ff6c80c92926a4b)
REM
REM compiler GCC version 9.2.1 20190827 (Red Hat 9.2.1-1)
REM options -cpp -mtune=generic -march=x86-64 -g -O0 -fpre-include=/usr/include/finclude/math-vector-fortran.h
REM seed -850984459 1212404038 -1117694196 -728990177 -485351436 -46792939 941673918 -592026614 -72411160 1496583384 391527002 -1061732045 -1328945757 1874317039 -342989342 -1307718963 39521996 -708374714 1938636656 -1713941285 -666750921 1428379688 -1847260401 1801276741 1081686033 -486463845 2039128582 -552090039 -173498811 -1242799528 -1407087644 -389411320 834235686
REM
CELL 1.54180   50.00000   50.00000   50.00000   90.00000   90.00000   90.00000
LATT -1
SFAC C  
C      1  0.5228690000000  0.4867910000000  0.6029500000000 1.0
C      1  0.5315430000000  0.5760140000000  0.5174620000000 1.0
C      1  0.4103620000000  0.4956600000000  0.5417720000000 1.0
C      1  0.4704390000000  0.4146560000000  0.4450850000000 1.0
C      1  0.5621830000000  0.4390440000000  0.4743290000000 1.0
C      1  0.5101610000000  0.4347670000000  0.5565270000000 1.0
C      1  0.5029600000000  0.5060430000000  0.4880080000000 1.0
C      1  0.4628350000000  0.4366110000000  0.5535330000000 1.0
C      1  0.4327070000000  0.4482840000000  0.4570180000000 1.0
C      1  0.4806520000000  0.5078870000000  0.4456870000000 1.0
C      1  0.4397090000000  0.4893540000000  0.4911470000000 1.0
C      1  0.4710940000000  0.5559780000000  0.5798580000000 1.0
C      1  0.4944570000000  0.5692580000000  0.5709970000000 1.0
C      1  0.4993200000000  0.4603030000000  0.5679480000000 1.0
C      1  0.4733540000000  0.5808710000000  0.4679520000000 1.0
C      1  0.5538220000000  0.5776520000000  0.4982480000000 1.0
C      1  0.4200260000000  0.4737580000000  0.4533890000000 1.0
C      1  0.5084260000000  0.4265030000000  0.4944140000000 1.0
C      1  0.5712680000000  0.5448930000000  0.4653070000000 1.0
C      1  0.5841570000000  0.4967100000000  0.4392250000000 1.0
C      1  0.5520320000000  0.4388580000000  0.5269880000000 1.0
C      1  0.4385000000000  0.5303440000000  0.4198500000000 1.0
C      1  0.5074450000000  0.4067660000000  0.4731830000000 1.0
C      1  0.5084740000000  0.5118310000000  0.5957280000000 1.0
C      1  0.5288990000000  0.5559640000000  0.4332070000000 1.0
C      1  0.5657840000000  0.4446180000000  0.5008020000000 1.0
C      1  0.4677480000000  0.4609560000000  0.5686240000000 1.0
C      1  0.5396770000000  0.5305640000000  0.4900020000000 1.0
C      1  0.5406930000000  0.5258680000000  0.4246970000000 1.0
C      1  0.4425500000000  0.4222120000000  0.5060310000000 1.0
C      1  0.5753590000000  0.5629380000000  0.5109800000000 1.0
C      1  0.5048590000000  0.5485120000000  0.4192290000000 1.0
C      1  0.5394450000000  0.4302840000000  0.4411300000000 1.0
C      1  0.5080830000000  0.5054410000000  0.5678480000000 1.0
C      1  0.5250710000000  0.4468160000000  0.5339580000000 1.0
C      1  0.5344150000000  0.5546370000000  0.5411070000000 1.0
C      1  0.4227900000000  0.4479150000000  0.5374670000000 1.0
C      1  0.5922790000000  0.4958400000000  0.4660940000000 1.0
C      1  0.4863640000000  0.4764230000000  0.5219620000000 1.0
C      1  0.4332190000000  0.5315330000000  0.4665020000000 1.0
C      1  0.4884120000000  0.4561320000000  0.4025370000000 1.0
C      1  0.4552690000000  0.5339160000000  0.5889870000000 1.0
C      1  0.4298960000000  0.5334350000000  0.5225830000000 1.0
C      1  0.5520200000000  0.5232150000000  0.4681630000000 1.0
C      1  0.5964930000000  0.5200620000000  0.5341340000000 1.0
C      1  0.5770790000000  0.5278800000000  0.5775830000000 1.0
C      1  0.5235670000000  0.4623620000000  0.5856260000000 1.0
C      1  0.4468370000000  0.5394820000000  0.5455070000000 1.0
C      1  0.4349070000000  0.5274180000000  0.5691240000000 1.0
C      1  0.4833730000000  0.5394750000000  0.4382310000000 1.0
C      1  0.5741730000000  0.4741210000000  0.5071810000000 1.0
C      1  0.4302300000000  0.4922050000000  0.4344780000000 1.0
C      1  0.4766110000000  0.5222040000000  0.5375500000000 1.0
C      1  0.4956180000000  0.4101150000000  0.4288250000000 1.0
C      1  0.5944650000000  0.4941070000000  0.4927450000000 1.0
C      1  0.5445500000000  0.4876720000000  0.5038450000000 1.0
C      1  0.4674890000000  0.4970450000000  0.5279750000000 1.0
C      1  0.4521300000000  0.5827720000000  0.4864820000000 1.0
C      1  0.4756210000000  0.5025210000000  0.4743500000000 1.0
C      1  0.4813660000000  0.4636930000000  0.4980860000000 1.0
C      1  0.5822050000000  0.4716970000000  0.5354800000000 1.0
C      1  0.4287560000000  0.4995780000000  0.5640960000000 1.0
C      1  0.5863940000000  0.5441180000000  0.4915900000000 1.0
C      1  0.4708990000000  0.5094370000000  0.4043940000000 1.0
C      1  0.5834540000000  0.5397410000000  0.5516140000000 1.0
C      1  0.4398350000000  0.4269010000000  0.5355070000000 1.0
C      1  0.5238840000000  0.5244770000000  0.5299140000000 1.0
C      1  0.5182760000000  0.5274040000000  0.4038640000000 1.0
C      1  0.5804840000000  0.5006670000000  0.5700710000000 1.0
C      1  0.4775990000000  0.4038580000000  0.4712020000000 1.0
C      1  0.5651570000000  0.4525840000000  0.5491930000000 1.0
C      1  0.4277280000000  0.5557250000000  0.5039390000000 1.0
C      1  0.5969100000000  0.5210090000000  0.5052350000000 1.0
C      1  0.5078460000000  0.5857110000000  0.5051020000000 1.0
C      1  0.5289640000000  0.5718070000000  0.4567250000000 1.0
C      1  0.4049330000000  0.5166160000000  0.5220950000000 1.0
C      1  0.4596980000000  0.4899720000000  0.4247880000000 1.0
C      1  0.5935000000000  0.4947390000000  0.5471780000000 1.0
C      1  0.5540130000000  0.4902880000000  0.5718850000000 1.0
C      1  0.4697520000000  0.5074350000000  0.5863310000000 1.0
C      1  0.5534050000000  0.5280520000000  0.5954980000000 1.0
C      1  0.4777050000000  0.5429900000000  0.4953680000000 1.0
C      1  0.4946100000000  0.4303480000000  0.4095930000000 1.0
C      1  0.5044280000000  0.4909770000000  0.4448950000000 1.0
C      1  0.5082820000000  0.4781140000000  0.3977270000000 1.0
C      1  0.3996240000000  0.5118830000000  0.4945140000000 1.0
C      1  0.5235580000000  0.4539630000000  0.4341290000000 1.0
C      1  0.4960390000000  0.5268280000000  0.5142280000000 1.0
C      1  0.5204830000000  0.4807700000000  0.4926220000000 1.0
C      1  0.4542800000000  0.5656850000000  0.5097510000000 1.0
C      1  0.5045520000000  0.4556200000000  0.4835790000000 1.0
C      1  0.4088970000000  0.4848260000000  0.4822220000000 1.0
C      1  0.4571750000000  0.4676850000000  0.4848350000000 1.0
C      1  0.5647650000000  0.5570000000000  0.5379690000000 1.0
C      1  0.4566970000000  0.5658150000000  0.5418470000000 1.0
C      1  0.4060930000000  0.4681800000000  0.5294690000000 1.0
C      1  0.4596470000000  0.5259790000000  0.4785020000000 1.0
C      1  0.5196800000000  0.4095490000000  0.4468900000000 1.0
C      1  0.5305940000000  0.4762600000000  0.4163710000000 1.0
C      1  0.5262560000000  0.5367170000000  0.5897360000000 1.0
C      1  0.4454170000000  0.5052340000000  0.5127710000000 1.0
C      1  0.5717760000000  0.5264280000000  0.4332890000000 1.0
C      1  0.4095230000000  0.4614920000000  0.5006470000000 1.0
C      1  0.4665010000000  0.4083130000000  0.4982200000000 1.0
C      1  0.5029320000000  0.5807760000000  0.4739790000000 1.0
C      1  0.5227300000000  0.5212660000000  0.4697260000000 1.0
C      1  0.4556040000000  0.4396620000000  0.4408750000000 1.0
C      1  0.5671410000000  0.4425630000000  0.4473260000000 1.0
C      1  0.4328660000000  0.4454910000000  0.4893430000000 1.0
C      1  0.4224880000000  0.5207130000000  0.4406370000000 1.0
C      1  0.4868210000000  0.4231470000000  0.5432970000000 1.0
C      1  0.4648270000000  0.5373510000000  0.4136000000000 1.0
C      1  0.5122220000000  0.4739360000000  0.5372450000000 1.0
C      1  0.4123400000000  0.5369840000000  0.4866550000000 1.0
C      1  0.5540380000000  0.5695540000000  0.4698610000000 1.0
C      1  0.4901990000000  0.4161400000000  0.5145930000000 1.0
C      1  0.4861420000000  0.5558010000000  0.4683190000000 1.0
C      1  0.4532120000000  0.4853180000000  0.5751670000000 1.0
C      1  0.4997560000000  0.4623110000000  0.4497440000000 1.0
C      1  0.5480650000000  0.4997830000000  0.5997560000000 1.0
C      1  0.5279500000000  0.4993070000000  0.5477430000000 1.0
C      1  0.4792030000000  0.5814650000000  0.5479730000000 1.0
C      1  0.4721930000000  0.4615650000000  0.4287160000000 1.0
C      1  0.5752260000000  0.4697850000000  0.4397270000000 1.0
C      1  0.4991490000000  0.5059050000000  0.3969110000000 1.0
C      1  0.4864510000000  0.5952920000000  0.5220720000000 1.0
C      1  0.5500650000000  0.4607350000000  0.5729850000000 1.0
C      1  0.4856010000000  0.5169050000000  0.5633980000000 1.0
C      1  0.5431910000000  0.5157710000000  0.5115620000000 1.0
C      1  0.5307250000000  0.4987390000000  0.4358630000000 1.0
C      1  0.4610810000000  0.5958460000000  0.5088150000000 1.0
C      1  0.5213730000000  0.5562320000000  0.5689990000000 1.0
END
