TITL C-884136-4169-349 12.5588136944648 125000 -19509.2630465682 0 0 130 (C1) n - 1
REM
REM in /home/nfs/bkarasulu/CARBON/AIRSS/Generating-Clusters/ReaxFF-fromJPCA2015/Units_Real/with-SteepDescent/Only-C1/SD-CG/Try1-3A/FIRE-CG
REM
REM
REM
REM
REM
REM ./C.cell (11c1c37f851c82e70ff6c80c92926a4b)
REM
REM compiler GCC version 9.2.1 20190827 (Red Hat 9.2.1-1)
REM options -cpp -mtune=generic -march=x86-64 -g -O0 -fpre-include=/usr/include/finclude/math-vector-fortran.h
REM seed -1520205018 399526534 431317563 1164787668 176763716 849495468 -325816288 -1921708525 1449688016 1810935811 862803058 -100850284 -750144525 1501717068 1394390429 1338532342 -1454711764 -2124291056 -496336256 -1158572125 1679193931 -1280922892 1999863436 1769489078 870159581 -70416704 1401436435 -1177677185 -132677903 -365902001 -494975555 297005586 1929566519
REM
CELL 1.54180   50.00000   50.00000   50.00000   90.00000   90.00000   90.00000
LATT -1
SFAC C  
C      1  0.4315000000000  0.5154530000000  0.5566770000000 1.0
C      1  0.4209140000000  0.4423400000000  0.4824300000000 1.0
C      1  0.5155330000000  0.4377650000000  0.5279580000000 1.0
C      1  0.5030730000000  0.4695350000000  0.4507820000000 1.0
C      1  0.4362350000000  0.4347360000000  0.5257880000000 1.0
C      1  0.4253010000000  0.5656310000000  0.4733180000000 1.0
C      1  0.4060590000000  0.4735260000000  0.5042120000000 1.0
C      1  0.4563020000000  0.4550340000000  0.4477440000000 1.0
C      1  0.4706540000000  0.4963260000000  0.4260880000000 1.0
C      1  0.4514270000000  0.4587980000000  0.5193030000000 1.0
C      1  0.5919580000000  0.5244500000000  0.4492020000000 1.0
C      1  0.4773010000000  0.4265400000000  0.5147000000000 1.0
C      1  0.5534710000000  0.5669660000000  0.4977180000000 1.0
C      1  0.5141480000000  0.5373510000000  0.4930760000000 1.0
C      1  0.5434260000000  0.4742830000000  0.4739770000000 1.0
C      1  0.4573390000000  0.5208880000000  0.4153550000000 1.0
C      1  0.5067550000000  0.4862770000000  0.5403840000000 1.0
C      1  0.5267860000000  0.5733590000000  0.5428320000000 1.0
C      1  0.6035260000000  0.5202260000000  0.4743820000000 1.0
C      1  0.4367980000000  0.5005370000000  0.5318320000000 1.0
C      1  0.5907650000000  0.4808920000000  0.4758350000000 1.0
C      1  0.5657070000000  0.4343250000000  0.4852000000000 1.0
C      1  0.5649500000000  0.4892690000000  0.4238620000000 1.0
C      1  0.5075310000000  0.5451420000000  0.5763810000000 1.0
C      1  0.5233480000000  0.5706740000000  0.4948720000000 1.0
C      1  0.4580350000000  0.5052580000000  0.5128440000000 1.0
C      1  0.4881940000000  0.5309090000000  0.5308970000000 1.0
C      1  0.5320730000000  0.5199740000000  0.5118310000000 1.0
C      1  0.5633860000000  0.5674080000000  0.4380760000000 1.0
C      1  0.5644210000000  0.5451020000000  0.4820460000000 1.0
C      1  0.5350110000000  0.4602270000000  0.4507340000000 1.0
C      1  0.5165630000000  0.5453520000000  0.3985130000000 1.0
C      1  0.5310000000000  0.4385430000000  0.5727600000000 1.0
C      1  0.4883050000000  0.4359040000000  0.5614910000000 1.0
C      1  0.4680200000000  0.5280470000000  0.4768310000000 1.0
C      1  0.4761880000000  0.5867010000000  0.4806090000000 1.0
C      1  0.5651410000000  0.4352030000000  0.5308620000000 1.0
C      1  0.5763800000000  0.4979470000000  0.4508500000000 1.0
C      1  0.5542100000000  0.5537370000000  0.4148980000000 1.0
C      1  0.5642410000000  0.4716970000000  0.5598830000000 1.0
C      1  0.5323020000000  0.4589550000000  0.3996100000000 1.0
C      1  0.4893510000000  0.5920180000000  0.5315600000000 1.0
C      1  0.5158660000000  0.5863080000000  0.5199450000000 1.0
C      1  0.4454860000000  0.5042890000000  0.5789530000000 1.0
C      1  0.4524340000000  0.4808860000000  0.4686080000000 1.0
C      1  0.5808190000000  0.5326190000000  0.5252500000000 1.0
C      1  0.5369120000000  0.5522670000000  0.5881350000000 1.0
C      1  0.5687000000000  0.5599440000000  0.5219580000000 1.0
C      1  0.5812630000000  0.4573600000000  0.5205410000000 1.0
C      1  0.4263130000000  0.4826040000000  0.4130170000000 1.0
C      1  0.5125540000000  0.5445860000000  0.5467500000000 1.0
C      1  0.4825350000000  0.4919930000000  0.5025480000000 1.0
C      1  0.5833790000000  0.4574300000000  0.4909680000000 1.0
C      1  0.5170270000000  0.5161320000000  0.4665530000000 1.0
C      1  0.5140260000000  0.4072220000000  0.4797170000000 1.0
C      1  0.5278950000000  0.4069630000000  0.5054040000000 1.0
C      1  0.4146360000000  0.5274510000000  0.4988370000000 1.0
C      1  0.5293440000000  0.4724890000000  0.4982300000000 1.0
C      1  0.5897950000000  0.5060600000000  0.5233250000000 1.0
C      1  0.4393790000000  0.4322590000000  0.4643840000000 1.0
C      1  0.5099480000000  0.5195490000000  0.4388250000000 1.0
C      1  0.4443630000000  0.5184960000000  0.4914630000000 1.0
C      1  0.5268210000000  0.5039370000000  0.5615030000000 1.0
C      1  0.5041150000000  0.5816400000000  0.4723830000000 1.0
C      1  0.4439830000000  0.5866320000000  0.5171220000000 1.0
C      1  0.4847410000000  0.4470190000000  0.4505860000000 1.0
C      1  0.4625840000000  0.4861470000000  0.5631120000000 1.0
C      1  0.4867160000000  0.5352630000000  0.5021600000000 1.0
C      1  0.4296420000000  0.4993850000000  0.4710610000000 1.0
C      1  0.4187400000000  0.5741470000000  0.5216120000000 1.0
C      1  0.6017600000000  0.5003030000000  0.4942130000000 1.0
C      1  0.5512290000000  0.4637590000000  0.4227770000000 1.0
C      1  0.4586710000000  0.5495290000000  0.4528790000000 1.0
C      1  0.4524450000000  0.4725250000000  0.4225530000000 1.0
C      1  0.4052110000000  0.5009110000000  0.5047710000000 1.0
C      1  0.5003250000000  0.5462840000000  0.4261170000000 1.0
C      1  0.4583530000000  0.4155280000000  0.4779290000000 1.0
C      1  0.4718000000000  0.5024460000000  0.4610870000000 1.0
C      1  0.5117210000000  0.4189850000000  0.5628820000000 1.0
C      1  0.5556470000000  0.4439470000000  0.5570450000000 1.0
C      1  0.4859140000000  0.5071830000000  0.5483910000000 1.0
C      1  0.4703680000000  0.5442080000000  0.4253530000000 1.0
C      1  0.4880070000000  0.4437840000000  0.4951510000000 1.0
C      1  0.5018280000000  0.4559740000000  0.5449470000000 1.0
C      1  0.5467500000000  0.5026810000000  0.4058480000000 1.0
C      1  0.4899090000000  0.5030430000000  0.5979020000000 1.0
C      1  0.5539700000000  0.5195340000000  0.4919990000000 1.0
C      1  0.5025670000000  0.4933290000000  0.4267510000000 1.0
C      1  0.5158180000000  0.4480930000000  0.5019250000000 1.0
C      1  0.5328260000000  0.4086690000000  0.4573150000000 1.0
C      1  0.4437180000000  0.4728320000000  0.5427940000000 1.0
C      1  0.5475040000000  0.4353300000000  0.4626280000000 1.0
C      1  0.4646040000000  0.5181570000000  0.5960340000000 1.0
C      1  0.4213140000000  0.5174550000000  0.4493120000000 1.0
C      1  0.4356530000000  0.5439780000000  0.5652960000000 1.0
C      1  0.5366820000000  0.5741410000000  0.4464990000000 1.0
C      1  0.4825860000000  0.4025990000000  0.5231350000000 1.0
C      1  0.5431560000000  0.5333930000000  0.3984830000000 1.0
C      1  0.5537950000000  0.4201360000000  0.5081590000000 1.0
C      1  0.5795740000000  0.5496490000000  0.4569540000000 1.0
C      1  0.5423850000000  0.4826470000000  0.5756910000000 1.0
C      1  0.4812470000000  0.5627390000000  0.5782400000000 1.0
C      1  0.4700080000000  0.4659430000000  0.5845440000000 1.0
C      1  0.5226910000000  0.4641340000000  0.5859060000000 1.0
C      1  0.4606050000000  0.4408900000000  0.5724820000000 1.0
C      1  0.5488580000000  0.5021740000000  0.4690590000000 1.0
C      1  0.5106370000000  0.5719190000000  0.4460010000000 1.0
C      1  0.4827860000000  0.5789180000000  0.5557150000000 1.0
C      1  0.5153000000000  0.4930280000000  0.5130470000000 1.0
C      1  0.4295820000000  0.5118420000000  0.4214700000000 1.0
C      1  0.5035980000000  0.5157220000000  0.5761660000000 1.0
C      1  0.5521140000000  0.5461530000000  0.5645960000000 1.0
C      1  0.4669740000000  0.4670010000000  0.4965370000000 1.0
C      1  0.5801210000000  0.4811640000000  0.5367400000000 1.0
C      1  0.5100870000000  0.4085320000000  0.5306570000000 1.0
C      1  0.4530300000000  0.5759060000000  0.4670590000000 1.0
C      1  0.4115250000000  0.4461670000000  0.5073230000000 1.0
C      1  0.5220840000000  0.4871370000000  0.4024750000000 1.0
C      1  0.4380990000000  0.4434680000000  0.5543130000000 1.0
C      1  0.4963320000000  0.4935330000000  0.4711480000000 1.0
C      1  0.4860190000000  0.4231290000000  0.4694250000000 1.0
C      1  0.4958110000000  0.4747580000000  0.5949200000000 1.0
C      1  0.5553440000000  0.5693060000000  0.5463520000000 1.0
C      1  0.5355300000000  0.5265410000000  0.5454170000000 1.0
C      1  0.4120820000000  0.5562290000000  0.4974420000000 1.0
C      1  0.4563670000000  0.4108000000000  0.5085100000000 1.0
C      1  0.4594480000000  0.5443230000000  0.5844160000000 1.0
C      1  0.4281920000000  0.5620120000000  0.5454640000000 1.0
C      1  0.4274030000000  0.5459080000000  0.4521090000000 1.0
C      1  0.4683930000000  0.5952090000000  0.5084960000000 1.0
END
