TITL C-884139-6216-77 116.398800296929 125000 -28246.5301602833 0 0 190 (C1) n - 1
REM
REM in /home/nfs/bkarasulu/CARBON/AIRSS/Generating-Clusters/ReaxFF-fromJPCA2015/Units_Real/with-SteepDescent/Only-C1/SD-CG/Try1-3A/FIRE-CG
REM
REM
REM
REM
REM
REM ./C.cell (11c1c37f851c82e70ff6c80c92926a4b)
REM
REM compiler GCC version 9.2.1 20190827 (Red Hat 9.2.1-1)
REM options -cpp -mtune=generic -march=x86-64 -g -O0 -fpre-include=/usr/include/finclude/math-vector-fortran.h
REM seed -406863118 -1944375454 1522895680 1353684966 -1698718447 -1548797949 241674258 -1224905057 652484642 729177949 578651257 487904844 -1911813317 1803138852 -2103340051 -1165309935 -2060994622 1269107059 -1572316801 1015969751 -1842173842 -346707643 -1157076765 -1508612069 1923238323 -919332849 -878833606 2145468041 567169389 722117109 751702093 -868761663 -1991604311
REM
CELL 1.54180   50.00000   50.00000   50.00000   90.00000   90.00000   90.00000
LATT -1
SFAC C  
C      1  0.4693090000000  0.4415150000000  0.4944480000000 1.0
C      1  0.4853830000000  0.4594340000000  0.4018750000000 1.0
C      1  0.5243760000000  0.3877840000000  0.5425990000000 1.0
C      1  0.4795450000000  0.4878730000000  0.5462190000000 1.0
C      1  0.4396140000000  0.4306620000000  0.4189870000000 1.0
C      1  0.4877680000000  0.5235990000000  0.4437620000000 1.0
C      1  0.4814500000000  0.5273150000000  0.5576050000000 1.0
C      1  0.4407470000000  0.3867430000000  0.5284470000000 1.0
C      1  0.5906420000000  0.5501880000000  0.5484340000000 1.0
C      1  0.6037460000000  0.5259450000000  0.5410730000000 1.0
C      1  0.5312610000000  0.4803260000000  0.4153940000000 1.0
C      1  0.5990630000000  0.5489690000000  0.4975960000000 1.0
C      1  0.4544220000000  0.3894280000000  0.4606790000000 1.0
C      1  0.4942350000000  0.6104200000000  0.4862760000000 1.0
C      1  0.3981710000000  0.5135900000000  0.4455150000000 1.0
C      1  0.5695360000000  0.5738210000000  0.4652980000000 1.0
C      1  0.5660790000000  0.4068140000000  0.5278100000000 1.0
C      1  0.5720420000000  0.4621420000000  0.5779240000000 1.0
C      1  0.4146170000000  0.5638030000000  0.4808650000000 1.0
C      1  0.5884690000000  0.5509850000000  0.4703220000000 1.0
C      1  0.4583560000000  0.5140520000000  0.5961950000000 1.0
C      1  0.4990310000000  0.6009810000000  0.5467150000000 1.0
C      1  0.4759710000000  0.4881650000000  0.4664560000000 1.0
C      1  0.5095060000000  0.4371780000000  0.5112210000000 1.0
C      1  0.4902810000000  0.4312060000000  0.4105820000000 1.0
C      1  0.6267380000000  0.4762710000000  0.5045640000000 1.0
C      1  0.4292400000000  0.5663120000000  0.5328800000000 1.0
C      1  0.5611380000000  0.5182650000000  0.4012890000000 1.0
C      1  0.4812170000000  0.5573070000000  0.5562350000000 1.0
C      1  0.5442860000000  0.5349130000000  0.4922000000000 1.0
C      1  0.5443380000000  0.5863190000000  0.5357760000000 1.0
C      1  0.4595560000000  0.5361260000000  0.4007240000000 1.0
C      1  0.5498070000000  0.4768370000000  0.6001910000000 1.0
C      1  0.4358810000000  0.4231260000000  0.5625630000000 1.0
C      1  0.4148180000000  0.4685400000000  0.4921160000000 1.0
C      1  0.3860690000000  0.5021440000000  0.4707470000000 1.0
C      1  0.4463140000000  0.5946870000000  0.4985510000000 1.0
C      1  0.5018740000000  0.5488600000000  0.4972600000000 1.0
C      1  0.3869240000000  0.5494840000000  0.5207980000000 1.0
C      1  0.4878090000000  0.4165750000000  0.5104580000000 1.0
C      1  0.5259700000000  0.3881450000000  0.5129890000000 1.0
C      1  0.4746830000000  0.3987480000000  0.4407680000000 1.0
C      1  0.4953540000000  0.4712390000000  0.4486060000000 1.0
C      1  0.6020690000000  0.4831500000000  0.4535300000000 1.0
C      1  0.5343380000000  0.5075960000000  0.3964690000000 1.0
C      1  0.3894770000000  0.5460970000000  0.4931640000000 1.0
C      1  0.5160390000000  0.5168860000000  0.4473480000000 1.0
C      1  0.5678490000000  0.5013350000000  0.5609330000000 1.0
C      1  0.5138740000000  0.4205930000000  0.4247120000000 1.0
C      1  0.5426320000000  0.5281560000000  0.4452690000000 1.0
C      1  0.4801830000000  0.4460890000000  0.5501010000000 1.0
C      1  0.4174780000000  0.4046360000000  0.5215920000000 1.0
C      1  0.4154000000000  0.4266580000000  0.5420830000000 1.0
C      1  0.4941960000000  0.5157180000000  0.3913980000000 1.0
C      1  0.5514440000000  0.3954870000000  0.5503520000000 1.0
C      1  0.4573430000000  0.4850460000000  0.6019580000000 1.0
C      1  0.5396020000000  0.5060250000000  0.5266960000000 1.0
C      1  0.5960370000000  0.5007850000000  0.5561940000000 1.0
C      1  0.5661740000000  0.5863990000000  0.5163730000000 1.0
C      1  0.5008860000000  0.5994250000000  0.4598620000000 1.0
C      1  0.4652340000000  0.5077350000000  0.3956490000000 1.0
C      1  0.4095010000000  0.4727320000000  0.4106040000000 1.0
C      1  0.4355800000000  0.4691960000000  0.5904780000000 1.0
C      1  0.5914320000000  0.5245470000000  0.4579260000000 1.0
C      1  0.5002340000000  0.5815140000000  0.5680070000000 1.0
C      1  0.4589080000000  0.5348330000000  0.4829110000000 1.0
C      1  0.5043680000000  0.4570070000000  0.5319790000000 1.0
C      1  0.4478080000000  0.4861930000000  0.4681930000000 1.0
C      1  0.5491520000000  0.5804270000000  0.4449920000000 1.0
C      1  0.5362780000000  0.5459410000000  0.4668930000000 1.0
C      1  0.5400400000000  0.6083490000000  0.4821480000000 1.0
C      1  0.5007940000000  0.5246120000000  0.5111870000000 1.0
C      1  0.5152300000000  0.4496400000000  0.5790230000000 1.0
C      1  0.5181180000000  0.4915730000000  0.4607390000000 1.0
C      1  0.5566060000000  0.4206220000000  0.4517610000000 1.0
C      1  0.5023890000000  0.5452080000000  0.6021090000000 1.0
C      1  0.5248030000000  0.5117670000000  0.5016610000000 1.0
C      1  0.5413730000000  0.4308890000000  0.4279540000000 1.0
C      1  0.4097550000000  0.5534300000000  0.5551700000000 1.0
C      1  0.4251810000000  0.5795490000000  0.5044130000000 1.0
C      1  0.4534790000000  0.4040250000000  0.5495890000000 1.0
C      1  0.4654250000000  0.5045690000000  0.4265000000000 1.0
C      1  0.4483000000000  0.5843760000000  0.5464840000000 1.0
C      1  0.5059690000000  0.4044010000000  0.5574500000000 1.0
C      1  0.5448810000000  0.4057710000000  0.4743580000000 1.0
C      1  0.4235630000000  0.5490890000000  0.5804960000000 1.0
C      1  0.4207560000000  0.4196220000000  0.4381150000000 1.0
C      1  0.5220460000000  0.4954440000000  0.5460800000000 1.0
C      1  0.5705690000000  0.4327830000000  0.5702390000000 1.0
C      1  0.5086310000000  0.5536410000000  0.4702740000000 1.0
C      1  0.5839500000000  0.4458380000000  0.4911090000000 1.0
C      1  0.4200570000000  0.5797300000000  0.4516590000000 1.0
C      1  0.4831310000000  0.4716060000000  0.5948490000000 1.0
C      1  0.5768610000000  0.4656950000000  0.4149830000000 1.0
C      1  0.4912730000000  0.4878050000000  0.5712870000000 1.0
C      1  0.5619240000000  0.4883200000000  0.5095600000000 1.0
C      1  0.5419280000000  0.5034020000000  0.6087450000000 1.0
C      1  0.4811690000000  0.4149700000000  0.5427120000000 1.0
C      1  0.4733510000000  0.5388060000000  0.6025890000000 1.0
C      1  0.5717610000000  0.4920340000000  0.4066620000000 1.0
C      1  0.4358000000000  0.4586250000000  0.4057930000000 1.0
C      1  0.5458050000000  0.5340790000000  0.5357390000000 1.0
C      1  0.4929810000000  0.4805590000000  0.5098970000000 1.0
C      1  0.4386340000000  0.4866090000000  0.4967470000000 1.0
C      1  0.5828770000000  0.5619220000000  0.5198650000000 1.0
C      1  0.5492620000000  0.4553060000000  0.4134550000000 1.0
C      1  0.4666080000000  0.4186580000000  0.4203660000000 1.0
C      1  0.4648110000000  0.5428190000000  0.5112490000000 1.0
C      1  0.5724020000000  0.4606590000000  0.5133910000000 1.0
C      1  0.4586220000000  0.4680600000000  0.5388780000000 1.0
C      1  0.4745830000000  0.4468140000000  0.5799830000000 1.0
C      1  0.4185220000000  0.5345180000000  0.4469220000000 1.0
C      1  0.4597660000000  0.5729490000000  0.5700910000000 1.0
C      1  0.4769910000000  0.5158870000000  0.4695590000000 1.0
C      1  0.5246670000000  0.4684490000000  0.5980040000000 1.0
C      1  0.5065760000000  0.5119490000000  0.5652120000000 1.0
C      1  0.5186900000000  0.5670080000000  0.5845260000000 1.0
C      1  0.5140440000000  0.4868820000000  0.4900450000000 1.0
C      1  0.5801880000000  0.4280090000000  0.5433530000000 1.0
C      1  0.5618640000000  0.5410010000000  0.5128230000000 1.0
C      1  0.5168240000000  0.3978600000000  0.4705320000000 1.0
C      1  0.5918860000000  0.4541790000000  0.5355900000000 1.0
C      1  0.5001420000000  0.4483320000000  0.4859690000000 1.0
C      1  0.4567090000000  0.5145110000000  0.5661180000000 1.0
C      1  0.5209830000000  0.5258260000000  0.6125690000000 1.0
C      1  0.6126060000000  0.5059170000000  0.4660760000000 1.0
C      1  0.6099710000000  0.4532860000000  0.4985910000000 1.0
C      1  0.4009210000000  0.5080500000000  0.5255940000000 1.0
C      1  0.4425660000000  0.4958310000000  0.4412620000000 1.0
C      1  0.3926550000000  0.5328270000000  0.5418650000000 1.0
C      1  0.4397270000000  0.5358480000000  0.5226080000000 1.0
C      1  0.5905190000000  0.4612930000000  0.4422660000000 1.0
C      1  0.5026150000000  0.4748480000000  0.4195570000000 1.0
C      1  0.4368410000000  0.5826650000000  0.4285320000000 1.0
C      1  0.5702960000000  0.5538270000000  0.5692210000000 1.0
C      1  0.5639900000000  0.4974170000000  0.4852680000000 1.0
C      1  0.5554940000000  0.5275930000000  0.5652920000000 1.0
C      1  0.5961910000000  0.4716910000000  0.5591710000000 1.0
C      1  0.4172190000000  0.5606420000000  0.4312140000000 1.0
C      1  0.5187800000000  0.6133500000000  0.5016420000000 1.0
C      1  0.4196880000000  0.4843280000000  0.5700800000000 1.0
C      1  0.5631550000000  0.5914570000000  0.4882670000000 1.0
C      1  0.5319960000000  0.5204720000000  0.5856960000000 1.0
C      1  0.5304830000000  0.5600120000000  0.5363290000000 1.0
C      1  0.6103680000000  0.5259390000000  0.5116090000000 1.0
C      1  0.4025450000000  0.4534860000000  0.5377230000000 1.0
C      1  0.4921830000000  0.5775230000000  0.4074860000000 1.0
C      1  0.3867430000000  0.5173480000000  0.4952490000000 1.0
C      1  0.4209240000000  0.4467600000000  0.4806130000000 1.0
C      1  0.5661080000000  0.5072170000000  0.4593640000000 1.0
C      1  0.4323370000000  0.5411260000000  0.4722430000000 1.0
C      1  0.5158880000000  0.5307120000000  0.3947800000000 1.0
C      1  0.5504310000000  0.4010960000000  0.5032370000000 1.0
C      1  0.4919010000000  0.5720450000000  0.4555320000000 1.0
C      1  0.4416520000000  0.4927790000000  0.5535790000000 1.0
C      1  0.4282130000000  0.5112190000000  0.5149560000000 1.0
C      1  0.4835470000000  0.5051980000000  0.5234200000000 1.0
C      1  0.5553790000000  0.4755280000000  0.5575960000000 1.0
C      1  0.5422800000000  0.5652590000000  0.4202860000000 1.0
C      1  0.4329630000000  0.4101330000000  0.4648880000000 1.0
C      1  0.5429990000000  0.4834910000000  0.4466960000000 1.0
C      1  0.4505270000000  0.5559190000000  0.5918670000000 1.0
C      1  0.5495770000000  0.4132700000000  0.5737400000000 1.0
C      1  0.4627040000000  0.4677130000000  0.5082050000000 1.0
C      1  0.4141910000000  0.4962670000000  0.4283520000000 1.0
C      1  0.5719470000000  0.4447550000000  0.4619860000000 1.0
C      1  0.4696080000000  0.6074990000000  0.5026920000000 1.0
C      1  0.4027260000000  0.4811640000000  0.5457910000000 1.0
C      1  0.4719690000000  0.5966890000000  0.5324260000000 1.0
C      1  0.5221380000000  0.6053550000000  0.5299550000000 1.0
C      1  0.4433270000000  0.4331880000000  0.4814160000000 1.0
C      1  0.5553000000000  0.5398490000000  0.4211690000000 1.0
C      1  0.6199930000000  0.5045300000000  0.4952480000000 1.0
C      1  0.4457950000000  0.4429900000000  0.5821640000000 1.0
C      1  0.4598080000000  0.4728080000000  0.3999160000000 1.0
C      1  0.4804130000000  0.5645690000000  0.5271760000000 1.0
C      1  0.4614560000000  0.5765480000000  0.4098690000000 1.0
C      1  0.5081000000000  0.5650200000000  0.5191470000000 1.0
C      1  0.5211050000000  0.4205640000000  0.5758950000000 1.0
C      1  0.4638010000000  0.5521010000000  0.4175840000000 1.0
C      1  0.5031750000000  0.3949190000000  0.4963820000000 1.0
C      1  0.5157740000000  0.5620080000000  0.4065700000000 1.0
C      1  0.5451270000000  0.5681390000000  0.5730210000000 1.0
C      1  0.4817990000000  0.5512510000000  0.4400990000000 1.0
C      1  0.5429060000000  0.4586770000000  0.4607500000000 1.0
C      1  0.5269200000000  0.4674560000000  0.5530800000000 1.0
C      1  0.5036830000000  0.4020740000000  0.4447370000000 1.0
C      1  0.5149130000000  0.4518570000000  0.4622350000000 1.0
C      1  0.5300810000000  0.6001190000000  0.4561470000000 1.0
C      1  0.3962570000000  0.4784110000000  0.4813330000000 1.0
END
