TITL C-883730-8503-243 -3.37907334518253 125000 -28073.3068281454 0 0 184 (C1) n - 1
REM
REM in /home/nfs/bkarasulu/CARBON/AIRSS/Generating-Clusters/ReaxFF-fromJPCA2015/Units_Real/with-SteepDescent/Only-C1/SD-CG/Try1-3A/FIRE-CG
REM
REM
REM
REM
REM
REM ./C.cell (11c1c37f851c82e70ff6c80c92926a4b)
REM
REM compiler GCC version 9.2.1 20190827 (Red Hat 9.2.1-1)
REM options -cpp -mtune=generic -march=x86-64 -g -O0 -fpre-include=/usr/include/finclude/math-vector-fortran.h
REM seed -862964450 -242106439 -1367705986 -1339729533 743341314 -26652812 -1559664342 -967332077 311884150 461207734 852192819 1528057237 -1688894839 -1807414691 -1350184455 -1280580973 1455973369 703772697 1204736474 -1458039148 -1353720459 1109542194 -1800401550 -800246223 -402483133 1337187861 1848321407 -819550803 -2080948728 -1428942757 355647828 178834101 -1585428570
REM
CELL 1.54180   50.00000   50.00000   50.00000   90.00000   90.00000   90.00000
LATT -1
SFAC C  
C      1  0.4438910000000  0.5871950000000  0.5885940000000 1.0
C      1  0.4315470000000  0.5069670000000  0.5698760000000 1.0
C      1  0.5268980000000  0.5431450000000  0.4685720000000 1.0
C      1  0.4001820000000  0.5630220000000  0.4525550000000 1.0
C      1  0.5836380000000  0.5641090000000  0.5484650000000 1.0
C      1  0.6043130000000  0.4478070000000  0.5124400000000 1.0
C      1  0.5221320000000  0.5121650000000  0.6110930000000 1.0
C      1  0.5187450000000  0.4456030000000  0.4163650000000 1.0
C      1  0.6014840000000  0.5372580000000  0.5183890000000 1.0
C      1  0.4888300000000  0.4097460000000  0.4337340000000 1.0
C      1  0.4442480000000  0.5823990000000  0.5641550000000 1.0
C      1  0.5558700000000  0.5809630000000  0.4503680000000 1.0
C      1  0.4945870000000  0.5333650000000  0.5665680000000 1.0
C      1  0.3774740000000  0.5071380000000  0.5229520000000 1.0
C      1  0.5446120000000  0.4174460000000  0.5063340000000 1.0
C      1  0.5521220000000  0.5318460000000  0.4717400000000 1.0
C      1  0.5294080000000  0.4237510000000  0.5718110000000 1.0
C      1  0.4456390000000  0.5526750000000  0.4916700000000 1.0
C      1  0.5067750000000  0.4840780000000  0.5728640000000 1.0
C      1  0.5684370000000  0.5585720000000  0.4342200000000 1.0
C      1  0.4892740000000  0.5616150000000  0.5150690000000 1.0
C      1  0.4244280000000  0.4461610000000  0.4549330000000 1.0
C      1  0.4807900000000  0.5882040000000  0.4651610000000 1.0
C      1  0.5529930000000  0.5190940000000  0.4027380000000 1.0
C      1  0.5498150000000  0.4476380000000  0.5076600000000 1.0
C      1  0.4320640000000  0.4035080000000  0.4811390000000 1.0
C      1  0.4932380000000  0.4622010000000  0.4560680000000 1.0
C      1  0.5379740000000  0.5477670000000  0.5456030000000 1.0
C      1  0.5434090000000  0.4279780000000  0.4218570000000 1.0
C      1  0.4352150000000  0.5674270000000  0.4304430000000 1.0
C      1  0.5193680000000  0.4504730000000  0.6155990000000 1.0
C      1  0.4748870000000  0.5854270000000  0.5602340000000 1.0
C      1  0.3885800000000  0.5333350000000  0.5257930000000 1.0
C      1  0.5590940000000  0.4072150000000  0.5304970000000 1.0
C      1  0.5100010000000  0.5544210000000  0.4001590000000 1.0
C      1  0.5638960000000  0.5422030000000  0.4960680000000 1.0
C      1  0.5404680000000  0.5233820000000  0.5623190000000 1.0
C      1  0.4124800000000  0.4411120000000  0.5357440000000 1.0
C      1  0.4923360000000  0.5694480000000  0.4860030000000 1.0
C      1  0.5441080000000  0.4898840000000  0.4016170000000 1.0
C      1  0.4650450000000  0.5066150000000  0.5131830000000 1.0
C      1  0.4192620000000  0.4290750000000  0.4794030000000 1.0
C      1  0.4705110000000  0.5317880000000  0.3895940000000 1.0
C      1  0.4275770000000  0.4867390000000  0.5472200000000 1.0
C      1  0.4779710000000  0.4267010000000  0.5750170000000 1.0
C      1  0.6086010000000  0.4645980000000  0.4482130000000 1.0
C      1  0.4724600000000  0.5039620000000  0.4349750000000 1.0
C      1  0.5271780000000  0.5000110000000  0.5055390000000 1.0
C      1  0.5319950000000  0.5685080000000  0.4120560000000 1.0
C      1  0.5171200000000  0.4489860000000  0.4464140000000 1.0
C      1  0.4773140000000  0.4004510000000  0.4811990000000 1.0
C      1  0.4750890000000  0.4507230000000  0.5918690000000 1.0
C      1  0.5285470000000  0.6008450000000  0.4793120000000 1.0
C      1  0.5123100000000  0.5448630000000  0.5318240000000 1.0
C      1  0.4402340000000  0.4933770000000  0.5206880000000 1.0
C      1  0.4791400000000  0.5385130000000  0.5916460000000 1.0
C      1  0.5584240000000  0.4832750000000  0.4727520000000 1.0
C      1  0.4660760000000  0.4747040000000  0.4062050000000 1.0
C      1  0.4528880000000  0.4683180000000  0.5890000000000 1.0
C      1  0.4827410000000  0.4388860000000  0.5277580000000 1.0
C      1  0.4747030000000  0.5231260000000  0.5513360000000 1.0
C      1  0.4340340000000  0.4770560000000  0.4985670000000 1.0
C      1  0.4045030000000  0.4751220000000  0.4945980000000 1.0
C      1  0.4905310000000  0.4326070000000  0.4170370000000 1.0
C      1  0.5097120000000  0.4637030000000  0.5256820000000 1.0
C      1  0.5532900000000  0.5482930000000  0.4113220000000 1.0
C      1  0.5598700000000  0.5174120000000  0.5832790000000 1.0
C      1  0.4593180000000  0.4102890000000  0.4399830000000 1.0
C      1  0.5943760000000  0.4341310000000  0.4898890000000 1.0
C      1  0.5800560000000  0.5378550000000  0.4512550000000 1.0
C      1  0.4449520000000  0.5223580000000  0.3979660000000 1.0
C      1  0.4312270000000  0.4345960000000  0.5575030000000 1.0
C      1  0.4985750000000  0.4700770000000  0.5986690000000 1.0
C      1  0.5111680000000  0.5958040000000  0.4570800000000 1.0
C      1  0.5484400000000  0.4717310000000  0.5854230000000 1.0
C      1  0.4465360000000  0.4608270000000  0.5599330000000 1.0
C      1  0.5376720000000  0.4418270000000  0.4650870000000 1.0
C      1  0.5300960000000  0.5860010000000  0.4376220000000 1.0
C      1  0.5760990000000  0.4926830000000  0.5022150000000 1.0
C      1  0.5555580000000  0.5877600000000  0.4788060000000 1.0
C      1  0.4730270000000  0.4575580000000  0.5470900000000 1.0
C      1  0.4211470000000  0.4889810000000  0.4258470000000 1.0
C      1  0.4398530000000  0.4116060000000  0.5123770000000 1.0
C      1  0.4965860000000  0.4985540000000  0.6114060000000 1.0
C      1  0.4856480000000  0.5061280000000  0.5335520000000 1.0
C      1  0.5594350000000  0.4676760000000  0.5589250000000 1.0
C      1  0.5388260000000  0.4076310000000  0.4426930000000 1.0
C      1  0.5888560000000  0.5189510000000  0.5772920000000 1.0
C      1  0.5481390000000  0.4588790000000  0.4821980000000 1.0
C      1  0.5062820000000  0.3972900000000  0.4803150000000 1.0
C      1  0.5050370000000  0.5536000000000  0.4676650000000 1.0
C      1  0.4184810000000  0.4300710000000  0.5095270000000 1.0
C      1  0.4499120000000  0.4975480000000  0.5904430000000 1.0
C      1  0.4652020000000  0.4470560000000  0.4178610000000 1.0
C      1  0.5875230000000  0.4727940000000  0.5542920000000 1.0
C      1  0.5785520000000  0.4220160000000  0.5466680000000 1.0
C      1  0.4520910000000  0.3977400000000  0.5389130000000 1.0
C      1  0.3859190000000  0.5148870000000  0.4750610000000 1.0
C      1  0.4915420000000  0.4907920000000  0.4520620000000 1.0
C      1  0.5363750000000  0.4449890000000  0.5937210000000 1.0
C      1  0.5512700000000  0.4877070000000  0.5179600000000 1.0
C      1  0.5374140000000  0.5040690000000  0.4766200000000 1.0
C      1  0.5460870000000  0.5812810000000  0.5811150000000 1.0
C      1  0.5557160000000  0.5693300000000  0.5550370000000 1.0
C      1  0.5369720000000  0.5605610000000  0.5980320000000 1.0
C      1  0.4602180000000  0.4324740000000  0.5105170000000 1.0
C      1  0.4447380000000  0.4353850000000  0.4360730000000 1.0
C      1  0.4927950000000  0.4846410000000  0.3977570000000 1.0
C      1  0.4203930000000  0.5729810000000  0.5429570000000 1.0
C      1  0.4820660000000  0.5586830000000  0.3921920000000 1.0
C      1  0.6066920000000  0.4931080000000  0.4437130000000 1.0
C      1  0.4068720000000  0.5468990000000  0.5438490000000 1.0
C      1  0.4583870000000  0.4741650000000  0.4825130000000 1.0
C      1  0.5098920000000  0.5182650000000  0.5223220000000 1.0
C      1  0.3885870000000  0.4802300000000  0.5190830000000 1.0
C      1  0.5045730000000  0.4795980000000  0.5025440000000 1.0
C      1  0.5454410000000  0.4980690000000  0.5997410000000 1.0
C      1  0.4034470000000  0.4683610000000  0.5404170000000 1.0
C      1  0.5421740000000  0.4643450000000  0.5305510000000 1.0
C      1  0.4219500000000  0.5239300000000  0.4594150000000 1.0
C      1  0.4959070000000  0.5598100000000  0.6020380000000 1.0
C      1  0.4658880000000  0.6010790000000  0.4877350000000 1.0
C      1  0.5886680000000  0.4422810000000  0.4427840000000 1.0
C      1  0.5224010000000  0.6103210000000  0.5286570000000 1.0
C      1  0.4998040000000  0.4095380000000  0.5319790000000 1.0
C      1  0.4291000000000  0.5339010000000  0.5581030000000 1.0
C      1  0.3969060000000  0.4872820000000  0.4697140000000 1.0
C      1  0.4306510000000  0.5807360000000  0.5185670000000 1.0
C      1  0.5528830000000  0.4168810000000  0.4669200000000 1.0
C      1  0.5253790000000  0.6053250000000  0.5533930000000 1.0
C      1  0.4616990000000  0.5415740000000  0.5138250000000 1.0
C      1  0.5133420000000  0.6124160000000  0.5033210000000 1.0
C      1  0.4312910000000  0.5396960000000  0.4164420000000 1.0
C      1  0.5145760000000  0.5117840000000  0.5687000000000 1.0
C      1  0.4535430000000  0.5401280000000  0.5422400000000 1.0
C      1  0.4826240000000  0.5857220000000  0.5314390000000 1.0
C      1  0.5169320000000  0.5030910000000  0.4560650000000 1.0
C      1  0.5174620000000  0.4065150000000  0.5061220000000 1.0
C      1  0.6003380000000  0.4999970000000  0.5579640000000 1.0
C      1  0.6024380000000  0.4756630000000  0.5011970000000 1.0
C      1  0.3991850000000  0.5375550000000  0.4644220000000 1.0
C      1  0.4948620000000  0.5816840000000  0.5820210000000 1.0
C      1  0.5200860000000  0.5966720000000  0.5786400000000 1.0
C      1  0.5116330000000  0.4013580000000  0.4511260000000 1.0
C      1  0.4721500000000  0.5127800000000  0.6035400000000 1.0
C      1  0.4624400000000  0.5791010000000  0.4381530000000 1.0
C      1  0.4109920000000  0.5793760000000  0.4402520000000 1.0
C      1  0.4855670000000  0.5127550000000  0.4082230000000 1.0
C      1  0.5990800000000  0.5420030000000  0.5613280000000 1.0
C      1  0.4749040000000  0.5712870000000  0.4166330000000 1.0
C      1  0.4687520000000  0.5271620000000  0.4516080000000 1.0
C      1  0.4782290000000  0.3868760000000  0.5337150000000 1.0
C      1  0.6128140000000  0.4693750000000  0.4759600000000 1.0
C      1  0.5031950000000  0.4185880000000  0.5622650000000 1.0
C      1  0.5620370000000  0.4736700000000  0.4194610000000 1.0
C      1  0.4847130000000  0.6062940000000  0.5099590000000 1.0
C      1  0.5925110000000  0.4470610000000  0.5406720000000 1.0
C      1  0.5674850000000  0.4444940000000  0.4231760000000 1.0
C      1  0.4733940000000  0.4295040000000  0.4856870000000 1.0
C      1  0.5554480000000  0.5139140000000  0.4315760000000 1.0
C      1  0.4202790000000  0.5176960000000  0.4309790000000 1.0
C      1  0.4538120000000  0.3944480000000  0.4643120000000 1.0
C      1  0.5527800000000  0.4122530000000  0.5584800000000 1.0
C      1  0.4931290000000  0.5412580000000  0.4458420000000 1.0
C      1  0.5638230000000  0.4883680000000  0.4434040000000 1.0
C      1  0.4718920000000  0.4526620000000  0.4704110000000 1.0
C      1  0.5892770000000  0.5644950000000  0.5194980000000 1.0
C      1  0.5207030000000  0.5430580000000  0.6105350000000 1.0
C      1  0.4462170000000  0.5356690000000  0.4677240000000 1.0
C      1  0.4425680000000  0.4931010000000  0.4070280000000 1.0
C      1  0.5830660000000  0.5220770000000  0.5032610000000 1.0
C      1  0.5960820000000  0.5164590000000  0.4455500000000 1.0
C      1  0.6115180000000  0.5231060000000  0.5424970000000 1.0
C      1  0.4131110000000  0.4728190000000  0.4496240000000 1.0
C      1  0.4937010000000  0.4768780000000  0.5477800000000 1.0
C      1  0.5826080000000  0.4249650000000  0.4657800000000 1.0
C      1  0.5192770000000  0.4750380000000  0.4013600000000 1.0
C      1  0.4525990000000  0.4160490000000  0.5619550000000 1.0
C      1  0.4786420000000  0.4895430000000  0.4946320000000 1.0
C      1  0.3782140000000  0.5235730000000  0.5011290000000 1.0
C      1  0.4426050000000  0.5828880000000  0.4938900000000 1.0
C      1  0.5683430000000  0.5702590000000  0.4992340000000 1.0
C      1  0.5270170000000  0.5155060000000  0.4333840000000 1.0
C      1  0.5068670000000  0.5318190000000  0.4211880000000 1.0
END
