TITL C-884134-5972-356 61.9822001318153 125000 -24183.5777936788 0 0 161 (C1) n - 1
REM
REM in /home/nfs/bkarasulu/CARBON/AIRSS/Generating-Clusters/ReaxFF-fromJPCA2015/Units_Real/with-SteepDescent/Only-C1/SD-CG/Try1-3A/FIRE-CG
REM
REM
REM
REM
REM
REM ./C.cell (11c1c37f851c82e70ff6c80c92926a4b)
REM
REM compiler GCC version 9.2.1 20190827 (Red Hat 9.2.1-1)
REM options -cpp -mtune=generic -march=x86-64 -g -O0 -fpre-include=/usr/include/finclude/math-vector-fortran.h
REM seed -1534408950 1271958399 -1944353196 -1036057711 1099091092 -1615103066 552234049 -1966845291 -1235366081 -1880789520 811633370 320632132 -1710961528 -820884737 1140280761 -1411619856 -2073533992 -611641858 481521684 -2038524549 766271323 1466665262 1745725657 -111435086 524215773 -1654744440 1492318980 -1354256560 -708396066 -1598931921 1290901315 -1886958453 902611433
REM
CELL 1.54180   50.00000   50.00000   50.00000   90.00000   90.00000   90.00000
LATT -1
SFAC C  
C      1  0.4682570000000  0.5142840000000  0.4007630000000 1.0
C      1  0.4870610000000  0.5291760000000  0.5839700000000 1.0
C      1  0.4882360000000  0.4806070000000  0.4353180000000 1.0
C      1  0.4271720000000  0.4434840000000  0.4413970000000 1.0
C      1  0.5737020000000  0.4567340000000  0.5593690000000 1.0
C      1  0.4431890000000  0.4970730000000  0.5038470000000 1.0
C      1  0.5334900000000  0.5866080000000  0.5588890000000 1.0
C      1  0.5310430000000  0.4813700000000  0.5215710000000 1.0
C      1  0.5031530000000  0.4798910000000  0.4809770000000 1.0
C      1  0.5212940000000  0.5772370000000  0.4465580000000 1.0
C      1  0.5529050000000  0.5837570000000  0.4914900000000 1.0
C      1  0.5149020000000  0.5331870000000  0.5042650000000 1.0
C      1  0.5071570000000  0.4904570000000  0.6137750000000 1.0
C      1  0.5963050000000  0.4781000000000  0.4536740000000 1.0
C      1  0.5946660000000  0.5129830000000  0.5623400000000 1.0
C      1  0.4439290000000  0.5896630000000  0.5031890000000 1.0
C      1  0.4240420000000  0.4479480000000  0.5149420000000 1.0
C      1  0.5815530000000  0.4550690000000  0.4490330000000 1.0
C      1  0.4057590000000  0.4601400000000  0.5333710000000 1.0
C      1  0.5589590000000  0.5398300000000  0.4703340000000 1.0
C      1  0.4627270000000  0.4083110000000  0.5444260000000 1.0
C      1  0.4661760000000  0.6025610000000  0.4869210000000 1.0
C      1  0.4413020000000  0.5017360000000  0.4057090000000 1.0
C      1  0.5620520000000  0.5290990000000  0.4082770000000 1.0
C      1  0.4607030000000  0.5471180000000  0.4957760000000 1.0
C      1  0.5014860000000  0.6345560000000  0.4814600000000 1.0
C      1  0.5440320000000  0.4072390000000  0.5454340000000 1.0
C      1  0.5453020000000  0.5487320000000  0.5858420000000 1.0
C      1  0.5768080000000  0.5459060000000  0.4495870000000 1.0
C      1  0.5350920000000  0.4978890000000  0.4492620000000 1.0
C      1  0.4741500000000  0.5667740000000  0.5664670000000 1.0
C      1  0.5270520000000  0.4919340000000  0.4952540000000 1.0
C      1  0.4041260000000  0.5308250000000  0.4582800000000 1.0
C      1  0.5861310000000  0.4859090000000  0.5317280000000 1.0
C      1  0.4737100000000  0.4418710000000  0.5018320000000 1.0
C      1  0.4607530000000  0.4787140000000  0.5751330000000 1.0
C      1  0.3920270000000  0.5288810000000  0.5177380000000 1.0
C      1  0.4442830000000  0.5803190000000  0.4578070000000 1.0
C      1  0.4629800000000  0.4927240000000  0.5458810000000 1.0
C      1  0.4932940000000  0.4987800000000  0.3936560000000 1.0
C      1  0.5423210000000  0.5355380000000  0.5135000000000 1.0
C      1  0.4474100000000  0.5771290000000  0.5297520000000 1.0
C      1  0.5248730000000  0.5130070000000  0.6129420000000 1.0
C      1  0.4872480000000  0.5535500000000  0.5438600000000 1.0
C      1  0.4283100000000  0.5622660000000  0.5470810000000 1.0
C      1  0.4912530000000  0.5031360000000  0.5376160000000 1.0
C      1  0.4549490000000  0.4134630000000  0.4711640000000 1.0
C      1  0.4798630000000  0.5399520000000  0.4725380000000 1.0
C      1  0.5119700000000  0.4667750000000  0.5995900000000 1.0
C      1  0.5940230000000  0.5032520000000  0.4386200000000 1.0
C      1  0.5101940000000  0.4833070000000  0.4530950000000 1.0
C      1  0.4943660000000  0.4732250000000  0.4068680000000 1.0
C      1  0.5650560000000  0.4117090000000  0.5002070000000 1.0
C      1  0.4008010000000  0.4655180000000  0.4742200000000 1.0
C      1  0.5662390000000  0.4143350000000  0.5288790000000 1.0
C      1  0.6167720000000  0.5363660000000  0.4964680000000 1.0
C      1  0.4465300000000  0.5550140000000  0.5686770000000 1.0
C      1  0.5672440000000  0.4321670000000  0.4550210000000 1.0
C      1  0.4866770000000  0.5663050000000  0.4165150000000 1.0
C      1  0.5282460000000  0.4069600000000  0.4689830000000 1.0
C      1  0.5933620000000  0.4582760000000  0.5227500000000 1.0
C      1  0.4278200000000  0.5156080000000  0.4618200000000 1.0
C      1  0.5596640000000  0.5814870000000  0.5478950000000 1.0
C      1  0.4711150000000  0.5609720000000  0.5217000000000 1.0
C      1  0.5085140000000  0.5373570000000  0.4767230000000 1.0
C      1  0.5477560000000  0.4585660000000  0.5117000000000 1.0
C      1  0.5027250000000  0.4147430000000  0.5539210000000 1.0
C      1  0.5186560000000  0.4361780000000  0.4312590000000 1.0
C      1  0.4933050000000  0.5822590000000  0.4414580000000 1.0
C      1  0.4965230000000  0.4417160000000  0.5446780000000 1.0
C      1  0.5629210000000  0.5511680000000  0.5576120000000 1.0
C      1  0.4693410000000  0.5462300000000  0.4044260000000 1.0
C      1  0.4229790000000  0.5026720000000  0.5621850000000 1.0
C      1  0.5655350000000  0.5361070000000  0.4976460000000 1.0
C      1  0.5324160000000  0.5518520000000  0.4337450000000 1.0
C      1  0.3880470000000  0.5014320000000  0.5095210000000 1.0
C      1  0.4713620000000  0.5333240000000  0.4458380000000 1.0
C      1  0.4445180000000  0.5155120000000  0.5460330000000 1.0
C      1  0.4561020000000  0.4930890000000  0.4794580000000 1.0
C      1  0.5460370000000  0.5206040000000  0.5938770000000 1.0
C      1  0.4052810000000  0.4815360000000  0.5528030000000 1.0
C      1  0.4999650000000  0.4503230000000  0.4946590000000 1.0
C      1  0.4537050000000  0.4525490000000  0.5216340000000 1.0
C      1  0.4519490000000  0.4010000000000  0.5188450000000 1.0
C      1  0.5356400000000  0.4811190000000  0.4067590000000 1.0
C      1  0.5509340000000  0.4892220000000  0.4272500000000 1.0
C      1  0.5449400000000  0.4995450000000  0.5717530000000 1.0
C      1  0.5522720000000  0.4472840000000  0.5757900000000 1.0
C      1  0.4749160000000  0.4516410000000  0.4344420000000 1.0
C      1  0.5743890000000  0.4865160000000  0.5593460000000 1.0
C      1  0.5021300000000  0.4011190000000  0.4803560000000 1.0
C      1  0.4312080000000  0.4301150000000  0.4660170000000 1.0
C      1  0.4951240000000  0.4446000000000  0.5917260000000 1.0
C      1  0.5190690000000  0.4580580000000  0.4110590000000 1.0
C      1  0.4042840000000  0.5556600000000  0.4397700000000 1.0
C      1  0.3892570000000  0.4909810000000  0.4823440000000 1.0
C      1  0.4308460000000  0.5664210000000  0.4347990000000 1.0
C      1  0.5805650000000  0.4280470000000  0.4818510000000 1.0
C      1  0.4776320000000  0.3891990000000  0.5266330000000 1.0
C      1  0.4821460000000  0.4115770000000  0.4617810000000 1.0
C      1  0.5214720000000  0.5057460000000  0.3973250000000 1.0
C      1  0.3971340000000  0.4892290000000  0.4337250000000 1.0
C      1  0.5643500000000  0.4757580000000  0.4908220000000 1.0
C      1  0.4708530000000  0.5918970000000  0.4595250000000 1.0
C      1  0.5802320000000  0.5337510000000  0.5741290000000 1.0
C      1  0.3876490000000  0.5057840000000  0.4570390000000 1.0
C      1  0.5137190000000  0.4632220000000  0.5534910000000 1.0
C      1  0.5926210000000  0.5320660000000  0.5106990000000 1.0
C      1  0.4515760000000  0.5457570000000  0.4275790000000 1.0
C      1  0.5323720000000  0.5329200000000  0.4578940000000 1.0
C      1  0.4534410000000  0.4797400000000  0.5238630000000 1.0
C      1  0.5383540000000  0.4242700000000  0.4479170000000 1.0
C      1  0.5522710000000  0.5915320000000  0.5211350000000 1.0
C      1  0.5725630000000  0.5038070000000  0.4202020000000 1.0
C      1  0.5981030000000  0.5121580000000  0.5325730000000 1.0
C      1  0.4410840000000  0.5677770000000  0.4845380000000 1.0
C      1  0.5013090000000  0.3941900000000  0.5098780000000 1.0
C      1  0.6125620000000  0.5336490000000  0.4738910000000 1.0
C      1  0.5338770000000  0.5308130000000  0.4048760000000 1.0
C      1  0.4606820000000  0.4173770000000  0.4973140000000 1.0
C      1  0.5931170000000  0.4746120000000  0.4843170000000 1.0
C      1  0.4052220000000  0.5473710000000  0.5363990000000 1.0
C      1  0.4538820000000  0.5273920000000  0.5774880000000 1.0
C      1  0.4952590000000  0.5588670000000  0.5849030000000 1.0
C      1  0.4906070000000  0.4290180000000  0.4394140000000 1.0
C      1  0.5616420000000  0.5517900000000  0.4268770000000 1.0
C      1  0.5259730000000  0.4405890000000  0.5008550000000 1.0
C      1  0.4166550000000  0.4453540000000  0.4874210000000 1.0
C      1  0.4706680000000  0.5058110000000  0.4345690000000 1.0
C      1  0.5075990000000  0.6038800000000  0.5109810000000 1.0
C      1  0.5260660000000  0.6004040000000  0.5331840000000 1.0
C      1  0.5351090000000  0.5907400000000  0.4692040000000 1.0
C      1  0.4486640000000  0.4993550000000  0.4534240000000 1.0
C      1  0.5181320000000  0.3987880000000  0.5340580000000 1.0
C      1  0.5287550000000  0.5175010000000  0.5551300000000 1.0
C      1  0.5974170000000  0.4482060000000  0.4953990000000 1.0
C      1  0.5483770000000  0.4944520000000  0.4768980000000 1.0
C      1  0.4160070000000  0.5386810000000  0.5123160000000 1.0
C      1  0.5311070000000  0.4697840000000  0.5776750000000 1.0
C      1  0.5396800000000  0.4219730000000  0.5711300000000 1.0
C      1  0.4416120000000  0.5249220000000  0.5146840000000 1.0
C      1  0.4842970000000  0.6202120000000  0.5024510000000 1.0
C      1  0.5378220000000  0.4152640000000  0.4935110000000 1.0
C      1  0.4426660000000  0.4998240000000  0.5839430000000 1.0
C      1  0.5461370000000  0.5336280000000  0.5399560000000 1.0
C      1  0.5114920000000  0.4223740000000  0.5803080000000 1.0
C      1  0.4665940000000  0.4374650000000  0.5504280000000 1.0
C      1  0.4921760000000  0.5162620000000  0.5098860000000 1.0
C      1  0.4697050000000  0.4517320000000  0.5785030000000 1.0
C      1  0.4526060000000  0.4450220000000  0.4337880000000 1.0
C      1  0.5002930000000  0.5258270000000  0.5558320000000 1.0
C      1  0.5231860000000  0.5662350000000  0.5791000000000 1.0
C      1  0.4192310000000  0.4931020000000  0.4171850000000 1.0
C      1  0.4076560000000  0.4648650000000  0.4455590000000 1.0
C      1  0.5706700000000  0.4434480000000  0.5331280000000 1.0
C      1  0.3888130000000  0.4823160000000  0.5302850000000 1.0
C      1  0.5224430000000  0.6131950000000  0.4864060000000 1.0
C      1  0.4815660000000  0.4982420000000  0.4893990000000 1.0
C      1  0.4975940000000  0.5153850000000  0.6069220000000 1.0
C      1  0.5997350000000  0.5296930000000  0.4486930000000 1.0
C      1  0.5072910000000  0.4788650000000  0.5349730000000 1.0
END
