TITL C-883729-9652-381 64.752839735975 125000 -21598.0560298521 0 0 148 (C1) n - 1
REM
REM in /home/nfs/bkarasulu/CARBON/AIRSS/Generating-Clusters/ReaxFF-fromJPCA2015/Units_Real/with-SteepDescent/Only-C1/SD-CG/Try1-3A/FIRE-CG
REM
REM
REM
REM
REM
REM ./C.cell (11c1c37f851c82e70ff6c80c92926a4b)
REM
REM compiler GCC version 9.2.1 20190827 (Red Hat 9.2.1-1)
REM options -cpp -mtune=generic -march=x86-64 -g -O0 -fpre-include=/usr/include/finclude/math-vector-fortran.h
REM seed 587174771 -495026799 -776933448 -903948730 -12825108 -2044215366 179700279 -122337772 -1633291240 1845475483 -688008924 -1288336836 -1992658745 -1762247409 1575928857 498085787 731702258 2129964990 -321463469 2068161986 1060057028 2127194996 -406707682 -801868780 1526269240 1149139574 2038882066 1137702183 -1392431427 -1226826422 -1935587646 762894753 -1200788633
REM
CELL 1.54180   50.00000   50.00000   50.00000   90.00000   90.00000   90.00000
LATT -1
SFAC C  
C      1  0.5832900000000  0.5650000000000  0.5306050000000 1.0
C      1  0.4753580000000  0.4440390000000  0.5088030000000 1.0
C      1  0.4343690000000  0.5397260000000  0.5594420000000 1.0
C      1  0.4223690000000  0.4929520000000  0.5689930000000 1.0
C      1  0.4407230000000  0.4889230000000  0.5912600000000 1.0
C      1  0.3982840000000  0.4593850000000  0.5061980000000 1.0
C      1  0.4947610000000  0.4122590000000  0.4484740000000 1.0
C      1  0.5962540000000  0.4924490000000  0.5069050000000 1.0
C      1  0.4705520000000  0.4194430000000  0.4640650000000 1.0
C      1  0.5708800000000  0.5089960000000  0.5723760000000 1.0
C      1  0.4314220000000  0.5603640000000  0.5052630000000 1.0
C      1  0.4576670000000  0.4285000000000  0.4884020000000 1.0
C      1  0.4328360000000  0.5832940000000  0.5251730000000 1.0
C      1  0.4500620000000  0.5476820000000  0.4138680000000 1.0
C      1  0.4728320000000  0.5671420000000  0.4138780000000 1.0
C      1  0.4766950000000  0.4675380000000  0.5542170000000 1.0
C      1  0.5108780000000  0.5576410000000  0.5887850000000 1.0
C      1  0.4977040000000  0.5305030000000  0.4968770000000 1.0
C      1  0.4353190000000  0.4437790000000  0.5651130000000 1.0
C      1  0.4601740000000  0.5932900000000  0.5194750000000 1.0
C      1  0.4259070000000  0.4500170000000  0.4456100000000 1.0
C      1  0.5454420000000  0.5412080000000  0.4927920000000 1.0
C      1  0.5260910000000  0.5325410000000  0.5964900000000 1.0
C      1  0.5612240000000  0.5845380000000  0.5318260000000 1.0
C      1  0.5577510000000  0.5829740000000  0.4789020000000 1.0
C      1  0.5246680000000  0.4578650000000  0.5320090000000 1.0
C      1  0.4501840000000  0.5176010000000  0.4124690000000 1.0
C      1  0.4723900000000  0.5845290000000  0.4388210000000 1.0
C      1  0.5733340000000  0.4717610000000  0.5365100000000 1.0
C      1  0.4958000000000  0.5481540000000  0.4604060000000 1.0
C      1  0.5260270000000  0.4053160000000  0.4733050000000 1.0
C      1  0.5193280000000  0.5938630000000  0.5156180000000 1.0
C      1  0.4851340000000  0.4196370000000  0.5241410000000 1.0
C      1  0.5338260000000  0.4413660000000  0.5139070000000 1.0
C      1  0.4179410000000  0.5537750000000  0.4802730000000 1.0
C      1  0.5316670000000  0.5365030000000  0.5550820000000 1.0
C      1  0.5727560000000  0.5364920000000  0.5033540000000 1.0
C      1  0.5752310000000  0.4427990000000  0.5332930000000 1.0
C      1  0.4701570000000  0.3924910000000  0.5102370000000 1.0
C      1  0.4970090000000  0.5791500000000  0.4548890000000 1.0
C      1  0.5441210000000  0.5232350000000  0.5330190000000 1.0
C      1  0.5533420000000  0.4676890000000  0.4122120000000 1.0
C      1  0.5909480000000  0.5156910000000  0.5516840000000 1.0
C      1  0.5256820000000  0.4607270000000  0.5655090000000 1.0
C      1  0.5036350000000  0.5777120000000  0.4980920000000 1.0
C      1  0.6084880000000  0.5001570000000  0.5340330000000 1.0
C      1  0.4827710000000  0.4388980000000  0.4108910000000 1.0
C      1  0.5069290000000  0.4684790000000  0.4601970000000 1.0
C      1  0.4786620000000  0.5835680000000  0.5404120000000 1.0
C      1  0.4685060000000  0.5110170000000  0.5208990000000 1.0
C      1  0.5175440000000  0.5517350000000  0.4971130000000 1.0
C      1  0.6000960000000  0.4708760000000  0.4855890000000 1.0
C      1  0.4486080000000  0.5152150000000  0.4716160000000 1.0
C      1  0.5459300000000  0.5175530000000  0.4760860000000 1.0
C      1  0.5480760000000  0.5279000000000  0.5776830000000 1.0
C      1  0.5484460000000  0.5774160000000  0.4504190000000 1.0
C      1  0.5372770000000  0.5163390000000  0.4108710000000 1.0
C      1  0.5383600000000  0.5510480000000  0.4379150000000 1.0
C      1  0.4222360000000  0.5248560000000  0.4820270000000 1.0
C      1  0.5738260000000  0.5356380000000  0.5332580000000 1.0
C      1  0.4378210000000  0.4683750000000  0.4245160000000 1.0
C      1  0.5205440000000  0.4832180000000  0.4391720000000 1.0
C      1  0.5474570000000  0.4236830000000  0.4781960000000 1.0
C      1  0.4732550000000  0.5364990000000  0.4813080000000 1.0
C      1  0.5088850000000  0.5075430000000  0.4494810000000 1.0
C      1  0.4613350000000  0.5322970000000  0.5405920000000 1.0
C      1  0.5790760000000  0.4513280000000  0.4792620000000 1.0
C      1  0.4793940000000  0.4724460000000  0.4728320000000 1.0
C      1  0.5008080000000  0.4798730000000  0.3940070000000 1.0
C      1  0.5550980000000  0.4567770000000  0.5725170000000 1.0
C      1  0.4795300000000  0.4926730000000  0.3994250000000 1.0
C      1  0.5703970000000  0.4806140000000  0.5655350000000 1.0
C      1  0.5188960000000  0.4683890000000  0.4871580000000 1.0
C      1  0.4452250000000  0.4089950000000  0.5063010000000 1.0
C      1  0.5134430000000  0.5056260000000  0.5980370000000 1.0
C      1  0.4870180000000  0.4970130000000  0.6093900000000 1.0
C      1  0.4792860000000  0.5208380000000  0.5620480000000 1.0
C      1  0.5796130000000  0.5257060000000  0.4377980000000 1.0
C      1  0.4235910000000  0.4907930000000  0.4370230000000 1.0
C      1  0.5772930000000  0.4345870000000  0.5048460000000 1.0
C      1  0.5251990000000  0.5437350000000  0.4130580000000 1.0
C      1  0.4450210000000  0.4189860000000  0.5328080000000 1.0
C      1  0.4921630000000  0.4179100000000  0.5541740000000 1.0
C      1  0.4562210000000  0.5826730000000  0.4622230000000 1.0
C      1  0.5148220000000  0.4885100000000  0.5743050000000 1.0
C      1  0.5152300000000  0.4013110000000  0.5426470000000 1.0
C      1  0.5007600000000  0.4024510000000  0.4867900000000 1.0
C      1  0.4447250000000  0.4596100000000  0.5882170000000 1.0
C      1  0.4621470000000  0.4516020000000  0.4259730000000 1.0
C      1  0.5754170000000  0.5198180000000  0.4661240000000 1.0
C      1  0.4723500000000  0.5838280000000  0.4932010000000 1.0
C      1  0.4732080000000  0.4546400000000  0.5820570000000 1.0
C      1  0.4866900000000  0.4676720000000  0.6056660000000 1.0
C      1  0.4599370000000  0.5572300000000  0.4979670000000 1.0
C      1  0.5442470000000  0.5810640000000  0.5539850000000 1.0
C      1  0.5204920000000  0.5794770000000  0.5667810000000 1.0
C      1  0.4067490000000  0.5064870000000  0.4987030000000 1.0
C      1  0.4520880000000  0.4361220000000  0.4481270000000 1.0
C      1  0.5598200000000  0.4329440000000  0.5565810000000 1.0
C      1  0.5129530000000  0.4325550000000  0.5694540000000 1.0
C      1  0.5417320000000  0.4374330000000  0.4383420000000 1.0
C      1  0.5521030000000  0.4200790000000  0.5060220000000 1.0
C      1  0.4905760000000  0.4921740000000  0.5598440000000 1.0
C      1  0.4984070000000  0.5150580000000  0.5215180000000 1.0
C      1  0.4305250000000  0.5644080000000  0.5459870000000 1.0
C      1  0.4582430000000  0.4898030000000  0.4832260000000 1.0
C      1  0.4032270000000  0.4800050000000  0.4853660000000 1.0
C      1  0.4558630000000  0.4864950000000  0.5128440000000 1.0
C      1  0.4659100000000  0.4957760000000  0.4196490000000 1.0
C      1  0.5914640000000  0.5593660000000  0.5035310000000 1.0
C      1  0.4622310000000  0.5334560000000  0.5855810000000 1.0
C      1  0.5678240000000  0.4767630000000  0.4334330000000 1.0
C      1  0.5407980000000  0.4910240000000  0.4961830000000 1.0
C      1  0.5235470000000  0.5867190000000  0.4533640000000 1.0
C      1  0.5614050000000  0.5066160000000  0.4247820000000 1.0
C      1  0.5053240000000  0.4520530000000  0.4002880000000 1.0
C      1  0.4827510000000  0.5543210000000  0.5941860000000 1.0
C      1  0.4136300000000  0.4739340000000  0.4576510000000 1.0
C      1  0.5877880000000  0.5449890000000  0.4596010000000 1.0
C      1  0.4351700000000  0.5181210000000  0.4387250000000 1.0
C      1  0.4837570000000  0.5366540000000  0.4374360000000 1.0
C      1  0.5226680000000  0.5323990000000  0.4566340000000 1.0
C      1  0.5010330000000  0.5362060000000  0.5484120000000 1.0
C      1  0.5678660000000  0.4874330000000  0.5119770000000 1.0
C      1  0.5234800000000  0.4135420000000  0.4469830000000 1.0
C      1  0.5092720000000  0.4070430000000  0.5135930000000 1.0
C      1  0.5831680000000  0.5687690000000  0.4771070000000 1.0
C      1  0.5287580000000  0.5041220000000  0.5194810000000 1.0
C      1  0.4172450000000  0.5160390000000  0.5522260000000 1.0
C      1  0.4036460000000  0.4749450000000  0.5318420000000 1.0
C      1  0.4807580000000  0.5551090000000  0.5407220000000 1.0
C      1  0.4183300000000  0.4671040000000  0.5557400000000 1.0
C      1  0.5065660000000  0.5923710000000  0.5437970000000 1.0
C      1  0.4605710000000  0.5081560000000  0.6004520000000 1.0
C      1  0.5184310000000  0.4931970000000  0.4107720000000 1.0
C      1  0.4642220000000  0.4633720000000  0.5283910000000 1.0
C      1  0.4920350000000  0.4663010000000  0.4983500000000 1.0
C      1  0.4063110000000  0.5042330000000  0.5279520000000 1.0
C      1  0.4932600000000  0.4203300000000  0.4234720000000 1.0
C      1  0.4955450000000  0.5483620000000  0.4129160000000 1.0
C      1  0.4823320000000  0.5086150000000  0.4407520000000 1.0
C      1  0.5465920000000  0.5894840000000  0.5059240000000 1.0
C      1  0.5339430000000  0.4474860000000  0.4114550000000 1.0
C      1  0.5616260000000  0.4543000000000  0.4519580000000 1.0
C      1  0.4307750000000  0.5481770000000  0.4350020000000 1.0
C      1  0.4320570000000  0.5669330000000  0.4576830000000 1.0
C      1  0.5345010000000  0.4167570000000  0.5586940000000 1.0
C      1  0.4567510000000  0.4268360000000  0.5542380000000 1.0
END
