TITL C-883732-77-404 76.9079750761012 125000 -15116.6723259529 0 0 104 (C1) n - 1
REM
REM in /home/nfs/bkarasulu/CARBON/AIRSS/Generating-Clusters/ReaxFF-fromJPCA2015/Units_Real/with-SteepDescent/Only-C1/SD-CG/Try1-3A/FIRE-CG
REM
REM
REM
REM
REM
REM ./C.cell (11c1c37f851c82e70ff6c80c92926a4b)
REM
REM compiler GCC version 9.2.1 20190827 (Red Hat 9.2.1-1)
REM options -cpp -mtune=generic -march=x86-64 -g -O0 -fpre-include=/usr/include/finclude/math-vector-fortran.h
REM seed -1813338220 -1498084012 224254656 1850770715 443586288 1140509579 1575058197 -133788563 507230451 1924676964 -1905477791 -799718364 1884717579 886088761 -1107157412 1022456739 -1292898581 1555519166 336992802 -111237012 2134825517 1041614852 -2136433769 1479626955 -642780144 1081665912 -311860245 490034856 -1402100144 899613975 -74315498 -1971309667 -1843494903
REM
CELL 1.54180   50.00000   50.00000   50.00000   90.00000   90.00000   90.00000
LATT -1
SFAC C  
C      1  0.5847170000000  0.5205150000000  0.4615470000000 1.0
C      1  0.5503160000000  0.5068680000000  0.5328730000000 1.0
C      1  0.4637440000000  0.5414280000000  0.5432630000000 1.0
C      1  0.4656690000000  0.4412420000000  0.5633530000000 1.0
C      1  0.4388210000000  0.4587190000000  0.4422850000000 1.0
C      1  0.4353970000000  0.4722790000000  0.5163500000000 1.0
C      1  0.5135050000000  0.5908050000000  0.5141470000000 1.0
C      1  0.5545770000000  0.4554620000000  0.4409780000000 1.0
C      1  0.4790410000000  0.5094060000000  0.5763140000000 1.0
C      1  0.4836710000000  0.5109990000000  0.3986610000000 1.0
C      1  0.4584610000000  0.4371790000000  0.4519160000000 1.0
C      1  0.4873350000000  0.4311210000000  0.4531460000000 1.0
C      1  0.4120270000000  0.5100460000000  0.4978610000000 1.0
C      1  0.5166300000000  0.5427860000000  0.5554080000000 1.0
C      1  0.4864640000000  0.4971060000000  0.4736040000000 1.0
C      1  0.5268720000000  0.4840940000000  0.4140290000000 1.0
C      1  0.4543560000000  0.5141230000000  0.4305190000000 1.0
C      1  0.5238040000000  0.5464050000000  0.4337580000000 1.0
C      1  0.4283060000000  0.5706840000000  0.4787870000000 1.0
C      1  0.5558820000000  0.5084720000000  0.5036320000000 1.0
C      1  0.4643250000000  0.4799770000000  0.4671290000000 1.0
C      1  0.4495070000000  0.4797120000000  0.5838150000000 1.0
C      1  0.4222570000000  0.4841220000000  0.4902650000000 1.0
C      1  0.4253880000000  0.4895140000000  0.5383910000000 1.0
C      1  0.4553400000000  0.5631250000000  0.4972460000000 1.0
C      1  0.5268550000000  0.5973560000000  0.4610960000000 1.0
C      1  0.5235690000000  0.5016020000000  0.6028020000000 1.0
C      1  0.5102070000000  0.5742540000000  0.4588070000000 1.0
C      1  0.5492860000000  0.5854260000000  0.4764010000000 1.0
C      1  0.5220180000000  0.4152890000000  0.4908760000000 1.0
C      1  0.5290990000000  0.4591410000000  0.4282180000000 1.0
C      1  0.5028130000000  0.4558980000000  0.4414020000000 1.0
C      1  0.4916090000000  0.5781160000000  0.5304840000000 1.0
C      1  0.4970080000000  0.4299600000000  0.5307710000000 1.0
C      1  0.5625050000000  0.5647500000000  0.4625680000000 1.0
C      1  0.4750160000000  0.4890840000000  0.5964690000000 1.0
C      1  0.4988030000000  0.4858350000000  0.4057660000000 1.0
C      1  0.5306150000000  0.4384730000000  0.4758100000000 1.0
C      1  0.4929900000000  0.6004150000000  0.4953560000000 1.0
C      1  0.5102560000000  0.5300370000000  0.4987730000000 1.0
C      1  0.4818470000000  0.4911970000000  0.5149550000000 1.0
C      1  0.4470620000000  0.5455710000000  0.5197250000000 1.0
C      1  0.4846570000000  0.5642900000000  0.4542110000000 1.0
C      1  0.5341100000000  0.5471480000000  0.5027220000000 1.0
C      1  0.5754890000000  0.5109230000000  0.5475860000000 1.0
C      1  0.4723780000000  0.5848670000000  0.5089900000000 1.0
C      1  0.5116080000000  0.4581490000000  0.5815520000000 1.0
C      1  0.5781500000000  0.4802090000000  0.5436960000000 1.0
C      1  0.5354820000000  0.5760990000000  0.5017890000000 1.0
C      1  0.5123950000000  0.4951220000000  0.5405490000000 1.0
C      1  0.4892340000000  0.5250830000000  0.4800220000000 1.0
C      1  0.5361940000000  0.5264510000000  0.5968720000000 1.0
C      1  0.4901820000000  0.5544480000000  0.5468740000000 1.0
C      1  0.5608810000000  0.5362720000000  0.5083960000000 1.0
C      1  0.4956070000000  0.5479690000000  0.4322900000000 1.0
C      1  0.4105110000000  0.5100070000000  0.5259530000000 1.0
C      1  0.5646410000000  0.4634010000000  0.5624910000000 1.0
C      1  0.4698380000000  0.4225480000000  0.5403170000000 1.0
C      1  0.4672250000000  0.4728900000000  0.5155150000000 1.0
C      1  0.5240850000000  0.4270110000000  0.5410180000000 1.0
C      1  0.5932480000000  0.4993660000000  0.4745540000000 1.0
C      1  0.4703710000000  0.5457130000000  0.4716600000000 1.0
C      1  0.5675110000000  0.4685710000000  0.4642630000000 1.0
C      1  0.4540820000000  0.4237890000000  0.5167050000000 1.0
C      1  0.4895020000000  0.4898250000000  0.5576400000000 1.0
C      1  0.4921680000000  0.4513810000000  0.5092240000000 1.0
C      1  0.5746820000000  0.5381850000000  0.5359790000000 1.0
C      1  0.4957400000000  0.4174530000000  0.4772670000000 1.0
C      1  0.4293210000000  0.5511840000000  0.4594900000000 1.0
C      1  0.4847690000000  0.4707790000000  0.4248140000000 1.0
C      1  0.4391260000000  0.4976910000000  0.5626140000000 1.0
C      1  0.5312410000000  0.4984760000000  0.4599870000000 1.0
C      1  0.4886330000000  0.4609780000000  0.5642050000000 1.0
C      1  0.5312850000000  0.4686190000000  0.5379860000000 1.0
C      1  0.5524970000000  0.4920150000000  0.4786500000000 1.0
C      1  0.4606900000000  0.4525910000000  0.4759290000000 1.0
C      1  0.5271850000000  0.5178570000000  0.5454560000000 1.0
C      1  0.5719120000000  0.5430300000000  0.4483460000000 1.0
C      1  0.5439310000000  0.4579780000000  0.5137020000000 1.0
C      1  0.4219080000000  0.5321720000000  0.5142010000000 1.0
C      1  0.4545670000000  0.5147420000000  0.3971730000000 1.0
C      1  0.5381390000000  0.5047970000000  0.4322150000000 1.0
C      1  0.5024080000000  0.5083760000000  0.5144560000000 1.0
C      1  0.4732380000000  0.4339500000000  0.4947230000000 1.0
C      1  0.4285670000000  0.4391820000000  0.5158910000000 1.0
C      1  0.5474510000000  0.5333440000000  0.4305680000000 1.0
C      1  0.4997240000000  0.5991220000000  0.4680140000000 1.0
C      1  0.4827400000000  0.5216280000000  0.4265570000000 1.0
C      1  0.5037510000000  0.4792100000000  0.5996070000000 1.0
C      1  0.4557840000000  0.5217650000000  0.5634180000000 1.0
C      1  0.5094410000000  0.4789180000000  0.4676580000000 1.0
C      1  0.4481900000000  0.5338120000000  0.4532250000000 1.0
C      1  0.5735170000000  0.4697790000000  0.5157170000000 1.0
C      1  0.5558960000000  0.4428160000000  0.4647140000000 1.0
C      1  0.5896970000000  0.4816930000000  0.4960120000000 1.0
C      1  0.5348570000000  0.4509640000000  0.5617800000000 1.0
C      1  0.4231770000000  0.4712810000000  0.4640060000000 1.0
C      1  0.5376610000000  0.5486380000000  0.5758790000000 1.0
C      1  0.4423590000000  0.4504660000000  0.5793950000000 1.0
C      1  0.4066500000000  0.4305020000000  0.5045640000000 1.0
C      1  0.5361290000000  0.4269950000000  0.5150400000000 1.0
C      1  0.5168350000000  0.4599980000000  0.4917260000000 1.0
C      1  0.4598130000000  0.4811450000000  0.4371140000000 1.0
C      1  0.5589680000000  0.5477490000000  0.5574820000000 1.0
END
