TITL C-884139-6216-30 2065089.26462338 125000 -24776.4841988188 0 0 166 (C1) n - 1
REM
REM in /home/nfs/bkarasulu/CARBON/AIRSS/Generating-Clusters/ReaxFF-fromJPCA2015/Units_Real/with-SteepDescent/Only-C1/SD-CG/Try1-3A/FIRE-CG
REM
REM
REM
REM
REM
REM ./C.cell (11c1c37f851c82e70ff6c80c92926a4b)
REM
REM compiler GCC version 9.2.1 20190827 (Red Hat 9.2.1-1)
REM options -cpp -mtune=generic -march=x86-64 -g -O0 -fpre-include=/usr/include/finclude/math-vector-fortran.h
REM seed -486510988 -1102258216 1770515915 2001414392 862670571 21025062 -1949256222 1452481940 188878299 1283078781 494974430 -260101306 1919048230 1543508746 -930104344 -103737067 -2037546784 813096951 -86915654 1726214245 -1555891829 54425955 -1496611182 1748043244 1485723126 518629078 1257700268 1315893433 1518897682 1731129028 662322517 -856654694 -2134005334
REM
CELL 1.54180   50.00000   50.00000   50.00000   90.00000   90.00000   90.00000
LATT -1
SFAC C  
C      1  0.5295820000000  0.4483890000000  0.4602270000000 1.0
C      1  0.4634630000000  0.4452140000000  0.5870280000000 1.0
C      1  0.5510150000000  0.5017770000000  0.4728700000000 1.0
C      1  0.5202170000000  0.4802560000000  0.5807600000000 1.0
C      1  0.5659400000000  0.4534920000000  0.5802630000000 1.0
C      1  0.4808640000000  0.4559420000000  0.4083580000000 1.0
C      1  0.5407180000000  0.5863880000000  0.4969410000000 1.0
C      1  0.4486790000000  0.5297890000000  0.5045470000000 1.0
C      1  0.5280400000000  0.5503110000000  0.5084370000000 1.0
C      1  0.4196640000000  0.5381250000000  0.5077230000000 1.0
C      1  0.4041360000000  0.4598600000000  0.5243200000000 1.0
C      1  0.5431320000000  0.5481450000000  0.4349470000000 1.0
C      1  0.4804770000000  0.4950430000000  0.4908750000000 1.0
C      1  0.4653430000000  0.4506720000000  0.5053060000000 1.0
C      1  0.4749210000000  0.4780410000000  0.5467070000000 1.0
C      1  0.5552850000000  0.4082270000000  0.5190360000000 1.0
C      1  0.4470980000000  0.4571570000000  0.4860910000000 1.0
C      1  0.5584590000000  0.4278120000000  0.5675750000000 1.0
C      1  0.4616810000000  0.5237220000000  0.4536910000000 1.0
C      1  0.6045890000000  0.5101800000000  0.4998980000000 1.0
C      1  0.4942560000000  0.5720260000000  0.5851830000000 1.0
C      1  0.4808830000000  0.5154870000000  0.5761320000000 1.0
C      1  0.5327560000000  0.4567160000000  0.5252570000000 1.0
C      1  0.4474170000000  0.5889290000000  0.5536810000000 1.0
C      1  0.5411380000000  0.5979970000000  0.4469010000000 1.0
C      1  0.4899960000000  0.5080030000000  0.6033900000000 1.0
C      1  0.4237310000000  0.5449170000000  0.5615070000000 1.0
C      1  0.5011420000000  0.5972020000000  0.5082160000000 1.0
C      1  0.4412990000000  0.5673750000000  0.5724750000000 1.0
C      1  0.4317650000000  0.4324730000000  0.5517070000000 1.0
C      1  0.5593500000000  0.5747550000000  0.4426880000000 1.0
C      1  0.4294470000000  0.5719250000000  0.4752720000000 1.0
C      1  0.5959960000000  0.4483780000000  0.5071450000000 1.0
C      1  0.5173340000000  0.4403630000000  0.5931880000000 1.0
C      1  0.5127790000000  0.4372300000000  0.5275610000000 1.0
C      1  0.4839020000000  0.4504490000000  0.5525720000000 1.0
C      1  0.6006490000000  0.4582410000000  0.4864910000000 1.0
C      1  0.4862760000000  0.5124350000000  0.3991590000000 1.0
C      1  0.4611450000000  0.5986000000000  0.4977240000000 1.0
C      1  0.4128650000000  0.5442640000000  0.5351610000000 1.0
C      1  0.5656180000000  0.5600650000000  0.5736040000000 1.0
C      1  0.4667620000000  0.4079140000000  0.5349110000000 1.0
C      1  0.5638010000000  0.5289020000000  0.5319070000000 1.0
C      1  0.4237700000000  0.4596460000000  0.5468330000000 1.0
C      1  0.5259860000000  0.4754160000000  0.4018230000000 1.0
C      1  0.5961450000000  0.4979870000000  0.4742540000000 1.0
C      1  0.5034750000000  0.4180920000000  0.4380980000000 1.0
C      1  0.5658960000000  0.4835640000000  0.5375780000000 1.0
C      1  0.4755470000000  0.5904970000000  0.4716230000000 1.0
C      1  0.5246110000000  0.5469760000000  0.4104200000000 1.0
C      1  0.4154430000000  0.4884460000000  0.4666790000000 1.0
C      1  0.4866120000000  0.5121460000000  0.4471310000000 1.0
C      1  0.5287240000000  0.5134160000000  0.5572380000000 1.0
C      1  0.4589700000000  0.4284050000000  0.5625020000000 1.0
C      1  0.5687370000000  0.4827050000000  0.4258850000000 1.0
C      1  0.4483920000000  0.5833670000000  0.4569780000000 1.0
C      1  0.4887980000000  0.5655740000000  0.4352890000000 1.0
C      1  0.4714140000000  0.4631800000000  0.4470930000000 1.0
C      1  0.4873160000000  0.3971910000000  0.5203870000000 1.0
C      1  0.5381960000000  0.4600360000000  0.5922880000000 1.0
C      1  0.5762120000000  0.4620580000000  0.4403270000000 1.0
C      1  0.4751150000000  0.4841120000000  0.3994710000000 1.0
C      1  0.5263640000000  0.5849440000000  0.5516920000000 1.0
C      1  0.4823140000000  0.4522580000000  0.4696710000000 1.0
C      1  0.4455510000000  0.5232020000000  0.4269160000000 1.0
C      1  0.5475620000000  0.4479530000000  0.4812530000000 1.0
C      1  0.4359220000000  0.5171890000000  0.5573310000000 1.0
C      1  0.4985410000000  0.5246740000000  0.5281030000000 1.0
C      1  0.4228180000000  0.4215060000000  0.5250160000000 1.0
C      1  0.5752150000000  0.5466860000000  0.4809530000000 1.0
C      1  0.4887430000000  0.4854580000000  0.4376670000000 1.0
C      1  0.5631430000000  0.5259310000000  0.4349850000000 1.0
C      1  0.5205560000000  0.3850660000000  0.4769790000000 1.0
C      1  0.5420540000000  0.5589640000000  0.4841380000000 1.0
C      1  0.5282080000000  0.4967590000000  0.4530760000000 1.0
C      1  0.4959290000000  0.4747060000000  0.5650970000000 1.0
C      1  0.5489650000000  0.5064050000000  0.5376960000000 1.0
C      1  0.5292540000000  0.3965070000000  0.5274980000000 1.0
C      1  0.5964170000000  0.4720580000000  0.4627790000000 1.0
C      1  0.5008880000000  0.5140870000000  0.5533850000000 1.0
C      1  0.4526300000000  0.5007260000000  0.4979980000000 1.0
C      1  0.4075890000000  0.4373840000000  0.5065200000000 1.0
C      1  0.5107310000000  0.5221780000000  0.4608930000000 1.0
C      1  0.4440920000000  0.5682760000000  0.4327850000000 1.0
C      1  0.5176580000000  0.4158640000000  0.5469950000000 1.0
C      1  0.5149040000000  0.4872280000000  0.4263720000000 1.0
C      1  0.5590460000000  0.4572160000000  0.5369470000000 1.0
C      1  0.4314020000000  0.4146780000000  0.4659640000000 1.0
C      1  0.4954250000000  0.4280700000000  0.4652090000000 1.0
C      1  0.5353190000000  0.5673460000000  0.5733730000000 1.0
C      1  0.5310980000000  0.5076190000000  0.5856970000000 1.0
C      1  0.4939600000000  0.5196860000000  0.4858680000000 1.0
C      1  0.4352710000000  0.4901010000000  0.5188980000000 1.0
C      1  0.5671700000000  0.5754820000000  0.5305500000000 1.0
C      1  0.4649350000000  0.5640820000000  0.5903030000000 1.0
C      1  0.4722410000000  0.4081230000000  0.4656340000000 1.0
C      1  0.4970000000000  0.4721460000000  0.4842930000000 1.0
C      1  0.4846510000000  0.4449240000000  0.5231120000000 1.0
C      1  0.4877020000000  0.5516370000000  0.5263710000000 1.0
C      1  0.5867850000000  0.4723760000000  0.5715740000000 1.0
C      1  0.5491560000000  0.4481520000000  0.4395470000000 1.0
C      1  0.4462340000000  0.4058110000000  0.5151410000000 1.0
C      1  0.5300750000000  0.4224340000000  0.5729100000000 1.0
C      1  0.5385870000000  0.4981310000000  0.4982890000000 1.0
C      1  0.4480200000000  0.4952420000000  0.4047020000000 1.0
C      1  0.4433430000000  0.4848780000000  0.4763480000000 1.0
C      1  0.4501680000000  0.4032270000000  0.4851310000000 1.0
C      1  0.4742350000000  0.5998750000000  0.5490110000000 1.0
C      1  0.4001690000000  0.4985790000000  0.4879730000000 1.0
C      1  0.4121750000000  0.4608470000000  0.4564600000000 1.0
C      1  0.4529680000000  0.5271520000000  0.5335640000000 1.0
C      1  0.5369860000000  0.5025110000000  0.3958410000000 1.0
C      1  0.4271460000000  0.5446210000000  0.4377690000000 1.0
C      1  0.4608320000000  0.5543070000000  0.5354080000000 1.0
C      1  0.5326650000000  0.4495620000000  0.4143880000000 1.0
C      1  0.4564810000000  0.4441640000000  0.4303670000000 1.0
C      1  0.4175450000000  0.5460490000000  0.4654140000000 1.0
C      1  0.5088010000000  0.5714760000000  0.4142070000000 1.0
C      1  0.4661390000000  0.5368590000000  0.5864960000000 1.0
C      1  0.4463560000000  0.4775350000000  0.5407530000000 1.0
C      1  0.5942650000000  0.4860530000000  0.5460810000000 1.0
C      1  0.5427590000000  0.5912780000000  0.5264850000000 1.0
C      1  0.4677260000000  0.5609230000000  0.4159370000000 1.0
C      1  0.4713960000000  0.5397450000000  0.4767020000000 1.0
C      1  0.5347030000000  0.4688950000000  0.4990480000000 1.0
C      1  0.5847470000000  0.4417090000000  0.5316460000000 1.0
C      1  0.5152120000000  0.5220260000000  0.3987450000000 1.0
C      1  0.5155620000000  0.5537190000000  0.5911500000000 1.0
C      1  0.5436300000000  0.4000850000000  0.4790220000000 1.0
C      1  0.5508170000000  0.5519170000000  0.5264900000000 1.0
C      1  0.4181050000000  0.4401640000000  0.4773360000000 1.0
C      1  0.5174080000000  0.5201270000000  0.5065810000000 1.0
C      1  0.4365810000000  0.5843790000000  0.5014060000000 1.0
C      1  0.5618360000000  0.5067040000000  0.4131850000000 1.0
C      1  0.4332350000000  0.4772860000000  0.4172750000000 1.0
C      1  0.5737490000000  0.5187350000000  0.4625700000000 1.0
C      1  0.5160280000000  0.3957270000000  0.4503860000000 1.0
C      1  0.4261410000000  0.4559200000000  0.4314540000000 1.0
C      1  0.5290700000000  0.6016850000000  0.4750350000000 1.0
C      1  0.5827660000000  0.5615770000000  0.5509170000000 1.0
C      1  0.4423220000000  0.4970850000000  0.5775350000000 1.0
C      1  0.5225550000000  0.5503480000000  0.4621760000000 1.0
C      1  0.5052460000000  0.4403010000000  0.4151080000000 1.0
C      1  0.4891150000000  0.4512560000000  0.5989110000000 1.0
C      1  0.6054750000000  0.5080350000000  0.5297240000000 1.0
C      1  0.4904480000000  0.5603690000000  0.4644550000000 1.0
C      1  0.4527800000000  0.4186230000000  0.4459650000000 1.0
C      1  0.4991840000000  0.5891860000000  0.5618080000000 1.0
C      1  0.4768050000000  0.6073540000000  0.5210920000000 1.0
C      1  0.5704890000000  0.4183200000000  0.5421020000000 1.0
C      1  0.5141790000000  0.5253510000000  0.6009600000000 1.0
C      1  0.4066590000000  0.5254860000000  0.4837150000000 1.0
C      1  0.4387920000000  0.5741730000000  0.5294870000000 1.0
C      1  0.5243930000000  0.5963030000000  0.4232600000000 1.0
C      1  0.5156840000000  0.4724350000000  0.4628760000000 1.0
C      1  0.4661560000000  0.5326110000000  0.4065980000000 1.0
C      1  0.4805150000000  0.4793400000000  0.6053990000000 1.0
C      1  0.5008080000000  0.6049980000000  0.4798340000000 1.0
C      1  0.4544840000000  0.4751520000000  0.5925300000000 1.0
C      1  0.5050570000000  0.5689430000000  0.5141950000000 1.0
C      1  0.5100540000000  0.3881280000000  0.5073020000000 1.0
C      1  0.5953830000000  0.5374560000000  0.5012250000000 1.0
C      1  0.4076600000000  0.4870780000000  0.5127660000000 1.0
C      1  0.5814250000000  0.5692460000000  0.4609080000000 1.0
C      1  0.5929530000000  0.5355160000000  0.5320830000000 1.0
C      1  0.5565450000000  0.4213470000000  0.4919000000000 1.0
END
