TITL C-884136-4169-98 24.0051639769188 125000 -13834.848229939 0 0 93 (C1) n - 1
REM
REM in /home/nfs/bkarasulu/CARBON/AIRSS/Generating-Clusters/ReaxFF-fromJPCA2015/Units_Real/with-SteepDescent/Only-C1/SD-CG/Try1-3A/FIRE-CG
REM
REM
REM
REM
REM
REM ./C.cell (11c1c37f851c82e70ff6c80c92926a4b)
REM
REM compiler GCC version 9.2.1 20190827 (Red Hat 9.2.1-1)
REM options -cpp -mtune=generic -march=x86-64 -g -O0 -fpre-include=/usr/include/finclude/math-vector-fortran.h
REM seed 751411734 -245694409 -691081989 -1162920998 -1615701921 -1592945542 294403645 1375295856 406838213 -1181215986 521965326 1744250498 645759793 1593173608 -271959188 1814858406 -806331211 -1787611452 1530985261 231621293 1334098257 -112836199 -1383461107 -1523092395 808477489 -1276930453 -274437343 1408211634 1529274146 -1208752980 1628092841 -910510427 461913685
REM
CELL 1.54180   50.00000   50.00000   50.00000   90.00000   90.00000   90.00000
LATT -1
SFAC C  
C      1  0.4749610000000  0.4883970000000  0.4142110000000 1.0
C      1  0.5216870000000  0.5722220000000  0.4719490000000 1.0
C      1  0.4237340000000  0.5239530000000  0.4783610000000 1.0
C      1  0.5463890000000  0.4798030000000  0.4987860000000 1.0
C      1  0.4946800000000  0.4686170000000  0.4286620000000 1.0
C      1  0.4238680000000  0.4727060000000  0.5550050000000 1.0
C      1  0.4796740000000  0.4239960000000  0.4739720000000 1.0
C      1  0.4678240000000  0.4532910000000  0.4778260000000 1.0
C      1  0.4781490000000  0.5398240000000  0.4228520000000 1.0
C      1  0.5406570000000  0.4531670000000  0.4912790000000 1.0
C      1  0.4569680000000  0.4523000000000  0.4232050000000 1.0
C      1  0.5454770000000  0.4841600000000  0.4328690000000 1.0
C      1  0.4672880000000  0.4918290000000  0.5796850000000 1.0
C      1  0.5023480000000  0.5918160000000  0.5226660000000 1.0
C      1  0.4180120000000  0.4970890000000  0.5163950000000 1.0
C      1  0.4631410000000  0.5217680000000  0.5720660000000 1.0
C      1  0.4327480000000  0.5347210000000  0.5041430000000 1.0
C      1  0.4417770000000  0.4786290000000  0.5752830000000 1.0
C      1  0.5584500000000  0.5280210000000  0.5534890000000 1.0
C      1  0.4624970000000  0.5647270000000  0.5183530000000 1.0
C      1  0.4919580000000  0.4955980000000  0.4663160000000 1.0
C      1  0.4988630000000  0.5200310000000  0.4734190000000 1.0
C      1  0.5360250000000  0.4766450000000  0.5500960000000 1.0
C      1  0.4926220000000  0.4230290000000  0.4478030000000 1.0
C      1  0.4808200000000  0.5428800000000  0.4689780000000 1.0
C      1  0.4820430000000  0.4401480000000  0.4256070000000 1.0
C      1  0.5076980000000  0.4739220000000  0.5171530000000 1.0
C      1  0.5633760000000  0.4792380000000  0.5568760000000 1.0
C      1  0.5428120000000  0.5463450000000  0.4758570000000 1.0
C      1  0.5345640000000  0.5966080000000  0.4853580000000 1.0
C      1  0.4270680000000  0.5218370000000  0.5296880000000 1.0
C      1  0.4886030000000  0.5640280000000  0.5597210000000 1.0
C      1  0.5523830000000  0.5305880000000  0.5264760000000 1.0
C      1  0.4382350000000  0.5211810000000  0.4529910000000 1.0
C      1  0.4157280000000  0.4979440000000  0.4873800000000 1.0
C      1  0.4481850000000  0.4795450000000  0.4234690000000 1.0
C      1  0.5412580000000  0.5815060000000  0.5360580000000 1.0
C      1  0.5798180000000  0.4773620000000  0.4637440000000 1.0
C      1  0.5112580000000  0.4073370000000  0.5154590000000 1.0
C      1  0.4611200000000  0.5386380000000  0.4474480000000 1.0
C      1  0.5192150000000  0.4221210000000  0.4622790000000 1.0
C      1  0.5035600000000  0.4134680000000  0.4872260000000 1.0
C      1  0.5399210000000  0.5143770000000  0.4319960000000 1.0
C      1  0.5479700000000  0.5005850000000  0.4791660000000 1.0
C      1  0.4676950000000  0.4469760000000  0.5306120000000 1.0
C      1  0.5109040000000  0.5770920000000  0.5454910000000 1.0
C      1  0.5281810000000  0.5228080000000  0.4856050000000 1.0
C      1  0.5867690000000  0.4850230000000  0.5339080000000 1.0
C      1  0.5652370000000  0.5451410000000  0.5030910000000 1.0
C      1  0.4377790000000  0.4564480000000  0.4811580000000 1.0
C      1  0.5298970000000  0.5997930000000  0.5140670000000 1.0
C      1  0.5258070000000  0.5611420000000  0.4407330000000 1.0
C      1  0.5407300000000  0.4420350000000  0.4645600000000 1.0
C      1  0.4692900000000  0.4648480000000  0.5072290000000 1.0
C      1  0.4907690000000  0.4412570000000  0.5502570000000 1.0
C      1  0.4198750000000  0.4707400000000  0.5268560000000 1.0
C      1  0.5765070000000  0.5059260000000  0.4739420000000 1.0
C      1  0.4260600000000  0.4790080000000  0.4693520000000 1.0
C      1  0.4967900000000  0.4133350000000  0.5415210000000 1.0
C      1  0.4825460000000  0.5796620000000  0.5035730000000 1.0
C      1  0.5645250000000  0.5695740000000  0.5229570000000 1.0
C      1  0.5586270000000  0.5048670000000  0.5694970000000 1.0
C      1  0.5443090000000  0.5391330000000  0.4469160000000 1.0
C      1  0.5883230000000  0.5033770000000  0.5147010000000 1.0
C      1  0.4467570000000  0.5337160000000  0.5516560000000 1.0
C      1  0.4617740000000  0.5372710000000  0.5077610000000 1.0
C      1  0.4439250000000  0.4296720000000  0.5240680000000 1.0
C      1  0.5860290000000  0.5232690000000  0.4962380000000 1.0
C      1  0.5217350000000  0.4798650000000  0.4169870000000 1.0
C      1  0.5481350000000  0.4292280000000  0.5482450000000 1.0
C      1  0.5185280000000  0.4486140000000  0.5091210000000 1.0
C      1  0.4883590000000  0.5136890000000  0.4117740000000 1.0
C      1  0.5322120000000  0.4263720000000  0.5226130000000 1.0
C      1  0.4278790000000  0.4493290000000  0.5078530000000 1.0
C      1  0.4921820000000  0.5679220000000  0.4792080000000 1.0
C      1  0.5607740000000  0.4478740000000  0.5659630000000 1.0
C      1  0.5101260000000  0.5257990000000  0.5610920000000 1.0
C      1  0.5105710000000  0.4637960000000  0.5614970000000 1.0
C      1  0.4854340000000  0.4725150000000  0.4596070000000 1.0
C      1  0.5021900000000  0.5523390000000  0.4297460000000 1.0
C      1  0.5044930000000  0.5262250000000  0.5328670000000 1.0
C      1  0.4843660000000  0.4895670000000  0.5110070000000 1.0
C      1  0.5318690000000  0.4879850000000  0.5230870000000 1.0
C      1  0.4621110000000  0.5592220000000  0.5472210000000 1.0
C      1  0.5372600000000  0.5247960000000  0.5713920000000 1.0
C      1  0.4304370000000  0.4983440000000  0.5620700000000 1.0
C      1  0.5281400000000  0.5199410000000  0.5172730000000 1.0
C      1  0.4800920000000  0.5175510000000  0.5193070000000 1.0
C      1  0.5575510000000  0.4627940000000  0.4502030000000 1.0
C      1  0.4874780000000  0.5387840000000  0.5748170000000 1.0
C      1  0.4355900000000  0.4929800000000  0.4467250000000 1.0
C      1  0.5178270000000  0.5084450000000  0.4124010000000 1.0
C      1  0.4901230000000  0.4779140000000  0.5705580000000 1.0
END
