TITL C-883726-8501-125 176.911492140076 125000 -29604.4978585511 0 0 199 (C1) n - 1
REM
REM in /home/nfs/bkarasulu/CARBON/AIRSS/Generating-Clusters/ReaxFF-fromJPCA2015/Units_Real/with-SteepDescent/Only-C1/SD-CG/Try1-3A/FIRE-CG
REM
REM
REM
REM
REM
REM ./C.cell (11c1c37f851c82e70ff6c80c92926a4b)
REM
REM compiler GCC version 9.2.1 20190827 (Red Hat 9.2.1-1)
REM options -cpp -mtune=generic -march=x86-64 -g -O0 -fpre-include=/usr/include/finclude/math-vector-fortran.h
REM seed -180547468 1314355721 -1069103382 1824732427 1485010442 -793194997 -514107544 -698973231 -1602609949 1575997340 -1802218530 407733460 -1787845110 2143344703 912092420 -582020340 1136310383 -70682382 -355804480 1217399755 -1070278783 -742983670 -76532309 -1244385019 1263483154 -1707869931 -593684790 888640906 -864883298 -233051585 -206194398 801265741 694469692
REM
CELL 1.54180   50.00000   50.00000   50.00000   90.00000   90.00000   90.00000
LATT -1
SFAC C  
C      1  0.5053150000000  0.5569430000000  0.5115570000000 1.0
C      1  0.4699900000000  0.4778380000000  0.3947980000000 1.0
C      1  0.4695560000000  0.5139870000000  0.5010220000000 1.0
C      1  0.4727620000000  0.4744970000000  0.5323770000000 1.0
C      1  0.5762180000000  0.4321040000000  0.5746980000000 1.0
C      1  0.5140180000000  0.5381400000000  0.3908990000000 1.0
C      1  0.5651200000000  0.4004480000000  0.4853930000000 1.0
C      1  0.4667200000000  0.6156090000000  0.4577880000000 1.0
C      1  0.4026930000000  0.4755660000000  0.4334260000000 1.0
C      1  0.5763950000000  0.5752730000000  0.5409570000000 1.0
C      1  0.6220590000000  0.5476490000000  0.4976730000000 1.0
C      1  0.4683100000000  0.5143910000000  0.4483470000000 1.0
C      1  0.4837940000000  0.5077440000000  0.4720780000000 1.0
C      1  0.4125570000000  0.5117940000000  0.5432630000000 1.0
C      1  0.4547030000000  0.4421400000000  0.4984550000000 1.0
C      1  0.5016900000000  0.4434590000000  0.4011210000000 1.0
C      1  0.6095040000000  0.5423340000000  0.5233180000000 1.0
C      1  0.4082870000000  0.5540570000000  0.4452250000000 1.0
C      1  0.5102990000000  0.5368660000000  0.4931570000000 1.0
C      1  0.5260750000000  0.5507190000000  0.5313670000000 1.0
C      1  0.4929890000000  0.4163970000000  0.5885510000000 1.0
C      1  0.5898430000000  0.5644950000000  0.5189020000000 1.0
C      1  0.5804890000000  0.5009770000000  0.4540380000000 1.0
C      1  0.4311490000000  0.5278610000000  0.4160690000000 1.0
C      1  0.4826980000000  0.4767240000000  0.5595780000000 1.0
C      1  0.5254930000000  0.4909330000000  0.5482730000000 1.0
C      1  0.4150810000000  0.5646420000000  0.5494470000000 1.0
C      1  0.5379410000000  0.5105450000000  0.4840070000000 1.0
C      1  0.4595950000000  0.5335050000000  0.5977420000000 1.0
C      1  0.4528900000000  0.5586540000000  0.5288660000000 1.0
C      1  0.4468040000000  0.4173910000000  0.5630470000000 1.0
C      1  0.4061150000000  0.5291970000000  0.4296070000000 1.0
C      1  0.5395900000000  0.5915040000000  0.5514530000000 1.0
C      1  0.4072930000000  0.4397710000000  0.4738720000000 1.0
C      1  0.3856410000000  0.5062960000000  0.5304450000000 1.0
C      1  0.4409630000000  0.5024360000000  0.4213520000000 1.0
C      1  0.6099590000000  0.4923610000000  0.5172430000000 1.0
C      1  0.4575480000000  0.4240390000000  0.4755390000000 1.0
C      1  0.4745420000000  0.5034010000000  0.5684920000000 1.0
C      1  0.4839190000000  0.4121360000000  0.4430560000000 1.0
C      1  0.5480130000000  0.4665230000000  0.4681390000000 1.0
C      1  0.5685970000000  0.5518170000000  0.5010570000000 1.0
C      1  0.4530490000000  0.5551760000000  0.4805600000000 1.0
C      1  0.5556490000000  0.4035130000000  0.5124640000000 1.0
C      1  0.4275020000000  0.4989190000000  0.4775030000000 1.0
C      1  0.5092960000000  0.5983290000000  0.4821560000000 1.0
C      1  0.5008280000000  0.5571790000000  0.6004990000000 1.0
C      1  0.5661710000000  0.4432650000000  0.5995470000000 1.0
C      1  0.4444300000000  0.5527240000000  0.5566510000000 1.0
C      1  0.5672370000000  0.5082990000000  0.5298180000000 1.0
C      1  0.5694720000000  0.4731680000000  0.5999290000000 1.0
C      1  0.5502460000000  0.5371010000000  0.5202170000000 1.0
C      1  0.5363160000000  0.4533820000000  0.4222470000000 1.0
C      1  0.5517880000000  0.4953900000000  0.5529200000000 1.0
C      1  0.5321870000000  0.3992530000000  0.5564770000000 1.0
C      1  0.5439060000000  0.4848520000000  0.4913130000000 1.0
C      1  0.6106100000000  0.5712160000000  0.4814170000000 1.0
C      1  0.4089290000000  0.4795760000000  0.4930490000000 1.0
C      1  0.4655780000000  0.5725720000000  0.5685670000000 1.0
C      1  0.4725420000000  0.5592480000000  0.5929310000000 1.0
C      1  0.5210520000000  0.4719000000000  0.5086700000000 1.0
C      1  0.4416880000000  0.5883550000000  0.5272600000000 1.0
C      1  0.5907200000000  0.5277910000000  0.5646090000000 1.0
C      1  0.5347170000000  0.4505300000000  0.5251990000000 1.0
C      1  0.5218670000000  0.5238110000000  0.4473570000000 1.0
C      1  0.5566330000000  0.4346230000000  0.5093430000000 1.0
C      1  0.4541160000000  0.4363600000000  0.4203000000000 1.0
C      1  0.4444330000000  0.5233100000000  0.5744070000000 1.0
C      1  0.4254730000000  0.4417080000000  0.4216980000000 1.0
C      1  0.4389900000000  0.5969850000000  0.4524980000000 1.0
C      1  0.4760040000000  0.4578070000000  0.5086820000000 1.0
C      1  0.5113140000000  0.5402340000000  0.5543960000000 1.0
C      1  0.4651500000000  0.4265170000000  0.5853350000000 1.0
C      1  0.4641450000000  0.6219430000000  0.4332800000000 1.0
C      1  0.4406750000000  0.4658470000000  0.5692230000000 1.0
C      1  0.4840660000000  0.5137590000000  0.4228960000000 1.0
C      1  0.5142280000000  0.4979500000000  0.5216190000000 1.0
C      1  0.4310860000000  0.4070370000000  0.5003000000000 1.0
C      1  0.5130400000000  0.4315890000000  0.6032480000000 1.0
C      1  0.4987900000000  0.4597510000000  0.4921150000000 1.0
C      1  0.4142110000000  0.4765810000000  0.5669740000000 1.0
C      1  0.4969840000000  0.4038700000000  0.5181460000000 1.0
C      1  0.4197150000000  0.5916560000000  0.5442950000000 1.0
C      1  0.4006470000000  0.5430390000000  0.4711140000000 1.0
C      1  0.5061070000000  0.5331870000000  0.6144090000000 1.0
C      1  0.5817060000000  0.5406650000000  0.4777100000000 1.0
C      1  0.4488270000000  0.4920230000000  0.4490180000000 1.0
C      1  0.4022620000000  0.4624320000000  0.5406660000000 1.0
C      1  0.5986550000000  0.5168870000000  0.5340220000000 1.0
C      1  0.5394400000000  0.6049470000000  0.5229810000000 1.0
C      1  0.4877150000000  0.4998850000000  0.3781780000000 1.0
C      1  0.5865230000000  0.5079990000000  0.5829190000000 1.0
C      1  0.3993070000000  0.5554640000000  0.5238490000000 1.0
C      1  0.3976610000000  0.5038300000000  0.4425160000000 1.0
C      1  0.5216840000000  0.5617220000000  0.4056800000000 1.0
C      1  0.4461110000000  0.4752320000000  0.5420460000000 1.0
C      1  0.4326020000000  0.4963000000000  0.5283290000000 1.0
C      1  0.5715760000000  0.5473780000000  0.5745010000000 1.0
C      1  0.5914320000000  0.4559120000000  0.5642770000000 1.0
C      1  0.5069730000000  0.4603240000000  0.6083450000000 1.0
C      1  0.4869630000000  0.6107770000000  0.5340750000000 1.0
C      1  0.5567700000000  0.5319030000000  0.5918950000000 1.0
C      1  0.5127230000000  0.6113750000000  0.5248700000000 1.0
C      1  0.5972950000000  0.4584130000000  0.5382960000000 1.0
C      1  0.5144070000000  0.5898020000000  0.4522930000000 1.0
C      1  0.4904430000000  0.3948170000000  0.4655120000000 1.0
C      1  0.5270790000000  0.5200500000000  0.5051680000000 1.0
C      1  0.5096730000000  0.4678710000000  0.5584450000000 1.0
C      1  0.5318860000000  0.4984210000000  0.4364100000000 1.0
C      1  0.5561290000000  0.5897360000000  0.4730050000000 1.0
C      1  0.5677410000000  0.4908280000000  0.5059730000000 1.0
C      1  0.4709850000000  0.5578520000000  0.4113450000000 1.0
C      1  0.4852530000000  0.6179500000000  0.4816420000000 1.0
C      1  0.5509690000000  0.4157060000000  0.5716420000000 1.0
C      1  0.4240370000000  0.4285070000000  0.5491500000000 1.0
C      1  0.4734100000000  0.4468030000000  0.4008180000000 1.0
C      1  0.4454170000000  0.6068760000000  0.5043470000000 1.0
C      1  0.4017500000000  0.5134700000000  0.4694870000000 1.0
C      1  0.4903460000000  0.5772710000000  0.4433190000000 1.0
C      1  0.4577950000000  0.5426850000000  0.5056650000000 1.0
C      1  0.4642210000000  0.4377060000000  0.4490200000000 1.0
C      1  0.5711000000000  0.5307280000000  0.4509130000000 1.0
C      1  0.4999750000000  0.5314680000000  0.4671520000000 1.0
C      1  0.5925620000000  0.4802910000000  0.5839760000000 1.0
C      1  0.4862840000000  0.5245580000000  0.3938280000000 1.0
C      1  0.4802230000000  0.5604610000000  0.4679060000000 1.0
C      1  0.5067450000000  0.4164660000000  0.4301500000000 1.0
C      1  0.4910860000000  0.4873240000000  0.4157450000000 1.0
C      1  0.5390310000000  0.5992920000000  0.4942570000000 1.0
C      1  0.4528760000000  0.4172290000000  0.5156130000000 1.0
C      1  0.4258910000000  0.4566470000000  0.4878130000000 1.0
C      1  0.5575020000000  0.5222230000000  0.4036550000000 1.0
C      1  0.5143680000000  0.5595510000000  0.5761890000000 1.0
C      1  0.4203460000000  0.5057990000000  0.5707300000000 1.0
C      1  0.5149700000000  0.4342880000000  0.4831100000000 1.0
C      1  0.4855100000000  0.5906610000000  0.5562220000000 1.0
C      1  0.4589800000000  0.4537100000000  0.5905720000000 1.0
C      1  0.4790540000000  0.4694050000000  0.6040430000000 1.0
C      1  0.4945220000000  0.4769540000000  0.4640960000000 1.0
C      1  0.5769740000000  0.4234420000000  0.4460840000000 1.0
C      1  0.5228890000000  0.4613190000000  0.3968840000000 1.0
C      1  0.4895780000000  0.5216940000000  0.5499450000000 1.0
C      1  0.5164330000000  0.4070940000000  0.4753360000000 1.0
C      1  0.4807440000000  0.5183980000000  0.6105930000000 1.0
C      1  0.5111250000000  0.3798920000000  0.5133740000000 1.0
C      1  0.5426610000000  0.4409270000000  0.4805350000000 1.0
C      1  0.4070740000000  0.4355200000000  0.5296230000000 1.0
C      1  0.5277800000000  0.4750710000000  0.5959040000000 1.0
C      1  0.4817710000000  0.4956840000000  0.5949300000000 1.0
C      1  0.4723130000000  0.6171980000000  0.5069800000000 1.0
C      1  0.5450940000000  0.5653730000000  0.4233550000000 1.0
C      1  0.4949450000000  0.5719400000000  0.4147120000000 1.0
C      1  0.5833710000000  0.4227240000000  0.4766570000000 1.0
C      1  0.5349250000000  0.3903260000000  0.5278970000000 1.0
C      1  0.5322960000000  0.4225600000000  0.4221880000000 1.0
C      1  0.4936230000000  0.4177260000000  0.5437830000000 1.0
C      1  0.5845590000000  0.5825640000000  0.4761490000000 1.0
C      1  0.5322100000000  0.5163000000000  0.3898250000000 1.0
C      1  0.5324090000000  0.5316170000000  0.6037010000000 1.0
C      1  0.4071310000000  0.4221180000000  0.4990200000000 1.0
C      1  0.5628060000000  0.5771870000000  0.5631650000000 1.0
C      1  0.4072550000000  0.4485220000000  0.4449010000000 1.0
C      1  0.4696190000000  0.4690630000000  0.4525250000000 1.0
C      1  0.5051820000000  0.4022550000000  0.5663520000000 1.0
C      1  0.5413200000000  0.5828160000000  0.4476760000000 1.0
C      1  0.4447430000000  0.5546440000000  0.4189280000000 1.0
C      1  0.5817710000000  0.4873220000000  0.4802440000000 1.0
C      1  0.4423320000000  0.5033930000000  0.5022530000000 1.0
C      1  0.4818250000000  0.3835360000000  0.5046750000000 1.0
C      1  0.5563760000000  0.4972670000000  0.4189920000000 1.0
C      1  0.4663740000000  0.3966320000000  0.4823230000000 1.0
C      1  0.5136240000000  0.5859680000000  0.5641760000000 1.0
C      1  0.3944990000000  0.4803040000000  0.5190690000000 1.0
C      1  0.5874850000000  0.4598990000000  0.4325330000000 1.0
C      1  0.4645590000000  0.4149260000000  0.5409730000000 1.0
C      1  0.4415210000000  0.4847910000000  0.4013100000000 1.0
C      1  0.5147250000000  0.4438470000000  0.5437290000000 1.0
C      1  0.5629350000000  0.5433160000000  0.4229260000000 1.0
C      1  0.4192310000000  0.4680080000000  0.4098580000000 1.0
C      1  0.4047020000000  0.5594700000000  0.4949600000000 1.0
C      1  0.4320040000000  0.5967450000000  0.4803250000000 1.0
C      1  0.5483890000000  0.4873990000000  0.5825980000000 1.0
C      1  0.5413450000000  0.4266010000000  0.5974450000000 1.0
C      1  0.4856360000000  0.5049660000000  0.5258420000000 1.0
C      1  0.5444140000000  0.5300980000000  0.4640200000000 1.0
C      1  0.5839980000000  0.4874460000000  0.4288890000000 1.0
C      1  0.5523950000000  0.4085010000000  0.4407740000000 1.0
C      1  0.4285490000000  0.5692190000000  0.4837640000000 1.0
C      1  0.4950700000000  0.5730450000000  0.4905830000000 1.0
C      1  0.6035330000000  0.4629110000000  0.5126640000000 1.0
C      1  0.5134160000000  0.4906420000000  0.3907480000000 1.0
C      1  0.4300700000000  0.5731540000000  0.4386130000000 1.0
C      1  0.5259260000000  0.4724170000000  0.4486420000000 1.0
C      1  0.5843440000000  0.4424270000000  0.4976860000000 1.0
C      1  0.6083170000000  0.5282750000000  0.4807570000000 1.0
C      1  0.5433920000000  0.3975050000000  0.4657240000000 1.0
C      1  0.6082610000000  0.4991490000000  0.4895500000000 1.0
C      1  0.3861300000000  0.5318810000000  0.5191000000000 1.0
C      1  0.5684300000000  0.4456280000000  0.4285190000000 1.0
END
