TITL C-884137-4758-341 1.47125258125832 125000 -3925.45609649892 0 0 28 (C1) n - 1
REM
REM in /home/nfs/bkarasulu/CARBON/AIRSS/Generating-Clusters/ReaxFF-fromJPCA2015/Units_Real/with-SteepDescent/Only-C1/SD-CG/Try1-3A/FIRE-CG
REM
REM
REM
REM
REM
REM ./C.cell (11c1c37f851c82e70ff6c80c92926a4b)
REM
REM compiler GCC version 9.2.1 20190827 (Red Hat 9.2.1-1)
REM options -cpp -mtune=generic -march=x86-64 -g -O0 -fpre-include=/usr/include/finclude/math-vector-fortran.h
REM seed -1576689139 507460391 761892436 2124696368 711883478 -1878199749 1048474188 -1848253582 1876812106 323580149 -1525922467 -1581346388 340152236 960659991 223288341 491552752 797728253 -1349029896 692098631 296233612 57791253 2122549310 1950728570 169064576 204302950 -371557632 1754388007 -387411755 -1005553551 -1113896291 1467118635 -928325232 561351905
REM
CELL 1.54180   50.00000   50.00000   50.00000   90.00000   90.00000   90.00000
LATT -1
SFAC C  
C      1  0.5139450000000  0.5027730000000  0.4926560000000 1.0
C      1  0.5332990000000  0.4901980000000  0.4478530000000 1.0
C      1  0.5709740000000  0.4731410000000  0.5110530000000 1.0
C      1  0.5109020000000  0.4666940000000  0.5413670000000 1.0
C      1  0.4857000000000  0.5385790000000  0.4363590000000 1.0
C      1  0.4500720000000  0.5137570000000  0.4958180000000 1.0
C      1  0.4927870000000  0.5600510000000  0.5174630000000 1.0
C      1  0.5174710000000  0.5097330000000  0.5204260000000 1.0
C      1  0.5048350000000  0.5350620000000  0.5335720000000 1.0
C      1  0.4642010000000  0.4574120000000  0.5332800000000 1.0
C      1  0.5585490000000  0.4846670000000  0.5355030000000 1.0
C      1  0.5034180000000  0.5362950000000  0.5594770000000 1.0
C      1  0.5100990000000  0.5033550000000  0.4339900000000 1.0
C      1  0.4836330000000  0.4694580000000  0.5530920000000 1.0
C      1  0.4878700000000  0.5110070000000  0.4507840000000 1.0
C      1  0.5503720000000  0.4653690000000  0.4901780000000 1.0
C      1  0.4603830000000  0.4644340000000  0.5050150000000 1.0
C      1  0.5351520000000  0.4879890000000  0.4772170000000 1.0
C      1  0.5085160000000  0.4473110000000  0.5186200000000 1.0
C      1  0.4727670000000  0.5747230000000  0.5073520000000 1.0
C      1  0.4434000000000  0.5376180000000  0.4986970000000 1.0
C      1  0.4800300000000  0.4443540000000  0.5118490000000 1.0
C      1  0.4416630000000  0.5650140000000  0.5014410000000 1.0
C      1  0.4875640000000  0.5046460000000  0.4795870000000 1.0
C      1  0.5311190000000  0.4449600000000  0.4992280000000 1.0
C      1  0.5292750000000  0.4900450000000  0.5383200000000 1.0
C      1  0.4634700000000  0.4907480000000  0.4911220000000 1.0
C      1  0.5085340000000  0.5306100000000  0.4186830000000 1.0
END
