TITL C-2622956-4641-24 1.16279342161863e-07 125000 -44.9346919408843 0 0 9 (D3h) n - 1
REM
REM in /nfs/bkarasulu/CARBON/AIRSS/Generating-Clusters/AIREBO/with-SteepDescent/Higher-Symm/SD-CG/HFTN-CG
REM
REM
REM
REM
REM
REM ./C.cell (b20cbc046b6831c77cfcea5457e17084)
REM
REM compiler GCC version 9.2.1 20190827 (Red Hat 9.2.1-1)
REM options -cpp -mtune=generic -march=x86-64 -g -O0 -fpre-include=/usr/include/finclude/math-vector-fortran.h
REM seed 1726976122 1960256822 -290620449 1287333523 -24833858 358595669 -1794973368 -867494957 441217894 1781044375 -643182685 -1346269875 2022405130 -1914488777 -359642089 474640742 -1343678319 1729934991 1825293651 1239641843 1017927157 -1532030333 1870746465 -2111767501 357658902 1674846045 720360296 -1614493671 422313947 -644409264 675616309 -798256041 -1781930311
REM
CELL 1.54180   50.00000   50.00000   50.00000   90.00000   90.00000   90.00000
LATT -1
SFAC C  
C      1  0.5247270000000  0.5055180000000  0.4837060000000 1.0
C      1  0.5017460000000  0.5054950000000  0.5295610000000 1.0
C      1  0.4735280000000  0.5049120000000  0.4867330000000 1.0
C      1  0.5248940000000  0.5057010000000  0.5160350000000 1.0
C      1  0.5014400000000  0.5051610000000  0.4704220000000 1.0
C      1  0.4736660000000  0.5050640000000  0.5135430000000 1.0
C      1  0.4733240000000  0.5047290000000  0.4543410000000 1.0
C      1  0.4737970000000  0.5052460000000  0.5459350000000 1.0
C      1  0.5528790000000  0.5059500000000  0.4997240000000 1.0
END
