TITL C-2622962-9663-105 -1.83070057969577e-07 125000 -19.0187538188898 0 0 4 (D(inf)h) n - 1
REM
REM in /nfs/bkarasulu/CARBON/AIRSS/Generating-Clusters/AIREBO/with-SteepDescent/Higher-Symm/SD-CG/HFTN-CG
REM
REM
REM
REM
REM
REM ./C.cell (b20cbc046b6831c77cfcea5457e17084)
REM
REM compiler GCC version 9.2.1 20190827 (Red Hat 9.2.1-1)
REM options -cpp -mtune=generic -march=x86-64 -g -O0 -fpre-include=/usr/include/finclude/math-vector-fortran.h
REM seed -1437577302 1344138381 1972814017 1124831413 519363774 -106394552 787328478 -415468731 1474316017 -1786455721 -466909407 1512085297 -577382501 1934419981 -1048656166 -1140843708 -1303999533 1746471551 265809783 -197888757 1136815542 1262373903 -371655967 -792013230 1898893631 -1270062788 -929326920 -2009513772 -1610755804 -1680659559 38265039 -1642434623 366278201
REM
CELL 1.54180   50.00000   50.00000   50.00000   90.00000   90.00000   90.00000
LATT -1
SFAC C  
C      1  0.4992700000000  0.4997830000000  0.5395230000000 1.0
C      1  0.4992700000000  0.4997830000000  0.4866850000000 1.0
C      1  0.4992700000000  0.4997830000000  0.4604770000000 1.0
C      1  0.4992700000000  0.4997830000000  0.5133150000000 1.0
END
