TITL C-2622964-2985-11 0.00251926486310462 125000 -675.890791369443 0 0 127 (C1) n - 1
REM
REM in /nfs/bkarasulu/CARBON/AIRSS/Generating-Clusters/AIREBO/with-SteepDescent/Higher-Symm/SD-CG/HFTN-CG
REM
REM
REM
REM
REM
REM ./C.cell (b20cbc046b6831c77cfcea5457e17084)
REM
REM compiler GCC version 9.2.1 20190827 (Red Hat 9.2.1-1)
REM options -cpp -mtune=generic -march=x86-64 -g -O0 -fpre-include=/usr/include/finclude/math-vector-fortran.h
REM seed 1670952127 568283088 -626364321 192632483 703806266 68811549 2046966219 322678690 1165611731 -1802651295 1940096513 675475816 1796734561 -2101169630 711738962 -1138196186 1431109062 1234626084 -354565194 -2070016313 970484095 615008344 1108834228 -1081352119 792934033 -2139241709 -272926840 -416256316 -1669948465 -394503755 315449075 -469238638 -832381256
REM
CELL 1.54180   50.00000   50.00000   50.00000   90.00000   90.00000   90.00000
LATT -1
SFAC C  
C      1  0.5382220000000  0.4416580000000  0.4470950000000 1.0
C      1  0.4325220000000  0.4401170000000  0.4977890000000 1.0
C      1  0.5311300000000  0.4407960000000  0.5670920000000 1.0
C      1  0.5906710000000  0.5144960000000  0.5066820000000 1.0
C      1  0.4551620000000  0.5172150000000  0.4192350000000 1.0
C      1  0.4517430000000  0.5198190000000  0.5777740000000 1.0
C      1  0.4649020000000  0.4711400000000  0.4526720000000 1.0
C      1  0.4790570000000  0.4786920000000  0.5515830000000 1.0
C      1  0.5540890000000  0.4688610000000  0.4984760000000 1.0
C      1  0.5867790000000  0.5029830000000  0.5566010000000 1.0
C      1  0.5083630000000  0.5087020000000  0.3991130000000 1.0
C      1  0.4087370000000  0.5088250000000  0.5412100000000 1.0
C      1  0.4996420000000  0.4786670000000  0.5252900000000 1.0
C      1  0.5265770000000  0.4733840000000  0.4818680000000 1.0
C      1  0.4833420000000  0.4710500000000  0.4805210000000 1.0
C      1  0.4678970000000  0.4135290000000  0.5268640000000 1.0
C      1  0.5430120000000  0.4064880000000  0.5193880000000 1.0
C      1  0.4911860000000  0.4101250000000  0.4363800000000 1.0
C      1  0.4897550000000  0.5542090000000  0.4413100000000 1.0
C      1  0.4522500000000  0.5626370000000  0.5420260000000 1.0
C      1  0.5580890000000  0.5547860000000  0.5230930000000 1.0
C      1  0.4438550000000  0.5825690000000  0.4396870000000 1.0
C      1  0.4810990000000  0.5931840000000  0.5738740000000 1.0
C      1  0.5761680000000  0.5785230000000  0.4812900000000 1.0
C      1  0.5240340000000  0.5038160000000  0.4669080000000 1.0
C      1  0.4477030000000  0.5212760000000  0.4923910000000 1.0
C      1  0.5105290000000  0.5209780000000  0.5482780000000 1.0
C      1  0.5102170000000  0.4915660000000  0.5960220000000 1.0
C      1  0.5677060000000  0.4881570000000  0.4311860000000 1.0
C      1  0.4151540000000  0.4866740000000  0.4647070000000 1.0
C      1  0.4216500000000  0.5742820000000  0.5063230000000 1.0
C      1  0.5381780000000  0.5678760000000  0.5657470000000 1.0
C      1  0.5376970000000  0.5701390000000  0.4329760000000 1.0
C      1  0.5219450000000  0.4831840000000  0.4170320000000 1.0
C      1  0.4174500000000  0.4843300000000  0.5192970000000 1.0
C      1  0.5617590000000  0.4894370000000  0.5750850000000 1.0
C      1  0.5853330000000  0.5395120000000  0.5168270000000 1.0
C      1  0.4626910000000  0.5428690000000  0.4251880000000 1.0
C      1  0.4512060000000  0.5459450000000  0.5699480000000 1.0
C      1  0.4040350000000  0.4746890000000  0.4917790000000 1.0
C      1  0.5402310000000  0.4765290000000  0.5949030000000 1.0
C      1  0.5499220000000  0.4734750000000  0.4126570000000 1.0
C      1  0.5053470000000  0.5164100000000  0.4317760000000 1.0
C      1  0.4383070000000  0.5203910000000  0.5312330000000 1.0
C      1  0.5581150000000  0.5130810000000  0.5413340000000 1.0
C      1  0.5061390000000  0.4397440000000  0.4358290000000 1.0
C      1  0.4506400000000  0.4403750000000  0.5226590000000 1.0
C      1  0.5501770000000  0.4288460000000  0.5436000000000 1.0
C      1  0.4802030000000  0.5028630000000  0.5834750000000 1.0
C      1  0.5871520000000  0.5129180000000  0.4728890000000 1.0
C      1  0.4369900000000  0.4996540000000  0.4420360000000 1.0
C      1  0.4781580000000  0.4031490000000  0.5037430000000 1.0
C      1  0.5163650000000  0.4054140000000  0.5153160000000 1.0
C      1  0.4957750000000  0.3982790000000  0.4603350000000 1.0
C      1  0.5156710000000  0.5441500000000  0.4901240000000 1.0
C      1  0.4687670000000  0.5576540000000  0.4956400000000 1.0
C      1  0.4927980000000  0.5471450000000  0.5109790000000 1.0
C      1  0.5551350000000  0.5331510000000  0.4767340000000 1.0
C      1  0.4542590000000  0.5381580000000  0.4639690000000 1.0
C      1  0.4960520000000  0.5457970000000  0.5659200000000 1.0
C      1  0.4390200000000  0.4831990000000  0.5455600000000 1.0
C      1  0.5791980000000  0.4681230000000  0.5213910000000 1.0
C      1  0.4897170000000  0.4814380000000  0.4211130000000 1.0
C      1  0.5079880000000  0.5867590000000  0.4706490000000 1.0
C      1  0.4708700000000  0.5944290000000  0.5104380000000 1.0
C      1  0.5205420000000  0.5849890000000  0.5197300000000 1.0
C      1  0.5005020000000  0.4351910000000  0.5109870000000 1.0
C      1  0.5270300000000  0.4424160000000  0.5259770000000 1.0
C      1  0.4990590000000  0.4200550000000  0.4827890000000 1.0
C      1  0.5055120000000  0.4505200000000  0.4680740000000 1.0
C      1  0.4770350000000  0.4587340000000  0.5115790000000 1.0
C      1  0.5322020000000  0.4729890000000  0.5241910000000 1.0
C      1  0.4749150000000  0.5038330000000  0.4043910000000 1.0
C      1  0.4305120000000  0.5047810000000  0.5672100000000 1.0
C      1  0.5894250000000  0.4936340000000  0.5258530000000 1.0
C      1  0.4481170000000  0.4536200000000  0.5542820000000 1.0
C      1  0.5769850000000  0.4404310000000  0.5267150000000 1.0
C      1  0.4780390000000  0.4533180000000  0.4195760000000 1.0
C      1  0.5615990000000  0.4252230000000  0.5054400000000 1.0
C      1  0.4681240000000  0.4281360000000  0.4340130000000 1.0
C      1  0.4678510000000  0.4266470000000  0.5554130000000 1.0
C      1  0.4644340000000  0.5034200000000  0.5354690000000 1.0
C      1  0.5390410000000  0.5039260000000  0.5197000000000 1.0
C      1  0.4827800000000  0.4985730000000  0.4496560000000 1.0
C      1  0.5390160000000  0.5395110000000  0.5469960000000 1.0
C      1  0.5068510000000  0.5324020000000  0.4600510000000 1.0
C      1  0.4427130000000  0.5479760000000  0.5128570000000 1.0
C      1  0.5398140000000  0.4490730000000  0.5919300000000 1.0
C      1  0.5516660000000  0.4462260000000  0.4178690000000 1.0
C      1  0.4058830000000  0.4460340000000  0.4954320000000 1.0
C      1  0.4630110000000  0.5666950000000  0.4571380000000 1.0
C      1  0.4816100000000  0.5692190000000  0.5549890000000 1.0
C      1  0.5543300000000  0.5592450000000  0.4913390000000 1.0
C      1  0.4092570000000  0.5290200000000  0.4840610000000 1.0
C      1  0.5351530000000  0.5371070000000  0.5807490000000 1.0
C      1  0.5491040000000  0.5445740000000  0.4278510000000 1.0
C      1  0.5259750000000  0.5742070000000  0.4914080000000 1.0
C      1  0.4778960000000  0.5849560000000  0.4795080000000 1.0
C      1  0.4919060000000  0.5765040000000  0.5258100000000 1.0
C      1  0.5125000000000  0.5754010000000  0.4448380000000 1.0
C      1  0.4450940000000  0.5869120000000  0.5211510000000 1.0
C      1  0.5411930000000  0.5780380000000  0.5371600000000 1.0
C      1  0.5140140000000  0.4936600000000  0.5624910000000 1.0
C      1  0.5573470000000  0.5025000000000  0.4602330000000 1.0
C      1  0.4437040000000  0.4895910000000  0.4807020000000 1.0
C      1  0.5410900000000  0.4789860000000  0.5550060000000 1.0
C      1  0.5175890000000  0.4758510000000  0.4486660000000 1.0
C      1  0.4492820000000  0.4779700000000  0.5091730000000 1.0
C      1  0.4751710000000  0.5136440000000  0.4751150000000 1.0
C      1  0.4887610000000  0.5212630000000  0.5257470000000 1.0
C      1  0.5215920000000  0.5135520000000  0.4982990000000 1.0
C      1  0.5634290000000  0.5224680000000  0.5735810000000 1.0
C      1  0.5312950000000  0.5282720000000  0.4150930000000 1.0
C      1  0.4118400000000  0.5227150000000  0.5100120000000 1.0
C      1  0.4489580000000  0.4344840000000  0.4517130000000 1.0
C      1  0.4911270000000  0.4325530000000  0.5684540000000 1.0
C      1  0.5537120000000  0.4418690000000  0.4777910000000 1.0
C      1  0.4610600000000  0.4752840000000  0.5777720000000 1.0
C      1  0.5818000000000  0.4825620000000  0.4843010000000 1.0
C      1  0.4507150000000  0.4741860000000  0.4240490000000 1.0
C      1  0.5068310000000  0.5235360000000  0.5879980000000 1.0
C      1  0.5693360000000  0.5311950000000  0.4464720000000 1.0
C      1  0.4239670000000  0.5249740000000  0.4607000000000 1.0
C      1  0.5065590000000  0.4605550000000  0.5600290000000 1.0
C      1  0.5570700000000  0.4683170000000  0.4566760000000 1.0
C      1  0.4468150000000  0.4559900000000  0.4762860000000 1.0
C      1  0.4911610000000  0.4988580000000  0.5002800000000 1.0
END
