TITL C-2622954-8726-21 0.000624560043612716 125000 -280.23060057602 0 0 53 (C1) n - 1
REM
REM in /nfs/bkarasulu/CARBON/AIRSS/Generating-Clusters/AIREBO/with-SteepDescent/Higher-Symm/SD-CG/HFTN-CG
REM
REM
REM
REM
REM
REM ./C.cell (b20cbc046b6831c77cfcea5457e17084)
REM
REM compiler GCC version 9.2.1 20190827 (Red Hat 9.2.1-1)
REM options -cpp -mtune=generic -march=x86-64 -g -O0 -fpre-include=/usr/include/finclude/math-vector-fortran.h
REM seed 1674083758 -810174735 379108365 2144225527 -330790805 -302719869 -670156697 -981316532 -990652361 -2009670750 693147540 1858839198 -1797718005 981614065 78674533 -894557803 -1131888964 -883249150 -627435254 -101573177 -767426173 603664560 -1937509443 1314655217 -1124726366 695393481 1633800628 1235407827 -1094267120 2066287886 -804896342 -1250072859 554461483
REM
CELL 1.54180   50.00000   50.00000   50.00000   90.00000   90.00000   90.00000
LATT -1
SFAC C  
C      1  0.4572470000000  0.5527030000000  0.5079640000000 1.0
C      1  0.5728230000000  0.4875750000000  0.5063710000000 1.0
C      1  0.4974440000000  0.4704020000000  0.5543420000000 1.0
C      1  0.4551400000000  0.4866400000000  0.5098520000000 1.0
C      1  0.4476390000000  0.4900910000000  0.4534820000000 1.0
C      1  0.4869120000000  0.5650670000000  0.5023110000000 1.0
C      1  0.5154840000000  0.4941400000000  0.4781440000000 1.0
C      1  0.4766280000000  0.5199400000000  0.5453640000000 1.0
C      1  0.5067090000000  0.5300740000000  0.4535890000000 1.0
C      1  0.5364050000000  0.5316660000000  0.4702850000000 1.0
C      1  0.4850700000000  0.5006620000000  0.5186120000000 1.0
C      1  0.4976570000000  0.4830490000000  0.4397090000000 1.0
C      1  0.4714600000000  0.5007020000000  0.4383760000000 1.0
C      1  0.4841680000000  0.4451210000000  0.5413260000000 1.0
C      1  0.4780910000000  0.5272590000000  0.4431230000000 1.0
C      1  0.5144630000000  0.4581530000000  0.4521390000000 1.0
C      1  0.5118780000000  0.5529090000000  0.5221460000000 1.0
C      1  0.5243000000000  0.5017230000000  0.4468350000000 1.0
C      1  0.4744070000000  0.4905030000000  0.5619880000000 1.0
C      1  0.5182130000000  0.4609230000000  0.4820450000000 1.0
C      1  0.5657170000000  0.4895490000000  0.4705280000000 1.0
C      1  0.4584810000000  0.5421980000000  0.4549000000000 1.0
C      1  0.4643260000000  0.5013040000000  0.4809190000000 1.0
C      1  0.5666090000000  0.5435520000000  0.5194250000000 1.0
C      1  0.4706970000000  0.4460050000000  0.4722270000000 1.0
C      1  0.4494660000000  0.5318760000000  0.4830620000000 1.0
C      1  0.5432700000000  0.5068240000000  0.4876250000000 1.0
C      1  0.4818920000000  0.4754500000000  0.4675070000000 1.0
C      1  0.4943920000000  0.5300170000000  0.5693100000000 1.0
C      1  0.4802860000000  0.5496770000000  0.5319040000000 1.0
C      1  0.4523680000000  0.4572600000000  0.5079030000000 1.0
C      1  0.5204710000000  0.4336210000000  0.5111390000000 1.0
C      1  0.5302060000000  0.5440930000000  0.5472360000000 1.0
C      1  0.5380470000000  0.5010090000000  0.5207310000000 1.0
C      1  0.5016940000000  0.5442290000000  0.4841060000000 1.0
C      1  0.5440170000000  0.5593290000000  0.5130840000000 1.0
C      1  0.5525980000000  0.4959210000000  0.4444770000000 1.0
C      1  0.4312860000000  0.5328360000000  0.5116250000000 1.0
C      1  0.5148590000000  0.4645220000000  0.5756680000000 1.0
C      1  0.4944550000000  0.5128900000000  0.4898750000000 1.0
C      1  0.4947530000000  0.4402720000000  0.4929820000000 1.0
C      1  0.4325080000000  0.5016430000000  0.5221760000000 1.0
C      1  0.5330070000000  0.5569350000000  0.4863660000000 1.0
C      1  0.5679400000000  0.5168100000000  0.5171210000000 1.0
C      1  0.4443740000000  0.4624650000000  0.4566970000000 1.0
C      1  0.5656950000000  0.4638130000000  0.5267260000000 1.0
C      1  0.5502660000000  0.4677300000000  0.4903680000000 1.0
C      1  0.4387320000000  0.4468030000000  0.4837910000000 1.0
C      1  0.4745020000000  0.4432840000000  0.5163440000000 1.0
C      1  0.5121970000000  0.4827410000000  0.5283620000000 1.0
C      1  0.4437630000000  0.5238230000000  0.5425220000000 1.0
C      1  0.5336800000000  0.4607240000000  0.5188930000000 1.0
C      1  0.5413090000000  0.5214910000000  0.5463990000000 1.0
END
