TITL C-2622964-2985-484 0.000569023358150005 125000 -859.201262174323 0 0 159 (C1) n - 1
REM
REM in /nfs/bkarasulu/CARBON/AIRSS/Generating-Clusters/AIREBO/with-SteepDescent/Higher-Symm/SD-CG/HFTN-CG
REM
REM
REM
REM
REM
REM ./C.cell (b20cbc046b6831c77cfcea5457e17084)
REM
REM compiler GCC version 9.2.1 20190827 (Red Hat 9.2.1-1)
REM options -cpp -mtune=generic -march=x86-64 -g -O0 -fpre-include=/usr/include/finclude/math-vector-fortran.h
REM seed -442202439 -604152655 -992568521 2102371582 915736518 -605597736 653039774 1385806625 -1024564067 657851704 1372729289 1635193763 -1449085226 922568501 2081320454 -1527051095 -960009462 -17386643 -1807951933 2103439776 -148684064 -382877013 817511671 -640294869 795361696 200717870 469101902 -1553331599 471403416 -2035714720 -822822427 280208199 896612904
REM
CELL 1.54180   50.00000   50.00000   50.00000   90.00000   90.00000   90.00000
LATT -1
SFAC C  
C      1  0.4159200000000  0.4475320000000  0.5375530000000 1.0
C      1  0.5504820000000  0.5788360000000  0.4633910000000 1.0
C      1  0.4081930000000  0.5114130000000  0.5013280000000 1.0
C      1  0.4048500000000  0.4804560000000  0.4606950000000 1.0
C      1  0.5032730000000  0.5428330000000  0.5606280000000 1.0
C      1  0.4969750000000  0.4428470000000  0.4285100000000 1.0
C      1  0.4155010000000  0.5537140000000  0.4663900000000 1.0
C      1  0.4456080000000  0.5647930000000  0.5267380000000 1.0
C      1  0.5727720000000  0.4886330000000  0.5818010000000 1.0
C      1  0.5557780000000  0.5493220000000  0.4900190000000 1.0
C      1  0.4104770000000  0.5357120000000  0.5241270000000 1.0
C      1  0.5055960000000  0.3968640000000  0.5421950000000 1.0
C      1  0.5829490000000  0.5431540000000  0.4752760000000 1.0
C      1  0.5902760000000  0.5196000000000  0.4315670000000 1.0
C      1  0.4738650000000  0.5970580000000  0.4356310000000 1.0
C      1  0.5452290000000  0.4445690000000  0.4900920000000 1.0
C      1  0.4845720000000  0.5928350000000  0.4962000000000 1.0
C      1  0.5083420000000  0.4286750000000  0.5304860000000 1.0
C      1  0.4531750000000  0.4224990000000  0.4572060000000 1.0
C      1  0.4450260000000  0.4693770000000  0.5941440000000 1.0
C      1  0.5487700000000  0.5921990000000  0.4905620000000 1.0
C      1  0.5152180000000  0.4971430000000  0.3939980000000 1.0
C      1  0.5594190000000  0.4848670000000  0.4790790000000 1.0
C      1  0.4429760000000  0.5820620000000  0.5006550000000 1.0
C      1  0.4169270000000  0.5292170000000  0.4428410000000 1.0
C      1  0.4785740000000  0.5135970000000  0.5082010000000 1.0
C      1  0.4294220000000  0.4705150000000  0.4432310000000 1.0
C      1  0.4755290000000  0.5292280000000  0.5459800000000 1.0
C      1  0.5081160000000  0.5141250000000  0.5242810000000 1.0
C      1  0.4656100000000  0.5472100000000  0.5801350000000 1.0
C      1  0.5095560000000  0.4827280000000  0.4995490000000 1.0
C      1  0.4528220000000  0.4620600000000  0.5344670000000 1.0
C      1  0.5965820000000  0.4523870000000  0.4981000000000 1.0
C      1  0.4068940000000  0.5090680000000  0.4686240000000 1.0
C      1  0.5168050000000  0.5892910000000  0.4973930000000 1.0
C      1  0.4216930000000  0.4916120000000  0.5824220000000 1.0
C      1  0.5101670000000  0.5172910000000  0.5904310000000 1.0
C      1  0.5906230000000  0.4818950000000  0.4836080000000 1.0
C      1  0.5554080000000  0.4713330000000  0.5384100000000 1.0
C      1  0.5476650000000  0.5298900000000  0.5477190000000 1.0
C      1  0.5473350000000  0.5446500000000  0.4571470000000 1.0
C      1  0.4828940000000  0.5761590000000  0.4201440000000 1.0
C      1  0.5379420000000  0.5315420000000  0.4272040000000 1.0
C      1  0.4256160000000  0.4813300000000  0.4132890000000 1.0
C      1  0.5806980000000  0.4929100000000  0.4322550000000 1.0
C      1  0.5840000000000  0.4662140000000  0.5510530000000 1.0
C      1  0.4486100000000  0.4563320000000  0.4116020000000 1.0
C      1  0.5733500000000  0.6088140000000  0.5071700000000 1.0
C      1  0.4561790000000  0.4834970000000  0.4547620000000 1.0
C      1  0.5053270000000  0.5433160000000  0.5073460000000 1.0
C      1  0.5673690000000  0.5785040000000  0.5161270000000 1.0
C      1  0.4145510000000  0.4806020000000  0.5315250000000 1.0
C      1  0.5304990000000  0.5524500000000  0.4102230000000 1.0
C      1  0.5808050000000  0.5179090000000  0.5288220000000 1.0
C      1  0.4917830000000  0.5613420000000  0.4612620000000 1.0
C      1  0.4719080000000  0.5079130000000  0.4020140000000 1.0
C      1  0.5511750000000  0.5270220000000  0.5145980000000 1.0
C      1  0.5454750000000  0.5610630000000  0.5347740000000 1.0
C      1  0.4892530000000  0.5261030000000  0.4224410000000 1.0
C      1  0.4497270000000  0.5311230000000  0.5291400000000 1.0
C      1  0.4367530000000  0.5212940000000  0.4760130000000 1.0
C      1  0.4663270000000  0.5511610000000  0.4240440000000 1.0
C      1  0.5715940000000  0.4492940000000  0.4529670000000 1.0
C      1  0.5162660000000  0.5074890000000  0.4263830000000 1.0
C      1  0.5212830000000  0.5658530000000  0.4517640000000 1.0
C      1  0.5462000000000  0.4413170000000  0.5300250000000 1.0
C      1  0.4402980000000  0.5558010000000  0.5590960000000 1.0
C      1  0.4828870000000  0.5608910000000  0.4916570000000 1.0
C      1  0.5143260000000  0.3939920000000  0.4317270000000 1.0
C      1  0.5555750000000  0.4926550000000  0.6109210000000 1.0
C      1  0.4423490000000  0.4397080000000  0.4387420000000 1.0
C      1  0.4426300000000  0.5735060000000  0.4717120000000 1.0
C      1  0.5364940000000  0.4117520000000  0.5216880000000 1.0
C      1  0.5674110000000  0.5497740000000  0.5660000000000 1.0
C      1  0.4829720000000  0.6039470000000  0.5617020000000 1.0
C      1  0.4483040000000  0.5880780000000  0.5498530000000 1.0
C      1  0.4596480000000  0.4854660000000  0.5107680000000 1.0
C      1  0.4208760000000  0.5101760000000  0.4149400000000 1.0
C      1  0.5487550000000  0.4090340000000  0.5533010000000 1.0
C      1  0.3834110000000  0.4567330000000  0.4708730000000 1.0
C      1  0.4773640000000  0.4502150000000  0.5173530000000 1.0
C      1  0.4770250000000  0.4599090000000  0.4068550000000 1.0
C      1  0.6033530000000  0.5321850000000  0.4894970000000 1.0
C      1  0.4455220000000  0.4100230000000  0.4822730000000 1.0
C      1  0.5165290000000  0.5417000000000  0.6075540000000 1.0
C      1  0.4838080000000  0.4034080000000  0.4909190000000 1.0
C      1  0.4618390000000  0.4137680000000  0.5120100000000 1.0
C      1  0.5624320000000  0.4059300000000  0.4815030000000 1.0
C      1  0.4702440000000  0.4491200000000  0.4894170000000 1.0
C      1  0.5394240000000  0.4816510000000  0.4517520000000 1.0
C      1  0.5613740000000  0.4554480000000  0.5741470000000 1.0
C      1  0.4174280000000  0.5356110000000  0.5522600000000 1.0
C      1  0.5213990000000  0.4536800000000  0.5497390000000 1.0
C      1  0.5088480000000  0.4743020000000  0.4260440000000 1.0
C      1  0.5989160000000  0.5053620000000  0.5051440000000 1.0
C      1  0.4849040000000  0.4284150000000  0.4678970000000 1.0
C      1  0.5752920000000  0.4416950000000  0.5206830000000 1.0
C      1  0.5329790000000  0.4922920000000  0.5301270000000 1.0
C      1  0.5199040000000  0.4225000000000  0.4434300000000 1.0
C      1  0.4237820000000  0.4695660000000  0.5605640000000 1.0
C      1  0.4393990000000  0.4330020000000  0.5252370000000 1.0
C      1  0.5309140000000  0.5606570000000  0.5070170000000 1.0
C      1  0.4857020000000  0.4877870000000  0.5594530000000 1.0
C      1  0.4829480000000  0.4310260000000  0.5710360000000 1.0
C      1  0.4742120000000  0.6174060000000  0.5418170000000 1.0
C      1  0.5089470000000  0.4514560000000  0.4747540000000 1.0
C      1  0.4497450000000  0.5215460000000  0.4215800000000 1.0
C      1  0.5432730000000  0.5498750000000  0.6106030000000 1.0
C      1  0.5870170000000  0.4739970000000  0.4522760000000 1.0
C      1  0.5376160000000  0.4481150000000  0.4571360000000 1.0
C      1  0.4557730000000  0.5142050000000  0.4536150000000 1.0
C      1  0.5399680000000  0.4823860000000  0.4024630000000 1.0
C      1  0.4708340000000  0.5880550000000  0.4654440000000 1.0
C      1  0.4009640000000  0.4428470000000  0.4918600000000 1.0
C      1  0.5794380000000  0.5403810000000  0.4467640000000 1.0
C      1  0.4892630000000  0.4792590000000  0.5266370000000 1.0
C      1  0.5130670000000  0.4105170000000  0.4745330000000 1.0
C      1  0.4575580000000  0.4728930000000  0.5627330000000 1.0
C      1  0.4868060000000  0.4849300000000  0.3944430000000 1.0
C      1  0.4630130000000  0.4415130000000  0.5865900000000 1.0
C      1  0.5238960000000  0.5194580000000  0.5605880000000 1.0
C      1  0.5781550000000  0.5512680000000  0.5337760000000 1.0
C      1  0.5112300000000  0.4341800000000  0.5733630000000 1.0
C      1  0.4758410000000  0.4266450000000  0.5402900000000 1.0
C      1  0.5196510000000  0.4857160000000  0.5607090000000 1.0
C      1  0.5497930000000  0.5142280000000  0.4721440000000 1.0
C      1  0.4765240000000  0.5723430000000  0.5603520000000 1.0
C      1  0.5105230000000  0.5705470000000  0.4216380000000 1.0
C      1  0.4963010000000  0.4789060000000  0.4701960000000 1.0
C      1  0.5155560000000  0.4498160000000  0.5058400000000 1.0
C      1  0.5406480000000  0.4800010000000  0.5839600000000 1.0
C      1  0.4342740000000  0.5038830000000  0.5213010000000 1.0
C      1  0.5370590000000  0.4310900000000  0.4157230000000 1.0
C      1  0.5838390000000  0.5001270000000  0.5535500000000 1.0
C      1  0.5047900000000  0.5271180000000  0.4769890000000 1.0
C      1  0.5757500000000  0.4345410000000  0.4813490000000 1.0
C      1  0.4910400000000  0.5570800000000  0.5341560000000 1.0
C      1  0.4284750000000  0.5451300000000  0.4966380000000 1.0
C      1  0.4817520000000  0.4720170000000  0.4446630000000 1.0
C      1  0.4631340000000  0.6006440000000  0.5187490000000 1.0
C      1  0.4788850000000  0.5160230000000  0.5771560000000 1.0
C      1  0.5292230000000  0.4550350000000  0.4067290000000 1.0
C      1  0.4214010000000  0.4617930000000  0.4813640000000 1.0
C      1  0.5477290000000  0.4731580000000  0.5058770000000 1.0
C      1  0.4974740000000  0.5549900000000  0.5891120000000 1.0
C      1  0.5633970000000  0.5509920000000  0.5920290000000 1.0
C      1  0.4681860000000  0.5081410000000  0.6077610000000 1.0
C      1  0.5430780000000  0.4290650000000  0.5722370000000 1.0
C      1  0.4579730000000  0.4867610000000  0.6156710000000 1.0
C      1  0.5270600000000  0.5116990000000  0.4961460000000 1.0
C      1  0.4499230000000  0.4709220000000  0.4824970000000 1.0
C      1  0.4416890000000  0.5528690000000  0.4447030000000 1.0
C      1  0.5974360000000  0.4759200000000  0.5221840000000 1.0
C      1  0.4620450000000  0.5405560000000  0.4996350000000 1.0
C      1  0.4135670000000  0.5157580000000  0.5729750000000 1.0
C      1  0.5144060000000  0.5010980000000  0.4597310000000 1.0
C      1  0.5530150000000  0.4912070000000  0.4259090000000 1.0
C      1  0.4828740000000  0.5306480000000  0.4538970000000 1.0
C      1  0.5370910000000  0.4048360000000  0.4925160000000 1.0
END
