TITL C-2622967-6265-63 -0.00533858730357647 125000 -396.525329399255 0 0 75 (C1) n - 1
REM
REM in /nfs/bkarasulu/CARBON/AIRSS/Generating-Clusters/AIREBO/with-SteepDescent/Higher-Symm/SD-CG/HFTN-CG
REM
REM
REM
REM
REM
REM ./C.cell (b20cbc046b6831c77cfcea5457e17084)
REM
REM compiler GCC version 9.2.1 20190827 (Red Hat 9.2.1-1)
REM options -cpp -mtune=generic -march=x86-64 -g -O0 -fpre-include=/usr/include/finclude/math-vector-fortran.h
REM seed 1377486117 -775387686 1411906021 580943752 584552682 -1993173590 -2014704388 -1930484231 323362043 -551201885 -792189259 1713174001 -1543898315 -40211486 -366441753 362531729 -1106068263 50686973 2019821833 -1182027675 959527447 1223891852 1715700267 1101072965 -1631688189 980971955 -206176477 -1467781056 1775190700 878762197 -2088120380 793408449 202765597
REM
CELL 1.54180   50.00000   50.00000   50.00000   90.00000   90.00000   90.00000
LATT -1
SFAC C  
C      1  0.5443110000000  0.5304920000000  0.5400270000000 1.0
C      1  0.5407330000000  0.4665820000000  0.5391000000000 1.0
C      1  0.4637220000000  0.4734640000000  0.5074120000000 1.0
C      1  0.4596220000000  0.5285220000000  0.5073260000000 1.0
C      1  0.5459190000000  0.4350870000000  0.5272040000000 1.0
C      1  0.5505870000000  0.5585170000000  0.5218270000000 1.0
C      1  0.5061660000000  0.5598790000000  0.4841190000000 1.0
C      1  0.5302830000000  0.4401680000000  0.4870470000000 1.0
C      1  0.4552320000000  0.5641210000000  0.4897370000000 1.0
C      1  0.4630640000000  0.4371320000000  0.4908700000000 1.0
C      1  0.5288620000000  0.5846350000000  0.4787750000000 1.0
C      1  0.5079500000000  0.4184660000000  0.4899650000000 1.0
C      1  0.5278670000000  0.4528550000000  0.4596440000000 1.0
C      1  0.5230850000000  0.5618610000000  0.4541930000000 1.0
C      1  0.4284830000000  0.5117050000000  0.5300460000000 1.0
C      1  0.4224070000000  0.4842920000000  0.5250150000000 1.0
C      1  0.5376620000000  0.5141640000000  0.5626480000000 1.0
C      1  0.5345060000000  0.4823820000000  0.5627690000000 1.0
C      1  0.5073170000000  0.5272760000000  0.4937090000000 1.0
C      1  0.5061900000000  0.4812930000000  0.5014960000000 1.0
C      1  0.4849670000000  0.4276150000000  0.4765550000000 1.0
C      1  0.4777350000000  0.5671690000000  0.4734190000000 1.0
C      1  0.4942360000000  0.4379100000000  0.5341870000000 1.0
C      1  0.4945870000000  0.5687390000000  0.5255170000000 1.0
C      1  0.5708010000000  0.5185880000000  0.4517180000000 1.0
C      1  0.5728650000000  0.4931150000000  0.4470410000000 1.0
C      1  0.5201000000000  0.5178320000000  0.4642930000000 1.0
C      1  0.5230730000000  0.4864240000000  0.4621480000000 1.0
C      1  0.5086670000000  0.5114770000000  0.5704520000000 1.0
C      1  0.5051170000000  0.4823720000000  0.5757100000000 1.0
C      1  0.4638380000000  0.4427070000000  0.5219900000000 1.0
C      1  0.4621760000000  0.5599120000000  0.5201430000000 1.0
C      1  0.4911930000000  0.5590430000000  0.5552250000000 1.0
C      1  0.4911710000000  0.4337990000000  0.5653360000000 1.0
C      1  0.5634440000000  0.5083260000000  0.4996590000000 1.0
C      1  0.5606890000000  0.4791560000000  0.4947280000000 1.0
C      1  0.5937930000000  0.5076850000000  0.5256160000000 1.0
C      1  0.5912450000000  0.4828570000000  0.5242170000000 1.0
C      1  0.5260340000000  0.4635480000000  0.4295560000000 1.0
C      1  0.5200590000000  0.5446240000000  0.4323600000000 1.0
C      1  0.4789840000000  0.5557290000000  0.4481050000000 1.0
C      1  0.4901910000000  0.4417050000000  0.4523750000000 1.0
C      1  0.5326830000000  0.4659220000000  0.5059370000000 1.0
C      1  0.5364660000000  0.5249020000000  0.5073930000000 1.0
C      1  0.4637390000000  0.4851320000000  0.5393670000000 1.0
C      1  0.4609290000000  0.5164220000000  0.5390860000000 1.0
C      1  0.4342940000000  0.5452990000000  0.5331210000000 1.0
C      1  0.4351040000000  0.4588490000000  0.5311810000000 1.0
C      1  0.5725020000000  0.5321430000000  0.5221740000000 1.0
C      1  0.5687550000000  0.4595990000000  0.5213480000000 1.0
C      1  0.5516910000000  0.5244300000000  0.4742460000000 1.0
C      1  0.5554020000000  0.4769850000000  0.4640990000000 1.0
C      1  0.4209230000000  0.5149100000000  0.4654840000000 1.0
C      1  0.4174350000000  0.4890540000000  0.4582480000000 1.0
C      1  0.5104140000000  0.5155570000000  0.4249510000000 1.0
C      1  0.5096890000000  0.4875230000000  0.4245280000000 1.0
C      1  0.4493700000000  0.4606250000000  0.4793870000000 1.0
C      1  0.4364690000000  0.5387090000000  0.4843120000000 1.0
C      1  0.5249160000000  0.5711720000000  0.5101580000000 1.0
C      1  0.5177230000000  0.4256370000000  0.5188980000000 1.0
C      1  0.4838950000000  0.4668260000000  0.5597620000000 1.0
C      1  0.4886070000000  0.5262190000000  0.5551950000000 1.0
C      1  0.4830850000000  0.4847790000000  0.4818370000000 1.0
C      1  0.4775820000000  0.5170190000000  0.4807900000000 1.0
C      1  0.4985470000000  0.4691470000000  0.5296400000000 1.0
C      1  0.4954250000000  0.5354290000000  0.5234860000000 1.0
C      1  0.4413130000000  0.4730110000000  0.4562340000000 1.0
C      1  0.4513320000000  0.5232360000000  0.4600880000000 1.0
C      1  0.4498010000000  0.4612560000000  0.5591720000000 1.0
C      1  0.4412420000000  0.5330390000000  0.5612970000000 1.0
C      1  0.4932920000000  0.4741690000000  0.4511740000000 1.0
C      1  0.4899790000000  0.5254510000000  0.4502630000000 1.0
C      1  0.4638770000000  0.5098620000000  0.4347560000000 1.0
C      1  0.4630380000000  0.4818000000000  0.4395850000000 1.0
C      1  0.5016830000000  0.5028100000000  0.5255310000000 1.0
END
