TITL C-2622964-2985-49 0.00390554465055387 125000 -489.589132648422 0 0 94 (C1) n - 1
REM
REM in /nfs/bkarasulu/CARBON/AIRSS/Generating-Clusters/AIREBO/with-SteepDescent/Higher-Symm/SD-CG/HFTN-CG
REM
REM
REM
REM
REM
REM ./C.cell (b20cbc046b6831c77cfcea5457e17084)
REM
REM compiler GCC version 9.2.1 20190827 (Red Hat 9.2.1-1)
REM options -cpp -mtune=generic -march=x86-64 -g -O0 -fpre-include=/usr/include/finclude/math-vector-fortran.h
REM seed 2130203320 1423271989 1909271960 512320069 -1880553889 -274876202 1133649184 -595410426 -1748006094 1224660090 -1101336780 877040758 -447929183 -1636678956 -2137540032 141943044 -205115929 189956793 712806799 1426083588 -1651338916 1896846183 -1339722130 -2014768561 1917879995 -1194541090 601425825 -1469065865 -253707079 1116006773 768872940 -1128907184 543967516
REM
CELL 1.54180   50.00000   50.00000   50.00000   90.00000   90.00000   90.00000
LATT -1
SFAC C  
C      1  0.5104800000000  0.5513700000000  0.5550270000000 1.0
C      1  0.5417630000000  0.5184830000000  0.5373510000000 1.0
C      1  0.5340770000000  0.5449890000000  0.5086600000000 1.0
C      1  0.4831030000000  0.5437670000000  0.4520220000000 1.0
C      1  0.5226880000000  0.4490880000000  0.4531380000000 1.0
C      1  0.4958780000000  0.4497240000000  0.5479760000000 1.0
C      1  0.4473560000000  0.5094120000000  0.4623880000000 1.0
C      1  0.5548500000000  0.4727350000000  0.4543910000000 1.0
C      1  0.4526250000000  0.4768870000000  0.5442490000000 1.0
C      1  0.4504240000000  0.5531590000000  0.4736990000000 1.0
C      1  0.5522280000000  0.4509400000000  0.4913600000000 1.0
C      1  0.4482750000000  0.4390470000000  0.5104700000000 1.0
C      1  0.4888730000000  0.4788170000000  0.5817830000000 1.0
C      1  0.5924110000000  0.5077730000000  0.4765150000000 1.0
C      1  0.4897300000000  0.5865290000000  0.4794060000000 1.0
C      1  0.5022820000000  0.4833280000000  0.4149980000000 1.0
C      1  0.4753480000000  0.5269100000000  0.4175040000000 1.0
C      1  0.5226600000000  0.5194090000000  0.5823880000000 1.0
C      1  0.4135330000000  0.4784720000000  0.5102950000000 1.0
C      1  0.5877430000000  0.5222470000000  0.5208180000000 1.0
C      1  0.4114790000000  0.5145450000000  0.4754020000000 1.0
C      1  0.5250760000000  0.5813840000000  0.5155700000000 1.0
C      1  0.4806340000000  0.4195080000000  0.5234090000000 1.0
C      1  0.5202510000000  0.4114750000000  0.4928900000000 1.0
C      1  0.5500480000000  0.4215820000000  0.4743440000000 1.0
C      1  0.4542030000000  0.5474990000000  0.4345730000000 1.0
C      1  0.4291250000000  0.4560290000000  0.5311770000000 1.0
C      1  0.4586420000000  0.4373700000000  0.5428080000000 1.0
C      1  0.5447960000000  0.5607070000000  0.5368640000000 1.0
C      1  0.4691150000000  0.5743300000000  0.4547550000000 1.0
C      1  0.5406180000000  0.5449540000000  0.5667790000000 1.0
C      1  0.4720910000000  0.4511300000000  0.5708640000000 1.0
C      1  0.5396080000000  0.4250100000000  0.4415760000000 1.0
C      1  0.5624100000000  0.4453520000000  0.4533960000000 1.0
C      1  0.4275380000000  0.5348600000000  0.4516290000000 1.0
C      1  0.5682430000000  0.5370860000000  0.5438220000000 1.0
C      1  0.4819220000000  0.5151680000000  0.5498480000000 1.0
C      1  0.5574810000000  0.4788740000000  0.5072540000000 1.0
C      1  0.5071140000000  0.5482970000000  0.4720850000000 1.0
C      1  0.5180940000000  0.5072490000000  0.4427630000000 1.0
C      1  0.4695090000000  0.4925560000000  0.4552110000000 1.0
C      1  0.5175560000000  0.4861600000000  0.5507570000000 1.0
C      1  0.4477690000000  0.4670270000000  0.4932290000000 1.0
C      1  0.5473020000000  0.5225940000000  0.4866040000000 1.0
C      1  0.4433070000000  0.5193200000000  0.5163120000000 1.0
C      1  0.4776660000000  0.5572250000000  0.5194270000000 1.0
C      1  0.5130910000000  0.4501990000000  0.5196020000000 1.0
C      1  0.4886960000000  0.4441990000000  0.4774180000000 1.0
C      1  0.5308420000000  0.4689620000000  0.5725070000000 1.0
C      1  0.5899850000000  0.5298540000000  0.4599720000000 1.0
C      1  0.4684990000000  0.5896950000000  0.5237750000000 1.0
C      1  0.4818520000000  0.4650650000000  0.4151110000000 1.0
C      1  0.5328850000000  0.5265160000000  0.4234810000000 1.0
C      1  0.4683210000000  0.5263250000000  0.5754790000000 1.0
C      1  0.4220780000000  0.5316660000000  0.5354790000000 1.0
C      1  0.5771080000000  0.4641550000000  0.5284660000000 1.0
C      1  0.4119850000000  0.4767130000000  0.4563630000000 1.0
C      1  0.5423770000000  0.5863960000000  0.4790390000000 1.0
C      1  0.4729040000000  0.4231530000000  0.4620030000000 1.0
C      1  0.5355730000000  0.4038050000000  0.5287120000000 1.0
C      1  0.5652610000000  0.4454470000000  0.5433770000000 1.0
C      1  0.5348300000000  0.5622100000000  0.4626890000000 1.0
C      1  0.4534470000000  0.5487390000000  0.5730800000000 1.0
C      1  0.4375800000000  0.4623380000000  0.4618680000000 1.0
C      1  0.5622580000000  0.5420710000000  0.4632370000000 1.0
C      1  0.4298290000000  0.5511700000000  0.5523020000000 1.0
C      1  0.4576030000000  0.5680230000000  0.5467830000000 1.0
C      1  0.5360910000000  0.4306120000000  0.5353340000000 1.0
C      1  0.4524730000000  0.4357430000000  0.4483080000000 1.0
C      1  0.5456170000000  0.5475380000000  0.4353240000000 1.0
C      1  0.4621060000000  0.4653760000000  0.4383380000000 1.0
C      1  0.5426200000000  0.4461270000000  0.5646430000000 1.0
C      1  0.4808660000000  0.4485370000000  0.5086700000000 1.0
C      1  0.5260430000000  0.4778210000000  0.4387210000000 1.0
C      1  0.4388370000000  0.5281000000000  0.4888900000000 1.0
C      1  0.5200950000000  0.4447930000000  0.4867690000000 1.0
C      1  0.4790310000000  0.5574530000000  0.4890700000000 1.0
C      1  0.5070540000000  0.5563640000000  0.5259240000000 1.0
C      1  0.4839460000000  0.4815770000000  0.5482380000000 1.0
C      1  0.5149580000000  0.5183750000000  0.5515380000000 1.0
C      1  0.4881570000000  0.5122510000000  0.4435920000000 1.0
C      1  0.5596950000000  0.5108010000000  0.5149540000000 1.0
C      1  0.4430880000000  0.4898190000000  0.5160370000000 1.0
C      1  0.5641280000000  0.4923920000000  0.4767690000000 1.0
C      1  0.3996900000000  0.4947880000000  0.4918400000000 1.0
C      1  0.4986660000000  0.4028770000000  0.5093640000000 1.0
C      1  0.4941730000000  0.5088610000000  0.4040520000000 1.0
C      1  0.6047210000000  0.5126530000000  0.5020340000000 1.0
C      1  0.5087790000000  0.5970640000000  0.4978580000000 1.0
C      1  0.5075740000000  0.4984240000000  0.5942210000000 1.0
C      1  0.5282240000000  0.4777750000000  0.5230340000000 1.0
C      1  0.5196330000000  0.5194030000000  0.4715250000000 1.0
C      1  0.4699570000000  0.5276990000000  0.5257480000000 1.0
C      1  0.4736690000000  0.4710380000000  0.4765580000000 1.0
END
