TITL C-2622958-629-416 0.00577389970227771 125000 -679.644651172906 0 0 123 (C1) n - 1
REM
REM in /nfs/bkarasulu/CARBON/AIRSS/Generating-Clusters/AIREBO/with-SteepDescent/Higher-Symm/SD-CG/HFTN-CG
REM
REM
REM
REM
REM
REM ./C.cell (b20cbc046b6831c77cfcea5457e17084)
REM
REM compiler GCC version 9.2.1 20190827 (Red Hat 9.2.1-1)
REM options -cpp -mtune=generic -march=x86-64 -g -O0 -fpre-include=/usr/include/finclude/math-vector-fortran.h
REM seed -1359178184 -1580568290 711308655 1480907794 47398082 -471002793 -2058360299 1289649456 2096880970 1328269910 1855155794 20642567 -1446633715 -782450164 1729173653 1579968886 -258459490 1765222220 -383795316 643207769 -2013279967 4705839 1449801847 -1761146456 -905418458 -1376669423 -1060411416 -900233610 -1219315987 -794094744 -1983826059 -1188248328 -1818736418
REM
CELL 1.54180   50.00000   50.00000   50.00000   90.00000   90.00000   90.00000
LATT -1
SFAC C  
C      1  0.5353020000000  0.5088660000000  0.5886100000000 1.0
C      1  0.4803740000000  0.5143260000000  0.5883910000000 1.0
C      1  0.4331090000000  0.5181780000000  0.5675290000000 1.0
C      1  0.4025600000000  0.5168370000000  0.5205750000000 1.0
C      1  0.4113600000000  0.5113120000000  0.4667630000000 1.0
C      1  0.4461130000000  0.5152220000000  0.4243340000000 1.0
C      1  0.5027520000000  0.5172040000000  0.4056750000000 1.0
C      1  0.5531770000000  0.5008510000000  0.4188030000000 1.0
C      1  0.5813550000000  0.5121410000000  0.4630780000000 1.0
C      1  0.5937880000000  0.5188920000000  0.5161460000000 1.0
C      1  0.5801120000000  0.5231560000000  0.5637000000000 1.0
C      1  0.4574470000000  0.5011010000000  0.5563820000000 1.0
C      1  0.4254620000000  0.4918810000000  0.5235600000000 1.0
C      1  0.4353440000000  0.4958820000000  0.4852790000000 1.0
C      1  0.4512640000000  0.4923700000000  0.4489810000000 1.0
C      1  0.4931800000000  0.5010860000000  0.4318670000000 1.0
C      1  0.5345300000000  0.4735500000000  0.4169330000000 1.0
C      1  0.5526990000000  0.4955820000000  0.4654050000000 1.0
C      1  0.5686000000000  0.5018660000000  0.5014780000000 1.0
C      1  0.5702370000000  0.4691720000000  0.5481270000000 1.0
C      1  0.5334910000000  0.5020450000000  0.5551610000000 1.0
C      1  0.4916690000000  0.4891510000000  0.5683060000000 1.0
C      1  0.4998230000000  0.5887130000000  0.4503220000000 1.0
C      1  0.5217410000000  0.6016120000000  0.4611490000000 1.0
C      1  0.5394280000000  0.5917610000000  0.4797330000000 1.0
C      1  0.5410390000000  0.5783290000000  0.5062660000000 1.0
C      1  0.5290110000000  0.5777160000000  0.5307720000000 1.0
C      1  0.5064950000000  0.5918290000000  0.5410300000000 1.0
C      1  0.4800740000000  0.5808140000000  0.5422500000000 1.0
C      1  0.4617590000000  0.5911650000000  0.5237880000000 1.0
C      1  0.4490990000000  0.5875070000000  0.4992860000000 1.0
C      1  0.4552370000000  0.6024190000000  0.4766850000000 1.0
C      1  0.4715770000000  0.5956890000000  0.4555470000000 1.0
C      1  0.5590650000000  0.4202850000000  0.5504230000000 1.0
C      1  0.5126800000000  0.3979830000000  0.5169060000000 1.0
C      1  0.5008870000000  0.4263240000000  0.5715190000000 1.0
C      1  0.4481010000000  0.4259760000000  0.5542140000000 1.0
C      1  0.4695020000000  0.3928860000000  0.5019340000000 1.0
C      1  0.4176160000000  0.4269520000000  0.4869180000000 1.0
C      1  0.4555990000000  0.4153440000000  0.4368670000000 1.0
C      1  0.5249200000000  0.4011610000000  0.4260490000000 1.0
C      1  0.5154730000000  0.3921070000000  0.4713010000000 1.0
C      1  0.5529690000000  0.4287350000000  0.4784520000000 1.0
C      1  0.5811560000000  0.4014030000000  0.5059000000000 1.0
C      1  0.5608420000000  0.5533220000000  0.5013230000000 1.0
C      1  0.5377700000000  0.5540230000000  0.5469260000000 1.0
C      1  0.5143810000000  0.5506230000000  0.5791180000000 1.0
C      1  0.4702860000000  0.5549340000000  0.5558610000000 1.0
C      1  0.4375940000000  0.5528920000000  0.5292580000000 1.0
C      1  0.4346970000000  0.5607580000000  0.4974930000000 1.0
C      1  0.4410490000000  0.5534110000000  0.4585840000000 1.0
C      1  0.4675990000000  0.5663220000000  0.4443020000000 1.0
C      1  0.4999530000000  0.5576510000000  0.4391740000000 1.0
C      1  0.5439250000000  0.5449930000000  0.4481090000000 1.0
C      1  0.5556460000000  0.5660970000000  0.4712380000000 1.0
C      1  0.5995960000000  0.5046560000000  0.4870550000000 1.0
C      1  0.5959820000000  0.5097290000000  0.5441600000000 1.0
C      1  0.5675400000000  0.5057130000000  0.5821470000000 1.0
C      1  0.5087140000000  0.5014950000000  0.6021170000000 1.0
C      1  0.4504710000000  0.5105510000000  0.5938330000000 1.0
C      1  0.4072160000000  0.5101700000000  0.5538080000000 1.0
C      1  0.3967190000000  0.5000590000000  0.4942540000000 1.0
C      1  0.4159600000000  0.5059480000000  0.4370350000000 1.0
C      1  0.4709180000000  0.5053670000000  0.4063840000000 1.0
C      1  0.5271240000000  0.5021330000000  0.3969940000000 1.0
C      1  0.5779980000000  0.4967740000000  0.4338230000000 1.0
C      1  0.4961560000000  0.4356410000000  0.5448350000000 1.0
C      1  0.4681800000000  0.4267330000000  0.5352990000000 1.0
C      1  0.4627200000000  0.4187850000000  0.5091010000000 1.0
C      1  0.4470390000000  0.4342490000000  0.4888630000000 1.0
C      1  0.4625010000000  0.4379780000000  0.4613530000000 1.0
C      1  0.4855870000000  0.4189730000000  0.4461760000000 1.0
C      1  0.5139220000000  0.4114480000000  0.4503520000000 1.0
C      1  0.5294340000000  0.4361950000000  0.4582300000000 1.0
C      1  0.5610910000000  0.4196990000000  0.5021110000000 1.0
C      1  0.5468750000000  0.4305880000000  0.5267030000000 1.0
C      1  0.5174180000000  0.4223340000000  0.5260580000000 1.0
C      1  0.4450610000000  0.5164420000000  0.5105710000000 1.0
C      1  0.4491800000000  0.5333220000000  0.4835790000000 1.0
C      1  0.4650640000000  0.5179050000000  0.4625880000000 1.0
C      1  0.4895320000000  0.5202910000000  0.4541070000000 1.0
C      1  0.5149940000000  0.5363730000000  0.4598410000000 1.0
C      1  0.5356350000000  0.5184430000000  0.4768420000000 1.0
C      1  0.5467090000000  0.5259330000000  0.5051760000000 1.0
C      1  0.5358080000000  0.5244960000000  0.5326160000000 1.0
C      1  0.5102210000000  0.5342200000000  0.5504200000000 1.0
C      1  0.4867190000000  0.5168510000000  0.5491840000000 1.0
C      1  0.4619820000000  0.5310460000000  0.5330570000000 1.0
C      1  0.4287260000000  0.4794650000000  0.4267360000000 1.0
C      1  0.4624140000000  0.4950510000000  0.3793590000000 1.0
C      1  0.5267160000000  0.4712680000000  0.3852090000000 1.0
C      1  0.5762040000000  0.4735400000000  0.4543010000000 1.0
C      1  0.6282250000000  0.4985690000000  0.4814210000000 1.0
C      1  0.5957100000000  0.4810990000000  0.5457590000000 1.0
C      1  0.5556260000000  0.4811470000000  0.5684930000000 1.0
C      1  0.4930810000000  0.4748890000000  0.5991390000000 1.0
C      1  0.4398060000000  0.5084100000000  0.6175640000000 1.0
C      1  0.3977800000000  0.4829480000000  0.5411640000000 1.0
C      1  0.4109770000000  0.4728520000000  0.4915910000000 1.0
C      1  0.5333350000000  0.5397010000000  0.5947550000000 1.0
C      1  0.4855300000000  0.5442260000000  0.5800730000000 1.0
C      1  0.4383490000000  0.5474970000000  0.5606930000000 1.0
C      1  0.4096360000000  0.5451340000000  0.5144160000000 1.0
C      1  0.4130670000000  0.5426690000000  0.4691710000000 1.0
C      1  0.4476310000000  0.5448670000000  0.4279310000000 1.0
C      1  0.5047290000000  0.5456900000000  0.4103890000000 1.0
C      1  0.5456770000000  0.5325140000000  0.4194650000000 1.0
C      1  0.5747970000000  0.5410310000000  0.4606950000000 1.0
C      1  0.5893180000000  0.5494460000000  0.5123840000000 1.0
C      1  0.5666590000000  0.5480580000000  0.5598510000000 1.0
C      1  0.5406390000000  0.4658740000000  0.4707170000000 1.0
C      1  0.5552720000000  0.4741580000000  0.4989670000000 1.0
C      1  0.5498400000000  0.4608520000000  0.5257080000000 1.0
C      1  0.5267580000000  0.4747910000000  0.5415480000000 1.0
C      1  0.4976950000000  0.4666160000000  0.5441060000000 1.0
C      1  0.4687170000000  0.4792660000000  0.5371540000000 1.0
C      1  0.4521510000000  0.4776260000000  0.5164890000000 1.0
C      1  0.4522970000000  0.4664260000000  0.4872450000000 1.0
C      1  0.4690070000000  0.4682370000000  0.4576890000000 1.0
C      1  0.4946880000000  0.4738530000000  0.4434550000000 1.0
C      1  0.5224090000000  0.4638560000000  0.4420860000000 1.0
C      1  0.4781640000000  0.3693520000000  0.4943110000000 1.0
C      1  0.5099590000000  0.6175830000000  0.5488170000000 1.0
END
