TITL C-2622964-2985-686 0.00256018099449795 125000 -542.523564675031 0 0 108 (C1) n - 1
REM
REM in /nfs/bkarasulu/CARBON/AIRSS/Generating-Clusters/AIREBO/with-SteepDescent/Higher-Symm/SD-CG/HFTN-CG
REM
REM
REM
REM
REM
REM ./C.cell (b20cbc046b6831c77cfcea5457e17084)
REM
REM compiler GCC version 9.2.1 20190827 (Red Hat 9.2.1-1)
REM options -cpp -mtune=generic -march=x86-64 -g -O0 -fpre-include=/usr/include/finclude/math-vector-fortran.h
REM seed -1709379529 -1426421843 -1032266837 -745395623 -1886699492 2113185856 -972527005 -1482367897 1758833535 -1062481577 2137245297 298691188 -1402098443 -556109807 757749457 736957902 -932034626 880866437 -671043092 -1210178264 1103827774 -1633704415 -1595852944 -2141973290 -1343208412 -1607276838 -328117941 -1954061749 761438137 604649375 -1834480303 -30868622 1650929512
REM
CELL 1.54180   50.00000   50.00000   50.00000   90.00000   90.00000   90.00000
LATT -1
SFAC C  
C      1  0.4405130000000  0.4455520000000  0.4704000000000 1.0
C      1  0.5500120000000  0.4470570000000  0.4687740000000 1.0
C      1  0.5592670000000  0.5578220000000  0.4683120000000 1.0
C      1  0.4441110000000  0.5610590000000  0.4654800000000 1.0
C      1  0.5582060000000  0.4451050000000  0.5309000000000 1.0
C      1  0.4414070000000  0.4366760000000  0.5343710000000 1.0
C      1  0.4415730000000  0.5516610000000  0.5278030000000 1.0
C      1  0.5567970000000  0.5596390000000  0.5322290000000 1.0
C      1  0.4206260000000  0.5304210000000  0.5175400000000 1.0
C      1  0.4632910000000  0.4159890000000  0.5265770000000 1.0
C      1  0.5774950000000  0.4670820000000  0.5215740000000 1.0
C      1  0.5337920000000  0.5804380000000  0.5240220000000 1.0
C      1  0.5794170000000  0.5340120000000  0.4750680000000 1.0
C      1  0.5306660000000  0.4231170000000  0.4752220000000 1.0
C      1  0.4187050000000  0.4668720000000  0.4792360000000 1.0
C      1  0.4686880000000  0.5778080000000  0.4761470000000 1.0
C      1  0.4895310000000  0.5443180000000  0.5267260000000 1.0
C      1  0.4533680000000  0.4791900000000  0.5283070000000 1.0
C      1  0.5180600000000  0.4486620000000  0.5159370000000 1.0
C      1  0.5474520000000  0.5210690000000  0.5280130000000 1.0
C      1  0.5204190000000  0.5498840000000  0.4732960000000 1.0
C      1  0.5521460000000  0.4865910000000  0.4763950000000 1.0
C      1  0.4831740000000  0.4515140000000  0.4751950000000 1.0
C      1  0.4507140000000  0.5123860000000  0.4675660000000 1.0
C      1  0.5362570000000  0.4562020000000  0.5543130000000 1.0
C      1  0.5373100000000  0.5411090000000  0.5532060000000 1.0
C      1  0.4628130000000  0.5363620000000  0.5462020000000 1.0
C      1  0.4599590000000  0.4579220000000  0.5520170000000 1.0
C      1  0.4614850000000  0.4609410000000  0.4494360000000 1.0
C      1  0.4591500000000  0.5380150000000  0.4521620000000 1.0
C      1  0.5407230000000  0.5393130000000  0.4471570000000 1.0
C      1  0.5358010000000  0.4598430000000  0.4447450000000 1.0
C      1  0.5431330000000  0.4961790000000  0.4218930000000 1.0
C      1  0.5055400000000  0.5419540000000  0.4285670000000 1.0
C      1  0.4549980000000  0.5024820000000  0.4291290000000 1.0
C      1  0.4944680000000  0.4567240000000  0.4247110000000 1.0
C      1  0.4533390000000  0.4966680000000  0.5706740000000 1.0
C      1  0.4967540000000  0.5451880000000  0.5739970000000 1.0
C      1  0.5456150000000  0.5057910000000  0.5754900000000 1.0
C      1  0.5022670000000  0.4618840000000  0.5739380000000 1.0
C      1  0.4262730000000  0.5069140000000  0.4469470000000 1.0
C      1  0.4918090000000  0.4341340000000  0.4472430000000 1.0
C      1  0.5665500000000  0.4946160000000  0.4466420000000 1.0
C      1  0.5084450000000  0.5695380000000  0.4482310000000 1.0
C      1  0.5690970000000  0.5084840000000  0.5510460000000 1.0
C      1  0.5092940000000  0.4348630000000  0.5542670000000 1.0
C      1  0.4294930000000  0.4900030000000  0.5487660000000 1.0
C      1  0.4948380000000  0.5674440000000  0.5511170000000 1.0
C      1  0.4737140000000  0.5301990000000  0.4221120000000 1.0
C      1  0.4649150000000  0.4718800000000  0.4174230000000 1.0
C      1  0.5251820000000  0.4684720000000  0.4129780000000 1.0
C      1  0.5340410000000  0.5287910000000  0.4155060000000 1.0
C      1  0.5274060000000  0.5331000000000  0.5852790000000 1.0
C      1  0.5320870000000  0.4750210000000  0.5837510000000 1.0
C      1  0.4700230000000  0.4693800000000  0.5824060000000 1.0
C      1  0.4679390000000  0.5271870000000  0.5785440000000 1.0
C      1  0.5608210000000  0.5161990000000  0.4908750000000 1.0
C      1  0.4919930000000  0.5595730000000  0.4898410000000 1.0
C      1  0.4385440000000  0.4862290000000  0.4938880000000 1.0
C      1  0.5058120000000  0.4322110000000  0.4916690000000 1.0
C      1  0.4442210000000  0.5182810000000  0.4994590000000 1.0
C      1  0.5163020000000  0.5586280000000  0.5117230000000 1.0
C      1  0.5628680000000  0.4940860000000  0.5139790000000 1.0
C      1  0.4816220000000  0.4380690000000  0.5123510000000 1.0
C      1  0.4880590000000  0.4766260000000  0.5478640000000 1.0
C      1  0.5264460000000  0.4887420000000  0.5531540000000 1.0
C      1  0.5119530000000  0.5190430000000  0.5584460000000 1.0
C      1  0.4809880000000  0.5074850000000  0.5540870000000 1.0
C      1  0.5105620000000  0.4822280000000  0.4404260000000 1.0
C      1  0.4788960000000  0.4901510000000  0.4499450000000 1.0
C      1  0.4893850000000  0.5224710000000  0.4512920000000 1.0
C      1  0.5293940000000  0.5092230000000  0.4489600000000 1.0
C      1  0.5149950000000  0.4166370000000  0.4511210000000 1.0
C      1  0.5853000000000  0.5181080000000  0.4510510000000 1.0
C      1  0.4853620000000  0.5861260000000  0.4534680000000 1.0
C      1  0.4085650000000  0.4823260000000  0.4562710000000 1.0
C      1  0.4872070000000  0.4173850000000  0.5460910000000 1.0
C      1  0.4115870000000  0.5131270000000  0.5379240000000 1.0
C      1  0.5166590000000  0.5869000000000  0.5468490000000 1.0
C      1  0.5856350000000  0.4848230000000  0.5453760000000 1.0
C      1  0.4190050000000  0.4614220000000  0.5377050000000 1.0
C      1  0.5328450000000  0.4231660000000  0.5327850000000 1.0
C      1  0.5802350000000  0.5356290000000  0.5338550000000 1.0
C      1  0.4675420000000  0.5732620000000  0.5316780000000 1.0
C      1  0.5767330000000  0.4666340000000  0.4639870000000 1.0
C      1  0.4657450000000  0.4234480000000  0.4671130000000 1.0
C      1  0.4202420000000  0.5372120000000  0.4612380000000 1.0
C      1  0.5344930000000  0.5803750000000  0.4679180000000 1.0
C      1  0.4249660000000  0.4480460000000  0.5068660000000 1.0
C      1  0.5493730000000  0.4273030000000  0.5033060000000 1.0
C      1  0.5755040000000  0.5513540000000  0.5040800000000 1.0
C      1  0.4494260000000  0.5736110000000  0.5029070000000 1.0
C      1  0.5741970000000  0.4492460000000  0.4931060000000 1.0
C      1  0.4493750000000  0.4250160000000  0.4968830000000 1.0
C      1  0.4244750000000  0.5520790000000  0.4917440000000 1.0
C      1  0.5529220000000  0.5761940000000  0.4962210000000 1.0
C      1  0.5042270000000  0.5219960000000  0.4793870000000 1.0
C      1  0.4735250000000  0.4967600000000  0.4828610000000 1.0
C      1  0.4997560000000  0.4785360000000  0.4839730000000 1.0
C      1  0.5219790000000  0.4960560000000  0.4760200000000 1.0
C      1  0.4999020000000  0.5162920000000  0.5105000000000 1.0
C      1  0.5242580000000  0.4995410000000  0.5230410000000 1.0
C      1  0.5018350000000  0.4769960000000  0.5175650000000 1.0
C      1  0.4745150000000  0.4971400000000  0.5147530000000 1.0
C      1  0.5377070000000  0.5372250000000  0.4997160000000 1.0
C      1  0.4680660000000  0.5383420000000  0.5009590000000 1.0
C      1  0.5417360000000  0.4694440000000  0.5038500000000 1.0
C      1  0.4620910000000  0.4624750000000  0.5000010000000 1.0
END
