TITL C-2622960-5345-444 0.000782345609870188 125000 -604.399543130242 0 0 117 (C1) n - 1
REM
REM in /nfs/bkarasulu/CARBON/AIRSS/Generating-Clusters/AIREBO/with-SteepDescent/Higher-Symm/SD-CG/HFTN-CG
REM
REM
REM
REM
REM
REM ./C.cell (b20cbc046b6831c77cfcea5457e17084)
REM
REM compiler GCC version 9.2.1 20190827 (Red Hat 9.2.1-1)
REM options -cpp -mtune=generic -march=x86-64 -g -O0 -fpre-include=/usr/include/finclude/math-vector-fortran.h
REM seed -1290418568 123122204 514398202 1411889729 847483657 66638865 1550618696 -586460890 -1896329128 -1656435708 905444232 -1443168863 268614686 551752628 -364183280 1627771301 -2011127151 -1528874184 -1792697389 1301420806 -743017770 114193544 -892065347 828755127 419117801 947303826 535366374 2077571566 -1221332868 -1016566215 1906302479 -1044935893 1112727541
REM
CELL 1.54180   50.00000   50.00000   50.00000   90.00000   90.00000   90.00000
LATT -1
SFAC C  
C      1  0.5175270000000  0.4439580000000  0.5679980000000 1.0
C      1  0.4941200000000  0.4412350000000  0.4422010000000 1.0
C      1  0.4779460000000  0.4461560000000  0.5662870000000 1.0
C      1  0.5140430000000  0.4506230000000  0.4234190000000 1.0
C      1  0.5309860000000  0.4745940000000  0.4693060000000 1.0
C      1  0.4750680000000  0.4662360000000  0.5253880000000 1.0
C      1  0.4724070000000  0.4711020000000  0.4737820000000 1.0
C      1  0.5228750000000  0.4703610000000  0.5328750000000 1.0
C      1  0.4585020000000  0.5871640000000  0.5330520000000 1.0
C      1  0.5447220000000  0.5813110000000  0.4680500000000 1.0
C      1  0.5431280000000  0.5794660000000  0.5299420000000 1.0
C      1  0.4646350000000  0.5830550000000  0.4780370000000 1.0
C      1  0.5403380000000  0.4585310000000  0.5760450000000 1.0
C      1  0.4689850000000  0.4544220000000  0.4365980000000 1.0
C      1  0.4531030000000  0.4596670000000  0.5742570000000 1.0
C      1  0.5418980000000  0.4627000000000  0.4328100000000 1.0
C      1  0.4719270000000  0.5555910000000  0.4317490000000 1.0
C      1  0.5256330000000  0.5515990000000  0.5638360000000 1.0
C      1  0.5250700000000  0.5548720000000  0.4317880000000 1.0
C      1  0.4718550000000  0.5507920000000  0.5694780000000 1.0
C      1  0.4257080000000  0.5406370000000  0.5126830000000 1.0
C      1  0.5776640000000  0.5415140000000  0.4890700000000 1.0
C      1  0.5765240000000  0.5395540000000  0.5142910000000 1.0
C      1  0.4259330000000  0.5401590000000  0.4873480000000 1.0
C      1  0.5511270000000  0.4523480000000  0.5382910000000 1.0
C      1  0.4450700000000  0.4556800000000  0.4607030000000 1.0
C      1  0.4474650000000  0.4514260000000  0.5358220000000 1.0
C      1  0.5501600000000  0.4489580000000  0.4608820000000 1.0
C      1  0.4775190000000  0.5742600000000  0.4519810000000 1.0
C      1  0.5217210000000  0.5705250000000  0.5440160000000 1.0
C      1  0.5227920000000  0.5737530000000  0.4522960000000 1.0
C      1  0.4745740000000  0.5735400000000  0.5540450000000 1.0
C      1  0.4766480000000  0.4841730000000  0.4322410000000 1.0
C      1  0.5309310000000  0.4886890000000  0.5838690000000 1.0
C      1  0.5302890000000  0.4946450000000  0.4317250000000 1.0
C      1  0.4766780000000  0.4853470000000  0.5741610000000 1.0
C      1  0.5724250000000  0.4557000000000  0.5154690000000 1.0
C      1  0.4210990000000  0.4537130000000  0.4837680000000 1.0
C      1  0.4256360000000  0.4599440000000  0.5139320000000 1.0
C      1  0.5711210000000  0.4548200000000  0.4840840000000 1.0
C      1  0.4477500000000  0.5000680000000  0.4853040000000 1.0
C      1  0.5539040000000  0.4991580000000  0.5172170000000 1.0
C      1  0.5518620000000  0.5036750000000  0.4865160000000 1.0
C      1  0.4520150000000  0.5058890000000  0.5159280000000 1.0
C      1  0.5551400000000  0.5421840000000  0.5644700000000 1.0
C      1  0.4478920000000  0.5417850000000  0.4366410000000 1.0
C      1  0.4437200000000  0.5400000000000  0.5679060000000 1.0
C      1  0.5482260000000  0.5392440000000  0.4336810000000 1.0
C      1  0.4262320000000  0.5153470000000  0.4364130000000 1.0
C      1  0.5706350000000  0.5115600000000  0.5646290000000 1.0
C      1  0.5624810000000  0.5167530000000  0.4164810000000 1.0
C      1  0.4282440000000  0.5096250000000  0.5662080000000 1.0
C      1  0.5839920000000  0.4848940000000  0.5201960000000 1.0
C      1  0.4188860000000  0.4849980000000  0.4837310000000 1.0
C      1  0.4234600000000  0.4904460000000  0.5152970000000 1.0
C      1  0.5771950000000  0.4844130000000  0.4884470000000 1.0
C      1  0.4721650000000  0.5505910000000  0.5214300000000 1.0
C      1  0.5286740000000  0.5472900000000  0.4816180000000 1.0
C      1  0.5302570000000  0.5446200000000  0.5148090000000 1.0
C      1  0.4759910000000  0.5414930000000  0.4827970000000 1.0
C      1  0.4854030000000  0.5165420000000  0.3989520000000 1.0
C      1  0.5243470000000  0.5188040000000  0.5932250000000 1.0
C      1  0.5226720000000  0.5151590000000  0.4132050000000 1.0
C      1  0.4857420000000  0.5099710000000  0.5957910000000 1.0
C      1  0.5214670000000  0.5070280000000  0.4730120000000 1.0
C      1  0.4791030000000  0.4951130000000  0.5228670000000 1.0
C      1  0.4799440000000  0.5026300000000  0.4746150000000 1.0
C      1  0.5216230000000  0.5027260000000  0.5235670000000 1.0
C      1  0.4383410000000  0.4790260000000  0.5535980000000 1.0
C      1  0.5665610000000  0.4832580000000  0.4211260000000 1.0
C      1  0.5591070000000  0.4795120000000  0.5572640000000 1.0
C      1  0.4315020000000  0.4823090000000  0.4442590000000 1.0
C      1  0.5544520000000  0.5309990000000  0.4665600000000 1.0
C      1  0.4493890000000  0.5317330000000  0.5354060000000 1.0
C      1  0.4495840000000  0.5271610000000  0.4666610000000 1.0
C      1  0.5512260000000  0.5279530000000  0.5338280000000 1.0
C      1  0.4677470000000  0.4235590000000  0.5315870000000 1.0
C      1  0.5414510000000  0.4229820000000  0.4773730000000 1.0
C      1  0.5315710000000  0.4250550000000  0.5319430000000 1.0
C      1  0.4597160000000  0.4269400000000  0.4714810000000 1.0
C      1  0.5388490000000  0.5069560000000  0.5575600000000 1.0
C      1  0.4562080000000  0.5033630000000  0.4432620000000 1.0
C      1  0.4592140000000  0.5058210000000  0.5551420000000 1.0
C      1  0.5580450000000  0.5031780000000  0.4473380000000 1.0
C      1  0.5297900000000  0.4630200000000  0.5004040000000 1.0
C      1  0.4624730000000  0.4557100000000  0.4991040000000 1.0
C      1  0.4999630000000  0.5645090000000  0.4755920000000 1.0
C      1  0.4959410000000  0.5736780000000  0.5290300000000 1.0
C      1  0.4866830000000  0.4895910000000  0.4041390000000 1.0
C      1  0.4910520000000  0.4769830000000  0.6038300000000 1.0
C      1  0.4981210000000  0.5101160000000  0.5470050000000 1.0
C      1  0.4987100000000  0.5133070000000  0.4483490000000 1.0
C      1  0.4991890000000  0.4468650000000  0.5394940000000 1.0
C      1  0.4935900000000  0.4287420000000  0.4738680000000 1.0
C      1  0.5050550000000  0.4802710000000  0.4486410000000 1.0
C      1  0.5079180000000  0.4820820000000  0.5611340000000 1.0
C      1  0.5384200000000  0.4343510000000  0.5037450000000 1.0
C      1  0.4603110000000  0.4270720000000  0.5026500000000 1.0
C      1  0.5167930000000  0.4042240000000  0.4721360000000 1.0
C      1  0.4999040000000  0.4130840000000  0.5357120000000 1.0
C      1  0.5029970000000  0.4654230000000  0.4006340000000 1.0
C      1  0.4964230000000  0.4499270000000  0.5902280000000 1.0
C      1  0.4610780000000  0.5779670000000  0.5049230000000 1.0
C      1  0.5443430000000  0.5716030000000  0.4994890000000 1.0
C      1  0.4997260000000  0.5315390000000  0.5735140000000 1.0
C      1  0.4979530000000  0.5359100000000  0.4239320000000 1.0
C      1  0.5039720000000  0.6120290000000  0.4962500000000 1.0
C      1  0.5083560000000  0.4080130000000  0.5043710000000 1.0
C      1  0.4992030000000  0.4698600000000  0.4927200000000 1.0
C      1  0.4981630000000  0.4395660000000  0.5059370000000 1.0
C      1  0.5048650000000  0.3526870000000  0.4925250000000 1.0
C      1  0.5053770000000  0.6382710000000  0.4919270000000 1.0
C      1  0.4999450000000  0.5860240000000  0.5003810000000 1.0
C      1  0.5081910000000  0.3776770000000  0.4904340000000 1.0
C      1  0.5004280000000  0.5034770000000  0.4994910000000 1.0
C      1  0.4995500000000  0.5366660000000  0.5068500000000 1.0
C      1  0.5086500000000  0.6635940000000  0.4860210000000 1.0
END
