TITL C-2622957-9142-654 0.000105900376630422 125000 -500.112278031287 0 0 89 (C1) n - 1
REM
REM in /nfs/bkarasulu/CARBON/AIRSS/Generating-Clusters/AIREBO/with-SteepDescent/Higher-Symm/SD-CG/HFTN-CG
REM
REM
REM
REM
REM
REM ./C.cell (b20cbc046b6831c77cfcea5457e17084)
REM
REM compiler GCC version 9.2.1 20190827 (Red Hat 9.2.1-1)
REM options -cpp -mtune=generic -march=x86-64 -g -O0 -fpre-include=/usr/include/finclude/math-vector-fortran.h
REM seed -1721627110 -1841291909 1590770190 900911938 1144014472 1548635586 -1245864313 -421153776 -1418116756 526931944 -1677792276 874094279 2089033841 -634712603 13432076 519927843 2030440396 945963175 -1734480221 -2129497368 -319614545 163497431 877403796 -659409893 -2107943083 -561220868 -442482538 2816793 1955748924 -740355337 97978210 1530755603 -531752960
REM
CELL 1.54180   50.00000   50.00000   50.00000   90.00000   90.00000   90.00000
LATT -1
SFAC C  
C      1  0.4659960000000  0.4866350000000  0.4965000000000 1.0
C      1  0.4945040000000  0.4784210000000  0.4698430000000 1.0
C      1  0.5249620000000  0.4750950000000  0.4811580000000 1.0
C      1  0.5275930000000  0.4822950000000  0.5203530000000 1.0
C      1  0.4921660000000  0.4743180000000  0.5368660000000 1.0
C      1  0.5378700000000  0.5273830000000  0.4946140000000 1.0
C      1  0.5163100000000  0.5325720000000  0.4615330000000 1.0
C      1  0.4725930000000  0.5186570000000  0.4857370000000 1.0
C      1  0.4801890000000  0.5283860000000  0.5235830000000 1.0
C      1  0.5114580000000  0.5310810000000  0.5243020000000 1.0
C      1  0.4416830000000  0.4516470000000  0.5290780000000 1.0
C      1  0.4519490000000  0.4434550000000  0.4548310000000 1.0
C      1  0.5351290000000  0.4438720000000  0.4475270000000 1.0
C      1  0.5684440000000  0.4469370000000  0.5101430000000 1.0
C      1  0.5226890000000  0.4455450000000  0.5617620000000 1.0
C      1  0.5649760000000  0.5564150000000  0.5306480000000 1.0
C      1  0.5574670000000  0.5470320000000  0.4555260000000 1.0
C      1  0.4687750000000  0.5473790000000  0.4438450000000 1.0
C      1  0.4369980000000  0.5515200000000  0.5108650000000 1.0
C      1  0.4841590000000  0.5493770000000  0.5648290000000 1.0
C      1  0.5354540000000  0.4690230000000  0.4353430000000 1.0
C      1  0.5753370000000  0.4741880000000  0.5164870000000 1.0
C      1  0.5156540000000  0.4693910000000  0.5753860000000 1.0
C      1  0.4272320000000  0.4747600000000  0.5342820000000 1.0
C      1  0.4406210000000  0.4647080000000  0.4405650000000 1.0
C      1  0.4679530000000  0.5172610000000  0.4406030000000 1.0
C      1  0.4278220000000  0.5256150000000  0.5102860000000 1.0
C      1  0.4885670000000  0.5230360000000  0.5749660000000 1.0
C      1  0.5681430000000  0.5284270000000  0.5333290000000 1.0
C      1  0.5521150000000  0.5178930000000  0.4516310000000 1.0
C      1  0.4412510000000  0.5107240000000  0.4536240000000 1.0
C      1  0.5262470000000  0.5162690000000  0.4333860000000 1.0
C      1  0.5659190000000  0.5176750000000  0.5074340000000 1.0
C      1  0.5157720000000  0.5162080000000  0.5710150000000 1.0
C      1  0.4221000000000  0.5142230000000  0.5343100000000 1.0
C      1  0.5598240000000  0.4815580000000  0.4369320000000 1.0
C      1  0.4571460000000  0.4743150000000  0.4191020000000 1.0
C      1  0.4085650000000  0.4800210000000  0.5131510000000 1.0
C      1  0.4882240000000  0.4776080000000  0.5680650000000 1.0
C      1  0.5561640000000  0.4828880000000  0.5363470000000 1.0
C      1  0.5782310000000  0.5602950000000  0.4471470000000 1.0
C      1  0.5743790000000  0.5775740000000  0.5447470000000 1.0
C      1  0.4654590000000  0.5659510000000  0.5747910000000 1.0
C      1  0.4225990000000  0.5742500000000  0.5152500000000 1.0
C      1  0.4628670000000  0.5658380000000  0.4267070000000 1.0
C      1  0.4416600000000  0.4181660000000  0.4553290000000 1.0
C      1  0.4389600000000  0.4280910000000  0.5426550000000 1.0
C      1  0.5378150000000  0.4247700000000  0.5708450000000 1.0
C      1  0.5826570000000  0.4244030000000  0.5056400000000 1.0
C      1  0.5422580000000  0.4206050000000  0.4349450000000 1.0
C      1  0.4779420000000  0.4285230000000  0.5041200000000 1.0
C      1  0.4795930000000  0.4066480000000  0.4503540000000 1.0
C      1  0.5137570000000  0.4198530000000  0.4850390000000 1.0
C      1  0.5171360000000  0.4033330000000  0.5089570000000 1.0
C      1  0.4985330000000  0.4228590000000  0.5218580000000 1.0
C      1  0.5378200000000  0.5829080000000  0.5185090000000 1.0
C      1  0.5140300000000  0.5829330000000  0.4744790000000 1.0
C      1  0.4861980000000  0.5752550000000  0.4817200000000 1.0
C      1  0.4794830000000  0.5825590000000  0.5112450000000 1.0
C      1  0.5111030000000  0.5797340000000  0.5354820000000 1.0
C      1  0.5014550000000  0.5558010000000  0.5433550000000 1.0
C      1  0.4665830000000  0.5517980000000  0.5072260000000 1.0
C      1  0.4720450000000  0.5493220000000  0.4736930000000 1.0
C      1  0.5335900000000  0.5599890000000  0.4721360000000 1.0
C      1  0.5479290000000  0.5577000000000  0.5022110000000 1.0
C      1  0.5124880000000  0.4472700000000  0.5323120000000 1.0
C      1  0.5373510000000  0.4512340000000  0.5105220000000 1.0
C      1  0.5312590000000  0.4440010000000  0.4778600000000 1.0
C      1  0.4736340000000  0.4542370000000  0.4745400000000 1.0
C      1  0.4598970000000  0.4544890000000  0.5058640000000 1.0
C      1  0.5332710000000  0.4916530000000  0.5746870000000 1.0
C      1  0.4457890000000  0.4982170000000  0.5495260000000 1.0
C      1  0.4281720000000  0.4844290000000  0.4572440000000 1.0
C      1  0.5108720000000  0.4876260000000  0.4316480000000 1.0
C      1  0.5767590000000  0.4944710000000  0.4967800000000 1.0
C      1  0.4706020000000  0.4998290000000  0.5729880000000 1.0
C      1  0.5560730000000  0.5088730000000  0.5561780000000 1.0
C      1  0.5728450000000  0.4939860000000  0.4648100000000 1.0
C      1  0.4782000000000  0.4913760000000  0.4230100000000 1.0
C      1  0.4177740000000  0.4826000000000  0.4862340000000 1.0
C      1  0.5418870000000  0.4990190000000  0.4778750000000 1.0
C      1  0.5262930000000  0.5091540000000  0.5394540000000 1.0
C      1  0.4952560000000  0.5065920000000  0.4552730000000 1.0
C      1  0.4729250000000  0.5019380000000  0.5333350000000 1.0
C      1  0.4405630000000  0.5073590000000  0.4875250000000 1.0
C      1  0.4982140000000  0.4784290000000  0.5036570000000 1.0
C      1  0.5041840000000  0.5234670000000  0.4919670000000 1.0
C      1  0.5102090000000  0.5960420000000  0.5056210000000 1.0
C      1  0.4850320000000  0.4222860000000  0.4721650000000 1.0
END
