TITL C-2622953-3516-147 -0.000373508066927723 125000 -115.749233933787 0 0 23 (C1) n - 1
REM
REM in /nfs/bkarasulu/CARBON/AIRSS/Generating-Clusters/AIREBO/with-SteepDescent/Higher-Symm/SD-CG/HFTN-CG
REM
REM
REM
REM
REM
REM ./C.cell (b20cbc046b6831c77cfcea5457e17084)
REM
REM compiler GCC version 9.2.1 20190827 (Red Hat 9.2.1-1)
REM options -cpp -mtune=generic -march=x86-64 -g -O0 -fpre-include=/usr/include/finclude/math-vector-fortran.h
REM seed -1064114514 858224686 997828693 -1461569925 278498537 -1555819232 701461582 -532707817 -186505854 -1175184948 1805044821 755977397 366654389 856715499 -1061815922 -822451441 -579221931 31618145 -744845980 1175448038 -1809886819 -981005376 -2141096898 -47252360 -1831200259 -924008136 -372298919 286153015 -171828851 -1445112130 -853411165 -1190985915 779723944
REM
CELL 1.54180   50.00000   50.00000   50.00000   90.00000   90.00000   90.00000
LATT -1
SFAC C  
C      1  0.4366540000000  0.4825130000000  0.5127720000000 1.0
C      1  0.4253170000000  0.4804460000000  0.4846300000000 1.0
C      1  0.4197360000000  0.5109320000000  0.4741820000000 1.0
C      1  0.4292550000000  0.5281940000000  0.4960850000000 1.0
C      1  0.4372180000000  0.5106400000000  0.5206340000000 1.0
C      1  0.5723920000000  0.4834490000000  0.5215250000000 1.0
C      1  0.5669210000000  0.4739280000000  0.4956320000000 1.0
C      1  0.5464230000000  0.4883990000000  0.4820080000000 1.0
C      1  0.5457450000000  0.5178440000000  0.4855240000000 1.0
C      1  0.5267770000000  0.5302710000000  0.5289630000000 1.0
C      1  0.5603520000000  0.4961220000000  0.5423790000000 1.0
C      1  0.5791060000000  0.4524960000000  0.4848290000000 1.0
C      1  0.5183310000000  0.4804760000000  0.4831260000000 1.0
C      1  0.5628250000000  0.5360660000000  0.4760510000000 1.0
C      1  0.5450760000000  0.5185340000000  0.5458200000000 1.0
C      1  0.4647830000000  0.4714900000000  0.5163610000000 1.0
C      1  0.4547460000000  0.4919830000000  0.4750590000000 1.0
C      1  0.4415940000000  0.5078940000000  0.4507330000000 1.0
C      1  0.4596180000000  0.5312780000000  0.4947870000000 1.0
C      1  0.4654140000000  0.5161490000000  0.5313720000000 1.0
C      1  0.4734730000000  0.5010570000000  0.5019580000000 1.0
C      1  0.5218320000000  0.5220840000000  0.5023970000000 1.0
C      1  0.5031300000000  0.5012090000000  0.4961120000000 1.0
END
