TITL C-2622960-5345-453 -0.000224126960978017 125000 -214.655346911557 0 0 41 (C1) n - 1
REM
REM in /nfs/bkarasulu/CARBON/AIRSS/Generating-Clusters/AIREBO/with-SteepDescent/Higher-Symm/SD-CG/HFTN-CG
REM
REM
REM
REM
REM
REM ./C.cell (b20cbc046b6831c77cfcea5457e17084)
REM
REM compiler GCC version 9.2.1 20190827 (Red Hat 9.2.1-1)
REM options -cpp -mtune=generic -march=x86-64 -g -O0 -fpre-include=/usr/include/finclude/math-vector-fortran.h
REM seed 1305858887 -270455360 407334638 1383883263 24875693 614279499 927888597 -1900030057 1735587021 707493777 -391774760 -1964104605 -1915308077 -787658308 1511248314 -889646015 -30116239 1367586587 1578154643 -1354025275 230070168 -529307272 1641413196 864284244 1399974581 -2104203563 -1363385734 -972620564 -2074100694 -1987580563 165128080 -209998448 -875576928
REM
CELL 1.54180   50.00000   50.00000   50.00000   90.00000   90.00000   90.00000
LATT -1
SFAC C  
C      1  0.4777460000000  0.5518630000000  0.4686030000000 1.0
C      1  0.4470690000000  0.5266020000000  0.4642260000000 1.0
C      1  0.4450840000000  0.4807330000000  0.4713560000000 1.0
C      1  0.4720870000000  0.4514470000000  0.4703410000000 1.0
C      1  0.5208230000000  0.4502570000000  0.4794950000000 1.0
C      1  0.5511510000000  0.4756870000000  0.4741840000000 1.0
C      1  0.5493410000000  0.5219850000000  0.4752940000000 1.0
C      1  0.5236000000000  0.5513900000000  0.4671280000000 1.0
C      1  0.4726950000000  0.4674020000000  0.4969630000000 1.0
C      1  0.5024280000000  0.4811290000000  0.5025300000000 1.0
C      1  0.5364100000000  0.4806580000000  0.5037830000000 1.0
C      1  0.5373080000000  0.5146470000000  0.5045480000000 1.0
C      1  0.5162820000000  0.5398160000000  0.4954600000000 1.0
C      1  0.4835950000000  0.5436100000000  0.4997720000000 1.0
C      1  0.4571110000000  0.5231180000000  0.4937580000000 1.0
C      1  0.4508380000000  0.4908660000000  0.5025210000000 1.0
C      1  0.4761020000000  0.4496350000000  0.5229350000000 1.0
C      1  0.5385820000000  0.4246340000000  0.5199020000000 1.0
C      1  0.5604540000000  0.4800450000000  0.5278310000000 1.0
C      1  0.5517680000000  0.5187800000000  0.5322760000000 1.0
C      1  0.5264340000000  0.5487990000000  0.5253010000000 1.0
C      1  0.4802030000000  0.5562940000000  0.5284010000000 1.0
C      1  0.4500360000000  0.5232540000000  0.5259550000000 1.0
C      1  0.4459770000000  0.4843640000000  0.5335820000000 1.0
C      1  0.4648270000000  0.4855490000000  0.4506990000000 1.0
C      1  0.4872700000000  0.4653700000000  0.4486910000000 1.0
C      1  0.5149010000000  0.4645220000000  0.4550620000000 1.0
C      1  0.5352820000000  0.4851660000000  0.4505820000000 1.0
C      1  0.5342250000000  0.5134140000000  0.4523120000000 1.0
C      1  0.5139340000000  0.5334550000000  0.4450110000000 1.0
C      1  0.4856230000000  0.5335500000000  0.4477480000000 1.0
C      1  0.4650160000000  0.5132300000000  0.4442510000000 1.0
C      1  0.5365140000000  0.4843520000000  0.5457360000000 1.0
C      1  0.5337970000000  0.5122440000000  0.5566910000000 1.0
C      1  0.5161270000000  0.5343750000000  0.5480160000000 1.0
C      1  0.4879820000000  0.5371180000000  0.5489790000000 1.0
C      1  0.4692680000000  0.5158330000000  0.5461560000000 1.0
C      1  0.4710440000000  0.4863720000000  0.5508140000000 1.0
C      1  0.4892820000000  0.4655330000000  0.5427720000000 1.0
C      1  0.5163950000000  0.4672850000000  0.5373500000000 1.0
C      1  0.5275630000000  0.4488980000000  0.5121590000000 1.0
END
