TITL C-2622954-8726-692 -12.1515770558597 125000 -594.705463235777 0 0 108 (C1) n - 1
REM
REM in /nfs/bkarasulu/CARBON/AIRSS/Generating-Clusters/AIREBO/with-SteepDescent/Higher-Symm/SD-CG/HFTN-CG
REM
REM
REM
REM
REM
REM ./C.cell (b20cbc046b6831c77cfcea5457e17084)
REM
REM compiler GCC version 9.2.1 20190827 (Red Hat 9.2.1-1)
REM options -cpp -mtune=generic -march=x86-64 -g -O0 -fpre-include=/usr/include/finclude/math-vector-fortran.h
REM seed 990662509 -1946345746 -759377241 -302220892 180344703 -1265776357 -1571878449 1131962501 1788941698 1855996437 452690908 -244110230 1174411980 924608226 -658873488 -932913570 -1966594792 1034588152 504686208 892380722 -1047623327 -2085861293 -1617111950 1099177022 1423992686 1226453835 -496372708 578078688 -1539636182 1250878549 -1174259166 1415461910 628431334
REM
CELL 1.54180   50.00000   50.00000   50.00000   90.00000   90.00000   90.00000
LATT -1
SFAC C  
C      1  0.4841480000000  0.4188430000000  0.4646190000000 1.0
C      1  0.4394440000000  0.5559620000000  0.4651430000000 1.0
C      1  0.5838260000000  0.5211090000000  0.4642870000000 1.0
C      1  0.4450680000000  0.5488590000000  0.4375220000000 1.0
C      1  0.5706620000000  0.5225690000000  0.4374370000000 1.0
C      1  0.4912940000000  0.4279050000000  0.4375620000000 1.0
C      1  0.4942240000000  0.4223380000000  0.5279100000000 1.0
C      1  0.4462230000000  0.5286210000000  0.5188100000000 1.0
C      1  0.5605000000000  0.5313070000000  0.5218260000000 1.0
C      1  0.4909840000000  0.4281050000000  0.5582650000000 1.0
C      1  0.4543610000000  0.5591260000000  0.5800980000000 1.0
C      1  0.5678680000000  0.5263170000000  0.5511400000000 1.0
C      1  0.5976930000000  0.4780180000000  0.5260810000000 1.0
C      1  0.4403720000000  0.4157050000000  0.5291800000000 1.0
C      1  0.4559040000000  0.5857820000000  0.5354060000000 1.0
C      1  0.5100660000000  0.4562560000000  0.4838300000000 1.0
C      1  0.4549530000000  0.5119000000000  0.4835570000000 1.0
C      1  0.5384060000000  0.5356770000000  0.4864860000000 1.0
C      1  0.5759530000000  0.5467760000000  0.4790320000000 1.0
C      1  0.5087010000000  0.4164490000000  0.4807390000000 1.0
C      1  0.4224830000000  0.5354890000000  0.4774920000000 1.0
C      1  0.4499240000000  0.4140220000000  0.4989730000000 1.0
C      1  0.4488590000000  0.5888950000000  0.5029910000000 1.0
C      1  0.5918930000000  0.4928020000000  0.5043430000000 1.0
C      1  0.5383320000000  0.5730870000000  0.5332970000000 1.0
C      1  0.5479290000000  0.4261970000000  0.5406900000000 1.0
C      1  0.4222310000000  0.4931790000000  0.5330600000000 1.0
C      1  0.5115790000000  0.5188520000000  0.5649650000000 1.0
C      1  0.5045480000000  0.4864830000000  0.5607880000000 1.0
C      1  0.4791370000000  0.5079550000000  0.5641770000000 1.0
C      1  0.4626490000000  0.4991880000000  0.5141660000000 1.0
C      1  0.5268150000000  0.5289780000000  0.5177480000000 1.0
C      1  0.5010900000000  0.4536290000000  0.5165580000000 1.0
C      1  0.4416690000000  0.4632250000000  0.5153070000000 1.0
C      1  0.5015110000000  0.5762190000000  0.5180890000000 1.0
C      1  0.5581000000000  0.4792500000000  0.5207500000000 1.0
C      1  0.5186380000000  0.4588070000000  0.4094340000000 1.0
C      1  0.4592390000000  0.5073980000000  0.4212560000000 1.0
C      1  0.5332140000000  0.5359260000000  0.4213030000000 1.0
C      1  0.4623290000000  0.5677980000000  0.4824510000000 1.0
C      1  0.5869980000000  0.4946640000000  0.4751070000000 1.0
C      1  0.4592330000000  0.4313170000000  0.4775050000000 1.0
C      1  0.4181360000000  0.4720210000000  0.4550160000000 1.0
C      1  0.5167750000000  0.5801200000000  0.4585490000000 1.0
C      1  0.5680930000000  0.4581240000000  0.4418360000000 1.0
C      1  0.5505450000000  0.5419260000000  0.4568470000000 1.0
C      1  0.5178910000000  0.4381350000000  0.4561230000000 1.0
C      1  0.4391150000000  0.5176370000000  0.4542660000000 1.0
C      1  0.5535640000000  0.5764320000000  0.5107500000000 1.0
C      1  0.5418610000000  0.4193080000000  0.5137780000000 1.0
C      1  0.4103190000000  0.5017230000000  0.5102260000000 1.0
C      1  0.5439440000000  0.5240050000000  0.5734050000000 1.0
C      1  0.5011530000000  0.4552970000000  0.5698810000000 1.0
C      1  0.4648540000000  0.5363930000000  0.5682840000000 1.0
C      1  0.4697710000000  0.4056750000000  0.5216010000000 1.0
C      1  0.4451460000000  0.5603980000000  0.5177950000000 1.0
C      1  0.5612390000000  0.5061120000000  0.5034020000000 1.0
C      1  0.4110640000000  0.4618120000000  0.5085550000000 1.0
C      1  0.5212040000000  0.5998540000000  0.5091390000000 1.0
C      1  0.5717870000000  0.4547240000000  0.5065720000000 1.0
C      1  0.4911440000000  0.5469140000000  0.5242970000000 1.0
C      1  0.5302260000000  0.4977030000000  0.5270450000000 1.0
C      1  0.4721500000000  0.4686990000000  0.5258940000000 1.0
C      1  0.4598350000000  0.5825920000000  0.5675280000000 1.0
C      1  0.5737110000000  0.4984520000000  0.5664520000000 1.0
C      1  0.4615490000000  0.4342250000000  0.5656990000000 1.0
C      1  0.4894440000000  0.4563720000000  0.4255620000000 1.0
C      1  0.4674830000000  0.5319400000000  0.4300350000000 1.0
C      1  0.5434220000000  0.5069130000000  0.4326890000000 1.0
C      1  0.5087050000000  0.5024150000000  0.4930080000000 1.0
C      1  0.4832390000000  0.4848180000000  0.4912230000000 1.0
C      1  0.4978990000000  0.5298040000000  0.4998580000000 1.0
C      1  0.4861270000000  0.4960490000000  0.4606990000000 1.0
C      1  0.5117750000000  0.5114020000000  0.4442860000000 1.0
C      1  0.5059710000000  0.4785110000000  0.4417310000000 1.0
C      1  0.4922410000000  0.5742470000000  0.4790130000000 1.0
C      1  0.5730790000000  0.4717010000000  0.4663130000000 1.0
C      1  0.4388140000000  0.4531230000000  0.4715460000000 1.0
C      1  0.5560180000000  0.4341940000000  0.4951870000000 1.0
C      1  0.4038730000000  0.4830800000000  0.4835290000000 1.0
C      1  0.5384510000000  0.5890450000000  0.4830350000000 1.0
C      1  0.4787870000000  0.4582380000000  0.4704680000000 1.0
C      1  0.4769700000000  0.5373330000000  0.4784880000000 1.0
C      1  0.5367050000000  0.5020510000000  0.4817360000000 1.0
C      1  0.5236720000000  0.5451960000000  0.5471590000000 1.0
C      1  0.5213270000000  0.4679900000000  0.5379190000000 1.0
C      1  0.4538950000000  0.4973990000000  0.5469810000000 1.0
C      1  0.4207420000000  0.5259870000000  0.5026550000000 1.0
C      1  0.5695040000000  0.5544420000000  0.5048680000000 1.0
C      1  0.5157140000000  0.4142640000000  0.5068470000000 1.0
C      1  0.4376380000000  0.4829120000000  0.4878990000000 1.0
C      1  0.5204640000000  0.5621450000000  0.4936200000000 1.0
C      1  0.5438380000000  0.4585590000000  0.4782510000000 1.0
C      1  0.4725680000000  0.4632470000000  0.5560610000000 1.0
C      1  0.4695970000000  0.5372920000000  0.5388600000000 1.0
C      1  0.5429690000000  0.4958360000000  0.5567020000000 1.0
C      1  0.5372890000000  0.4536090000000  0.4352980000000 1.0
C      1  0.4383380000000  0.4893220000000  0.4402990000000 1.0
C      1  0.5201610000000  0.5524890000000  0.4457780000000 1.0
C      1  0.4908310000000  0.5354310000000  0.4492440000000 1.0
C      1  0.5364970000000  0.4817130000000  0.4544420000000 1.0
C      1  0.4665450000000  0.4745740000000  0.4428970000000 1.0
C      1  0.4857900000000  0.5800970000000  0.5458900000000 1.0
C      1  0.5741490000000  0.4722980000000  0.5486260000000 1.0
C      1  0.4407340000000  0.4432290000000  0.5426300000000 1.0
C      1  0.4323780000000  0.4718070000000  0.5531700000000 1.0
C      1  0.5154980000000  0.5771590000000  0.5553900000000 1.0
C      1  0.5467350000000  0.4525050000000  0.5477860000000 1.0
END
