TITL C-2622953-3516-255 -0.000274502768200707 125000 -635.600657582087 0 0 118 (C1) n - 1
REM
REM in /nfs/bkarasulu/CARBON/AIRSS/Generating-Clusters/AIREBO/with-SteepDescent/Higher-Symm/SD-CG/HFTN-CG
REM
REM
REM
REM
REM
REM ./C.cell (b20cbc046b6831c77cfcea5457e17084)
REM
REM compiler GCC version 9.2.1 20190827 (Red Hat 9.2.1-1)
REM options -cpp -mtune=generic -march=x86-64 -g -O0 -fpre-include=/usr/include/finclude/math-vector-fortran.h
REM seed -1740458179 1889658842 789122664 -1639773210 789605014 591794502 -225049127 -415572816 338795623 -1476036050 -1085755310 -2080781990 2059460604 -756701695 1440376959 870097913 2012324595 -193161476 1470729010 1596591627 387252196 1071036972 1599776694 -135093675 881291766 -2122276379 1615535372 -263755859 1529806673 -1025654355 -1512367348 1736467199 -4668096
REM
CELL 1.54180   50.00000   50.00000   50.00000   90.00000   90.00000   90.00000
LATT -1
SFAC C  
C      1  0.4558600000000  0.4787700000000  0.4269070000000 1.0
C      1  0.4273540000000  0.4703900000000  0.5362880000000 1.0
C      1  0.5371880000000  0.4812970000000  0.5735710000000 1.0
C      1  0.5715420000000  0.4780800000000  0.4581340000000 1.0
C      1  0.4559010000000  0.5202710000000  0.5692110000000 1.0
C      1  0.4292820000000  0.5247810000000  0.4602890000000 1.0
C      1  0.5405300000000  0.5247190000000  0.4289390000000 1.0
C      1  0.5738560000000  0.5238190000000  0.5434370000000 1.0
C      1  0.5184760000000  0.4267870000000  0.4627900000000 1.0
C      1  0.4547630000000  0.4245090000000  0.4796840000000 1.0
C      1  0.4762710000000  0.4260660000000  0.5422450000000 1.0
C      1  0.5370470000000  0.4328330000000  0.5219660000000 1.0
C      1  0.5189400000000  0.5776430000000  0.5337080000000 1.0
C      1  0.4531840000000  0.5752930000000  0.5198030000000 1.0
C      1  0.4844380000000  0.5727470000000  0.4613490000000 1.0
C      1  0.5480210000000  0.5801000000000  0.4753080000000 1.0
C      1  0.5296840000000  0.4476170000000  0.4412640000000 1.0
C      1  0.4362990000000  0.4463470000000  0.4651750000000 1.0
C      1  0.4668640000000  0.4512560000000  0.5589390000000 1.0
C      1  0.5598320000000  0.4492850000000  0.5379830000000 1.0
C      1  0.5328310000000  0.5589580000000  0.5584860000000 1.0
C      1  0.4409930000000  0.5498920000000  0.5344510000000 1.0
C      1  0.4706450000000  0.5538940000000  0.4396560000000 1.0
C      1  0.5599770000000  0.5502170000000  0.4700560000000 1.0
C      1  0.4672440000000  0.5349740000000  0.4675210000000 1.0
C      1  0.4662300000000  0.5296140000000  0.5300180000000 1.0
C      1  0.5342630000000  0.5365430000000  0.5341760000000 1.0
C      1  0.5301850000000  0.5338430000000  0.4698310000000 1.0
C      1  0.4799580000000  0.4717410000000  0.5405430000000 1.0
C      1  0.4591920000000  0.4701180000000  0.4705240000000 1.0
C      1  0.5252800000000  0.4698920000000  0.4651960000000 1.0
C      1  0.5392890000000  0.4723990000000  0.5271950000000 1.0
C      1  0.5642080000000  0.5109770000000  0.5134460000000 1.0
C      1  0.5128710000000  0.5104950000000  0.4426950000000 1.0
C      1  0.4392640000000  0.5048820000000  0.4860730000000 1.0
C      1  0.4845420000000  0.5061090000000  0.5604790000000 1.0
C      1  0.5604070000000  0.4940660000000  0.4841780000000 1.0
C      1  0.5133930000000  0.4906890000000  0.5511540000000 1.0
C      1  0.4463400000000  0.4827140000000  0.5109020000000 1.0
C      1  0.4847910000000  0.4915820000000  0.4394040000000 1.0
C      1  0.5914780000000  0.4828740000000  0.5067700000000 1.0
C      1  0.5039000000000  0.4867570000000  0.4116870000000 1.0
C      1  0.4073570000000  0.4816360000000  0.4897670000000 1.0
C      1  0.4894820000000  0.4840940000000  0.5931360000000 1.0
C      1  0.5925490000000  0.5147840000000  0.4950510000000 1.0
C      1  0.5037830000000  0.5142040000000  0.5863110000000 1.0
C      1  0.4133740000000  0.5100350000000  0.5075030000000 1.0
C      1  0.4909330000000  0.5181810000000  0.4103170000000 1.0
C      1  0.5790670000000  0.5252110000000  0.4674030000000 1.0
C      1  0.4667050000000  0.5261970000000  0.4233580000000 1.0
C      1  0.4232540000000  0.5208550000000  0.5360400000000 1.0
C      1  0.5318440000000  0.5283290000000  0.5732390000000 1.0
C      1  0.5786480000000  0.4769080000000  0.5317000000000 1.0
C      1  0.4650180000000  0.4734810000000  0.5826500000000 1.0
C      1  0.4200990000000  0.4759100000000  0.4646280000000 1.0
C      1  0.5313880000000  0.4763860000000  0.4250390000000 1.0
C      1  0.5788810000000  0.5592580000000  0.5262530000000 1.0
C      1  0.5363450000000  0.5747090000000  0.4316970000000 1.0
C      1  0.4293340000000  0.5745400000000  0.4643660000000 1.0
C      1  0.4821420000000  0.5570420000000  0.5714300000000 1.0
C      1  0.5671340000000  0.4452540000000  0.4799100000000 1.0
C      1  0.5218960000000  0.4450210000000  0.5765780000000 1.0
C      1  0.4369370000000  0.4219430000000  0.5274430000000 1.0
C      1  0.4719500000000  0.4425950000000  0.4253140000000 1.0
C      1  0.4281820000000  0.4895410000000  0.4417300000000 1.0
C      1  0.4382570000000  0.4790960000000  0.5655480000000 1.0
C      1  0.5667590000000  0.4872770000000  0.5578480000000 1.0
C      1  0.5567480000000  0.4882470000000  0.4302250000000 1.0
C      1  0.4322110000000  0.5073500000000  0.5606650000000 1.0
C      1  0.4417830000000  0.5158280000000  0.4303790000000 1.0
C      1  0.5702580000000  0.5144270000000  0.4418640000000 1.0
C      1  0.5568820000000  0.5154710000000  0.5695520000000 1.0
C      1  0.4555940000000  0.5475910000000  0.5641000000000 1.0
C      1  0.5652710000000  0.5544940000000  0.5553380000000 1.0
C      1  0.5545930000000  0.5516980000000  0.4384030000000 1.0
C      1  0.4384500000000  0.5524370000000  0.4459840000000 1.0
C      1  0.4412940000000  0.4487310000000  0.4333780000000 1.0
C      1  0.5610590000000  0.4469990000000  0.4491650000000 1.0
C      1  0.5520800000000  0.4507640000000  0.5677020000000 1.0
C      1  0.4392220000000  0.4435010000000  0.5474700000000 1.0
C      1  0.5504920000000  0.5566640000000  0.5184190000000 1.0
C      1  0.5152910000000  0.5513550000000  0.4446590000000 1.0
C      1  0.4439140000000  0.5521360000000  0.4853960000000 1.0
C      1  0.4884900000000  0.5483750000000  0.5414120000000 1.0
C      1  0.5384830000000  0.4553810000000  0.4901430000000 1.0
C      1  0.5168970000000  0.4570290000000  0.5465230000000 1.0
C      1  0.4442520000000  0.4484870000000  0.5074800000000 1.0
C      1  0.4748370000000  0.4480710000000  0.4546200000000 1.0
C      1  0.4864550000000  0.5751930000000  0.5257840000000 1.0
C      1  0.5339180000000  0.5773910000000  0.5039390000000 1.0
C      1  0.5167520000000  0.5748840000000  0.4680780000000 1.0
C      1  0.4692270000000  0.5723990000000  0.4899920000000 1.0
C      1  0.4873820000000  0.4268400000000  0.4721880000000 1.0
C      1  0.5357270000000  0.4214970000000  0.4908560000000 1.0
C      1  0.5045910000000  0.4331210000000  0.5311250000000 1.0
C      1  0.4716700000000  0.4284310000000  0.5089330000000 1.0
C      1  0.4812500000000  0.4658000000000  0.4081900000000 1.0
C      1  0.4127440000000  0.4612130000000  0.5084860000000 1.0
C      1  0.5133450000000  0.4684850000000  0.5941580000000 1.0
C      1  0.5885840000000  0.4657280000000  0.4849400000000 1.0
C      1  0.4970390000000  0.5455530000000  0.5910980000000 1.0
C      1  0.4149170000000  0.5357240000000  0.4883020000000 1.0
C      1  0.5125840000000  0.5370360000000  0.4139840000000 1.0
C      1  0.5955220000000  0.5349390000000  0.5192240000000 1.0
C      1  0.5056890000000  0.5246570000000  0.5257560000000 1.0
C      1  0.5201610000000  0.5155270000000  0.4967420000000 1.0
C      1  0.4940620000000  0.5172740000000  0.4787560000000 1.0
C      1  0.4725400000000  0.5184020000000  0.5028540000000 1.0
C      1  0.4988130000000  0.4848590000000  0.4696500000000 1.0
C      1  0.5329340000000  0.4874000000000  0.5001860000000 1.0
C      1  0.4985170000000  0.4918130000000  0.5205860000000 1.0
C      1  0.4765210000000  0.4854560000000  0.4954420000000 1.0
C      1  0.5357830000000  0.5010220000000  0.4629280000000 1.0
C      1  0.4624510000000  0.4988680000000  0.5361110000000 1.0
C      1  0.5394300000000  0.5054830000000  0.5350440000000 1.0
C      1  0.4616840000000  0.5018600000000  0.4621310000000 1.0
C      1  0.5016960000000  0.5732980000000  0.4971630000000 1.0
C      1  0.5043810000000  0.4265330000000  0.4998010000000 1.0
END
