TITL C-2622968-4806-621 0.000545688316488848 125000 -943.784024184204 0 0 173 (C1) n - 1
REM
REM in /nfs/bkarasulu/CARBON/AIRSS/Generating-Clusters/AIREBO/with-SteepDescent/Higher-Symm/SD-CG/HFTN-CG
REM
REM
REM
REM
REM
REM ./C.cell (b20cbc046b6831c77cfcea5457e17084)
REM
REM compiler GCC version 9.2.1 20190827 (Red Hat 9.2.1-1)
REM options -cpp -mtune=generic -march=x86-64 -g -O0 -fpre-include=/usr/include/finclude/math-vector-fortran.h
REM seed 1018592116 -936823673 -1939408400 -1385061705 -206703001 -1782128499 -2025477801 414625900 848047709 -1859526174 1273549128 429808067 -1020773655 -1074912475 -1805315335 771320025 -464931044 -806685289 -1809827782 -1921003745 479345823 1714021121 1404373205 1313888669 1555781474 -815308328 -969653040 -2061046695 1236178669 -1134699131 591793210 813265566 1115513588
REM
CELL 1.54180   50.00000   50.00000   50.00000   90.00000   90.00000   90.00000
LATT -1
SFAC C  
C      1  0.5283990000000  0.4763430000000  0.5318790000000 1.0
C      1  0.4957060000000  0.4713340000000  0.5397670000000 1.0
C      1  0.4726330000000  0.4886070000000  0.5249320000000 1.0
C      1  0.4745570000000  0.4781820000000  0.4941100000000 1.0
C      1  0.4860160000000  0.4825250000000  0.4623920000000 1.0
C      1  0.5192840000000  0.4759470000000  0.4598780000000 1.0
C      1  0.5294920000000  0.4941690000000  0.4867090000000 1.0
C      1  0.5428460000000  0.6202400000000  0.4940050000000 1.0
C      1  0.5293410000000  0.6251170000000  0.5177110000000 1.0
C      1  0.4980990000000  0.6259020000000  0.5224110000000 1.0
C      1  0.4780120000000  0.6302910000000  0.5037590000000 1.0
C      1  0.4786710000000  0.6189560000000  0.4777150000000 1.0
C      1  0.4998080000000  0.6288650000000  0.4614210000000 1.0
C      1  0.5254360000000  0.6199690000000  0.4684400000000 1.0
C      1  0.4795440000000  0.5647090000000  0.4524410000000 1.0
C      1  0.5188360000000  0.5629390000000  0.4595290000000 1.0
C      1  0.5344520000000  0.5515870000000  0.4875170000000 1.0
C      1  0.5286120000000  0.5591320000000  0.5383540000000 1.0
C      1  0.4964800000000  0.5503290000000  0.5381280000000 1.0
C      1  0.4561850000000  0.5749440000000  0.5255620000000 1.0
C      1  0.4592070000000  0.5510390000000  0.4760140000000 1.0
C      1  0.5291040000000  0.5338490000000  0.4344690000000 1.0
C      1  0.5822650000000  0.5443810000000  0.4754940000000 1.0
C      1  0.5603800000000  0.5420970000000  0.5618200000000 1.0
C      1  0.5043360000000  0.5291120000000  0.5827020000000 1.0
C      1  0.4249280000000  0.5375550000000  0.5339510000000 1.0
C      1  0.4174250000000  0.5351120000000  0.4806940000000 1.0
C      1  0.4684000000000  0.5397960000000  0.4183850000000 1.0
C      1  0.5185560000000  0.4996720000000  0.6064610000000 1.0
C      1  0.4247650000000  0.5056480000000  0.5773180000000 1.0
C      1  0.4009460000000  0.5103820000000  0.4938180000000 1.0
C      1  0.4277790000000  0.5052830000000  0.4126890000000 1.0
C      1  0.5298310000000  0.5090480000000  0.4032780000000 1.0
C      1  0.5913810000000  0.5149240000000  0.4643130000000 1.0
C      1  0.5748330000000  0.5182160000000  0.5476160000000 1.0
C      1  0.3993510000000  0.4712610000000  0.5088130000000 1.0
C      1  0.4348090000000  0.4708430000000  0.4317470000000 1.0
C      1  0.5115140000000  0.4737220000000  0.4018520000000 1.0
C      1  0.5848280000000  0.4668400000000  0.4470540000000 1.0
C      1  0.5864520000000  0.4727410000000  0.5344770000000 1.0
C      1  0.5284940000000  0.4645510000000  0.5905400000000 1.0
C      1  0.4498550000000  0.4747140000000  0.5767960000000 1.0
C      1  0.5145300000000  0.5978440000000  0.5321120000000 1.0
C      1  0.4869860000000  0.5783790000000  0.5277820000000 1.0
C      1  0.4481380000000  0.5759320000000  0.4953870000000 1.0
C      1  0.4745050000000  0.5875120000000  0.4773010000000 1.0
C      1  0.5250370000000  0.5888950000000  0.4774650000000 1.0
C      1  0.5552400000000  0.5888480000000  0.4931130000000 1.0
C      1  0.5458670000000  0.5855520000000  0.5256710000000 1.0
C      1  0.3949900000000  0.4717350000000  0.4818880000000 1.0
C      1  0.4525330000000  0.4713780000000  0.4046390000000 1.0
C      1  0.5449650000000  0.4799240000000  0.4041600000000 1.0
C      1  0.5956190000000  0.4642980000000  0.4798140000000 1.0
C      1  0.5866220000000  0.4754170000000  0.5683920000000 1.0
C      1  0.5005780000000  0.4716030000000  0.6115010000000 1.0
C      1  0.4226590000000  0.4697200000000  0.5569960000000 1.0
C      1  0.4819120000000  0.4202700000000  0.4565170000000 1.0
C      1  0.5294270000000  0.4163250000000  0.4475450000000 1.0
C      1  0.5610700000000  0.4225010000000  0.4912560000000 1.0
C      1  0.5414500000000  0.4225260000000  0.5294560000000 1.0
C      1  0.5029100000000  0.4293220000000  0.5675680000000 1.0
C      1  0.4576540000000  0.4256400000000  0.5358490000000 1.0
C      1  0.4601580000000  0.4159720000000  0.4897840000000 1.0
C      1  0.5275820000000  0.5338560000000  0.5598890000000 1.0
C      1  0.4825750000000  0.5398000000000  0.5609710000000 1.0
C      1  0.4360490000000  0.5237590000000  0.5068200000000 1.0
C      1  0.4514350000000  0.5370570000000  0.4460110000000 1.0
C      1  0.4955540000000  0.5379720000000  0.4387760000000 1.0
C      1  0.5548790000000  0.5384440000000  0.4561940000000 1.0
C      1  0.5600490000000  0.5453920000000  0.5001410000000 1.0
C      1  0.5249370000000  0.5023350000000  0.5536410000000 1.0
C      1  0.4795610000000  0.5094750000000  0.5582950000000 1.0
C      1  0.4403310000000  0.4924940000000  0.5150280000000 1.0
C      1  0.4507470000000  0.5109640000000  0.4674670000000 1.0
C      1  0.4832240000000  0.5055560000000  0.4375100000000 1.0
C      1  0.5496540000000  0.4843160000000  0.4527970000000 1.0
C      1  0.5623450000000  0.5169730000000  0.5098180000000 1.0
C      1  0.4104370000000  0.4811610000000  0.4531000000000 1.0
C      1  0.4812820000000  0.4892770000000  0.4011770000000 1.0
C      1  0.5739610000000  0.4870150000000  0.4217710000000 1.0
C      1  0.6023820000000  0.4853230000000  0.5068400000000 1.0
C      1  0.5570250000000  0.4832390000000  0.5839290000000 1.0
C      1  0.4708530000000  0.4868710000000  0.6007090000000 1.0
C      1  0.3998540000000  0.4873580000000  0.5387820000000 1.0
C      1  0.3937220000000  0.5650900000000  0.5092850000000 1.0
C      1  0.4281370000000  0.5830400000000  0.4615860000000 1.0
C      1  0.5090030000000  0.5640060000000  0.4026230000000 1.0
C      1  0.5866060000000  0.5710420000000  0.4460570000000 1.0
C      1  0.5785150000000  0.5633340000000  0.5194450000000 1.0
C      1  0.5382770000000  0.5522440000000  0.6083290000000 1.0
C      1  0.4568980000000  0.5513680000000  0.5688480000000 1.0
C      1  0.4965100000000  0.4959980000000  0.5808240000000 1.0
C      1  0.4272150000000  0.5070030000000  0.5434240000000 1.0
C      1  0.4262060000000  0.4962370000000  0.4778170000000 1.0
C      1  0.4580390000000  0.5092850000000  0.4149730000000 1.0
C      1  0.5489230000000  0.5079160000000  0.4314040000000 1.0
C      1  0.5793590000000  0.4996530000000  0.4881110000000 1.0
C      1  0.5563110000000  0.4955960000000  0.5529590000000 1.0
C      1  0.5132230000000  0.5254630000000  0.5233710000000 1.0
C      1  0.4832330000000  0.5176420000000  0.5193650000000 1.0
C      1  0.4646570000000  0.5306810000000  0.4990790000000 1.0
C      1  0.4818800000000  0.5132030000000  0.4765170000000 1.0
C      1  0.5031170000000  0.5345890000000  0.4699470000000 1.0
C      1  0.5316090000000  0.5216530000000  0.4723700000000 1.0
C      1  0.5353620000000  0.5053960000000  0.5156380000000 1.0
C      1  0.4529140000000  0.4165600000000  0.4437540000000 1.0
C      1  0.5106240000000  0.4114900000000  0.4227210000000 1.0
C      1  0.5739030000000  0.4415080000000  0.4669400000000 1.0
C      1  0.5690760000000  0.4161540000000  0.5428130000000 1.0
C      1  0.5272390000000  0.4083330000000  0.5747170000000 1.0
C      1  0.4322890000000  0.4183450000000  0.5531950000000 1.0
C      1  0.4302320000000  0.4151460000000  0.4940500000000 1.0
C      1  0.4207840000000  0.4209490000000  0.5212080000000 1.0
C      1  0.4331820000000  0.4264870000000  0.4626250000000 1.0
C      1  0.4835580000000  0.4243460000000  0.4249120000000 1.0
C      1  0.5586150000000  0.4245720000000  0.4424020000000 1.0
C      1  0.5792020000000  0.4254200000000  0.5167230000000 1.0
C      1  0.5521320000000  0.4203130000000  0.5678330000000 1.0
C      1  0.4538640000000  0.4273930000000  0.5754160000000 1.0
C      1  0.5267450000000  0.3936860000000  0.5273490000000 1.0
C      1  0.5014880000000  0.4043950000000  0.5446380000000 1.0
C      1  0.4779690000000  0.4033300000000  0.5307180000000 1.0
C      1  0.4801550000000  0.3931350000000  0.5005500000000 1.0
C      1  0.4931170000000  0.3977110000000  0.4717410000000 1.0
C      1  0.5213490000000  0.3972810000000  0.4698890000000 1.0
C      1  0.5386700000000  0.4009930000000  0.4958720000000 1.0
C      1  0.5037780000000  0.5141980000000  0.3957760000000 1.0
C      1  0.5880710000000  0.5146900000000  0.4349550000000 1.0
C      1  0.5940840000000  0.5147010000000  0.5218190000000 1.0
C      1  0.5447730000000  0.5066660000000  0.5995580000000 1.0
C      1  0.4467170000000  0.5102110000000  0.5947240000000 1.0
C      1  0.3948830000000  0.5146720000000  0.5207750000000 1.0
C      1  0.4132450000000  0.5076730000000  0.4357530000000 1.0
C      1  0.5208260000000  0.4618600000000  0.4301520000000 1.0
C      1  0.5576880000000  0.4752380000000  0.4849880000000 1.0
C      1  0.5558840000000  0.4637730000000  0.5463910000000 1.0
C      1  0.4996740000000  0.4631440000000  0.5725320000000 1.0
C      1  0.4549910000000  0.4928790000000  0.5528440000000 1.0
C      1  0.4359290000000  0.4681670000000  0.4929250000000 1.0
C      1  0.4657370000000  0.4651690000000  0.4416620000000 1.0
C      1  0.4431000000000  0.5586660000000  0.5452590000000 1.0
C      1  0.4166670000000  0.5660210000000  0.4871570000000 1.0
C      1  0.4488040000000  0.5785920000000  0.4481200000000 1.0
C      1  0.5225450000000  0.5645470000000  0.4263300000000 1.0
C      1  0.5782300000000  0.5781220000000  0.4742090000000 1.0
C      1  0.5665920000000  0.5682210000000  0.5463550000000 1.0
C      1  0.5109510000000  0.5486120000000  0.6058330000000 1.0
C      1  0.3953040000000  0.5442760000000  0.5272900000000 1.0
C      1  0.4204000000000  0.5302840000000  0.4506960000000 1.0
C      1  0.4932720000000  0.5403920000000  0.3989520000000 1.0
C      1  0.5795480000000  0.5443060000000  0.4356490000000 1.0
C      1  0.5993380000000  0.5425790000000  0.5056730000000 1.0
C      1  0.5529430000000  0.5330970000000  0.5933340000000 1.0
C      1  0.4507720000000  0.5389800000000  0.5942580000000 1.0
C      1  0.4708760000000  0.4477180000000  0.4926880000000 1.0
C      1  0.4912240000000  0.4487940000000  0.4676440000000 1.0
C      1  0.5221170000000  0.4424630000000  0.4650930000000 1.0
C      1  0.5406120000000  0.4472870000000  0.4883350000000 1.0
C      1  0.5277180000000  0.4463810000000  0.5157780000000 1.0
C      1  0.4851560000000  0.4407680000000  0.5427730000000 1.0
C      1  0.4494380000000  0.4482130000000  0.5169440000000 1.0
C      1  0.4190130000000  0.4541590000000  0.5279140000000 1.0
C      1  0.4402710000000  0.4564070000000  0.4624330000000 1.0
C      1  0.4889990000000  0.4550320000000  0.4203240000000 1.0
C      1  0.5538270000000  0.4556520000000  0.4355550000000 1.0
C      1  0.5760420000000  0.4562670000000  0.5064450000000 1.0
C      1  0.5485260000000  0.4474120000000  0.5703260000000 1.0
C      1  0.4685390000000  0.4507100000000  0.5783080000000 1.0
C      1  0.5080370000000  0.4115550000000  0.5059020000000 1.0
C      1  0.5179800000000  0.5636530000000  0.5076680000000 1.0
C      1  0.5025420000000  0.4872590000000  0.4984950000000 1.0
C      1  0.4989870000000  0.5865080000000  0.4970870000000 1.0
C      1  0.4967380000000  0.4397220000000  0.5132810000000 1.0
END
