TITL C-2622956-4641-436 0.000111247320870687 125000 -945.635527784845 0 0 161 (C1) n - 1
REM
REM in /nfs/bkarasulu/CARBON/AIRSS/Generating-Clusters/AIREBO/with-SteepDescent/Higher-Symm/SD-CG/HFTN-CG
REM
REM
REM
REM
REM
REM ./C.cell (b20cbc046b6831c77cfcea5457e17084)
REM
REM compiler GCC version 9.2.1 20190827 (Red Hat 9.2.1-1)
REM options -cpp -mtune=generic -march=x86-64 -g -O0 -fpre-include=/usr/include/finclude/math-vector-fortran.h
REM seed -1572416518 -410988689 194259386 -1893741882 -200892927 953029320 1533033053 1654067373 463449455 -1842697315 38665456 35738772 1857535507 -786965897 286079922 -1438175067 1296914480 2002005142 784606208 -1582338134 1678771849 1055012187 -1947711104 2131497977 -783780774 2053618190 -903544489 -1259805585 1540104855 -541097718 -913852800 209123044 2105399085
REM
CELL 1.54180   50.00000   50.00000   50.00000   90.00000   90.00000   90.00000
LATT -1
SFAC C  
C      1  0.4575660000000  0.4418420000000  0.4483510000000 1.0
C      1  0.4260670000000  0.4834340000000  0.4378370000000 1.0
C      1  0.4548550000000  0.5575310000000  0.4574390000000 1.0
C      1  0.5151810000000  0.5747150000000  0.4528870000000 1.0
C      1  0.5690220000000  0.5372730000000  0.4595570000000 1.0
C      1  0.5622990000000  0.4627860000000  0.4544620000000 1.0
C      1  0.5134200000000  0.4281600000000  0.4515520000000 1.0
C      1  0.4486540000000  0.5443430000000  0.5044090000000 1.0
C      1  0.4997500000000  0.5520800000000  0.5056560000000 1.0
C      1  0.5451680000000  0.5266890000000  0.5009650000000 1.0
C      1  0.5641770000000  0.4782190000000  0.5061810000000 1.0
C      1  0.5193970000000  0.4441870000000  0.5089280000000 1.0
C      1  0.4629760000000  0.4436050000000  0.5172800000000 1.0
C      1  0.4328580000000  0.4927180000000  0.5106610000000 1.0
C      1  0.5123260000000  0.5717050000000  0.5479310000000 1.0
C      1  0.5642280000000  0.5409370000000  0.5399660000000 1.0
C      1  0.5830310000000  0.4674920000000  0.5525060000000 1.0
C      1  0.5241410000000  0.4229490000000  0.5490590000000 1.0
C      1  0.4635990000000  0.4296300000000  0.5546770000000 1.0
C      1  0.4106930000000  0.4990960000000  0.5430810000000 1.0
C      1  0.4378290000000  0.5602990000000  0.5398720000000 1.0
C      1  0.5831500000000  0.5135700000000  0.5416220000000 1.0
C      1  0.5629870000000  0.4439360000000  0.5445370000000 1.0
C      1  0.4924210000000  0.4134680000000  0.5473370000000 1.0
C      1  0.4264500000000  0.4731710000000  0.5482710000000 1.0
C      1  0.4230170000000  0.5306570000000  0.5459670000000 1.0
C      1  0.4681070000000  0.5704920000000  0.5442880000000 1.0
C      1  0.5446020000000  0.5671660000000  0.5382420000000 1.0
C      1  0.5765020000000  0.4970710000000  0.5679650000000 1.0
C      1  0.5461910000000  0.4372640000000  0.5709950000000 1.0
C      1  0.4836030000000  0.4295770000000  0.5825820000000 1.0
C      1  0.4377000000000  0.4737300000000  0.5757810000000 1.0
C      1  0.4401670000000  0.5265940000000  0.5750570000000 1.0
C      1  0.4859090000000  0.5647300000000  0.5692210000000 1.0
C      1  0.5454820000000  0.5530240000000  0.5860110000000 1.0
C      1  0.5685520000000  0.3974610000000  0.5289170000000 1.0
C      1  0.4593700000000  0.3775520000000  0.5355360000000 1.0
C      1  0.3835380000000  0.4563280000000  0.5292250000000 1.0
C      1  0.3912410000000  0.5620540000000  0.5149180000000 1.0
C      1  0.4845120000000  0.6237460000000  0.5350930000000 1.0
C      1  0.5850200000000  0.5966900000000  0.5277650000000 1.0
C      1  0.6261760000000  0.4924190000000  0.5304380000000 1.0
C      1  0.4250100000000  0.5371390000000  0.4268540000000 1.0
C      1  0.5005640000000  0.5722530000000  0.4025610000000 1.0
C      1  0.5459020000000  0.5592760000000  0.4258590000000 1.0
C      1  0.5605980000000  0.4716060000000  0.4064110000000 1.0
C      1  0.5199970000000  0.4300290000000  0.4027840000000 1.0
C      1  0.4692800000000  0.4434200000000  0.3977650000000 1.0
C      1  0.4496510000000  0.5022850000000  0.3964750000000 1.0
C      1  0.5193050000000  0.5239000000000  0.5349500000000 1.0
C      1  0.5329880000000  0.5023860000000  0.5301280000000 1.0
C      1  0.5234760000000  0.4781610000000  0.5296030000000 1.0
C      1  0.4985870000000  0.4705610000000  0.5313500000000 1.0
C      1  0.4766200000000  0.4859460000000  0.5333530000000 1.0
C      1  0.4734930000000  0.5149030000000  0.5365510000000 1.0
C      1  0.4979350000000  0.5240100000000  0.5517470000000 1.0
C      1  0.3842480000000  0.4608780000000  0.4820220000000 1.0
C      1  0.4116820000000  0.5592510000000  0.4726100000000 1.0
C      1  0.4946720000000  0.6191870000000  0.4878050000000 1.0
C      1  0.5877300000000  0.5889090000000  0.4804850000000 1.0
C      1  0.6160240000000  0.4876050000000  0.4855680000000 1.0
C      1  0.5554770000000  0.3927400000000  0.4843560000000 1.0
C      1  0.4565070000000  0.3976500000000  0.4935930000000 1.0
C      1  0.4329990000000  0.4594240000000  0.4581790000000 1.0
C      1  0.4193970000000  0.5121470000000  0.4486740000000 1.0
C      1  0.4832940000000  0.5733230000000  0.4649520000000 1.0
C      1  0.5459290000000  0.5622440000000  0.4604380000000 1.0
C      1  0.5779650000000  0.5135590000000  0.4703450000000 1.0
C      1  0.5424090000000  0.4360960000000  0.4585340000000 1.0
C      1  0.4845350000000  0.4362180000000  0.4676200000000 1.0
C      1  0.5733310000000  0.4655460000000  0.4299930000000 1.0
C      1  0.5115640000000  0.4183740000000  0.4262460000000 1.0
C      1  0.4595660000000  0.4353360000000  0.4221080000000 1.0
C      1  0.4324640000000  0.4854350000000  0.4111960000000 1.0
C      1  0.4405710000000  0.5590740000000  0.4336720000000 1.0
C      1  0.5132950000000  0.5847020000000  0.4269600000000 1.0
C      1  0.5720610000000  0.5499490000000  0.4328760000000 1.0
C      1  0.4778850000000  0.4232790000000  0.4944500000000 1.0
C      1  0.4386200000000  0.4680090000000  0.4906110000000 1.0
C      1  0.4363750000000  0.5361740000000  0.4764120000000 1.0
C      1  0.4912600000000  0.5807690000000  0.5134990000000 1.0
C      1  0.5551940000000  0.5550880000000  0.4925770000000 1.0
C      1  0.5620900000000  0.4851070000000  0.4753690000000 1.0
C      1  0.5454680000000  0.4483470000000  0.4874980000000 1.0
C      1  0.4907820000000  0.5288530000000  0.4510490000000 1.0
C      1  0.5205580000000  0.5477050000000  0.4137440000000 1.0
C      1  0.5260950000000  0.4966450000000  0.4264960000000 1.0
C      1  0.5177870000000  0.4912660000000  0.4590560000000 1.0
C      1  0.4953140000000  0.4757320000000  0.4402770000000 1.0
C      1  0.4787440000000  0.4930090000000  0.4261630000000 1.0
C      1  0.4762690000000  0.5222820000000  0.3894210000000 1.0
C      1  0.5238820000000  0.4114590000000  0.5169950000000 1.0
C      1  0.4406720000000  0.4230760000000  0.5303740000000 1.0
C      1  0.3996240000000  0.4969880000000  0.5119740000000 1.0
C      1  0.4367050000000  0.5735070000000  0.5095620000000 1.0
C      1  0.5190660000000  0.5932560000000  0.5223780000000 1.0
C      1  0.5824440000000  0.5505260000000  0.5123950000000 1.0
C      1  0.5891830000000  0.4619840000000  0.5193540000000 1.0
C      1  0.5649270000000  0.4165720000000  0.4748580000000 1.0
C      1  0.4825460000000  0.3853930000000  0.4828420000000 1.0
C      1  0.4077930000000  0.4474480000000  0.4776180000000 1.0
C      1  0.4006450000000  0.5364660000000  0.4584760000000 1.0
C      1  0.4771790000000  0.5988060000000  0.4811320000000 1.0
C      1  0.5607130000000  0.5896950000000  0.4740220000000 1.0
C      1  0.6026690000000  0.5130730000000  0.4839810000000 1.0
C      1  0.4676770000000  0.6025490000000  0.5369220000000 1.0
C      1  0.5581200000000  0.5945110000000  0.5308410000000 1.0
C      1  0.6111980000000  0.5162310000000  0.5315650000000 1.0
C      1  0.5775990000000  0.4229500000000  0.5285300000000 1.0
C      1  0.4855790000000  0.3849350000000  0.5365680000000 1.0
C      1  0.4100770000000  0.4506130000000  0.5337950000000 1.0
C      1  0.4008990000000  0.5359800000000  0.5206930000000 1.0
C      1  0.4444820000000  0.3948660000000  0.5188700000000 1.0
C      1  0.3811300000000  0.4741120000000  0.5070330000000 1.0
C      1  0.4095200000000  0.5739450000000  0.4965220000000 1.0
C      1  0.5042510000000  0.6195920000000  0.5149560000000 1.0
C      1  0.5936850000000  0.5794650000000  0.5070130000000 1.0
C      1  0.6157230000000  0.4745270000000  0.5110210000000 1.0
C      1  0.5471140000000  0.3933070000000  0.5112610000000 1.0
C      1  0.4604980000000  0.4830490000000  0.4748070000000 1.0
C      1  0.4493550000000  0.5082650000000  0.4619570000000 1.0
C      1  0.4985430000000  0.5472920000000  0.4765750000000 1.0
C      1  0.5273410000000  0.5340750000000  0.4642200000000 1.0
C      1  0.5390270000000  0.5074290000000  0.4769060000000 1.0
C      1  0.5178330000000  0.4678270000000  0.4838100000000 1.0
C      1  0.4870100000000  0.4684140000000  0.4700350000000 1.0
C      1  0.5094010000000  0.4676360000000  0.5878270000000 1.0
C      1  0.4830870000000  0.4743570000000  0.5913720000000 1.0
C      1  0.4707330000000  0.4988160000000  0.5972010000000 1.0
C      1  0.4820330000000  0.5246680000000  0.5962820000000 1.0
C      1  0.5069160000000  0.5272300000000  0.5802240000000 1.0
C      1  0.5329340000000  0.5115030000000  0.5849820000000 1.0
C      1  0.5317750000000  0.4835160000000  0.5856310000000 1.0
C      1  0.4111490000000  0.5218930000000  0.4942120000000 1.0
C      1  0.4596910000000  0.5916340000000  0.5070440000000 1.0
C      1  0.5427970000000  0.5851370000000  0.5025610000000 1.0
C      1  0.6040740000000  0.5294790000000  0.5069860000000 1.0
C      1  0.5754030000000  0.4380970000000  0.4994080000000 1.0
C      1  0.4969530000000  0.3995670000000  0.5101170000000 1.0
C      1  0.4247020000000  0.4413940000000  0.5065810000000 1.0
C      1  0.4608740000000  0.4535740000000  0.5786650000000 1.0
C      1  0.4443490000000  0.4996330000000  0.5853170000000 1.0
C      1  0.4632930000000  0.5434250000000  0.5831000000000 1.0
C      1  0.5178560000000  0.5569640000000  0.5778890000000 1.0
C      1  0.5600530000000  0.5267320000000  0.5710740000000 1.0
C      1  0.5570870000000  0.4696550000000  0.5743910000000 1.0
C      1  0.5129400000000  0.4386680000000  0.5770520000000 1.0
C      1  0.4802310000000  0.4901690000000  0.3951610000000 1.0
C      1  0.4704000000000  0.5139480000000  0.4419700000000 1.0
C      1  0.4928960000000  0.5423890000000  0.3942490000000 1.0
C      1  0.5171470000000  0.5255620000000  0.4342410000000 1.0
C      1  0.5328220000000  0.4772760000000  0.4072070000000 1.0
C      1  0.5149710000000  0.4571330000000  0.3966530000000 1.0
C      1  0.4884350000000  0.4627580000000  0.3898780000000 1.0
C      1  0.4924560000000  0.4404880000000  0.5292360000000 1.0
C      1  0.4516840000000  0.4710990000000  0.5279410000000 1.0
C      1  0.4448450000000  0.5192070000000  0.5233960000000 1.0
C      1  0.4743270000000  0.5459650000000  0.5230720000000 1.0
C      1  0.5263880000000  0.5475870000000  0.5190290000000 1.0
C      1  0.5616920000000  0.5063450000000  0.5200800000000 1.0
C      1  0.5453930000000  0.4581380000000  0.5258490000000 1.0
END
