TITL C-2622954-8726-275 1.06852272691889e-05 125000 -543.934540411415 0 0 94 (C1) n - 1
REM
REM in /nfs/bkarasulu/CARBON/AIRSS/Generating-Clusters/AIREBO/with-SteepDescent/Higher-Symm/SD-CG/HFTN-CG
REM
REM
REM
REM
REM
REM ./C.cell (b20cbc046b6831c77cfcea5457e17084)
REM
REM compiler GCC version 9.2.1 20190827 (Red Hat 9.2.1-1)
REM options -cpp -mtune=generic -march=x86-64 -g -O0 -fpre-include=/usr/include/finclude/math-vector-fortran.h
REM seed 629082650 -1360733157 1254478576 -2111753463 -1671791217 1411710807 1803582431 -2081128330 -2091783711 146112300 1998790812 472533515 946316186 520056102 -1317295762 -921362731 -2015619618 777579588 -1266868935 -431012230 1175505326 954540874 -928883249 -2103111318 -289718592 2088363916 1314438644 -904096099 1837819874 -562307377 564987132 1213454690 1151663428
REM
CELL 1.54180   50.00000   50.00000   50.00000   90.00000   90.00000   90.00000
LATT -1
SFAC C  
C      1  0.5121610000000  0.4043660000000  0.5092000000000 1.0
C      1  0.5020300000000  0.5185540000000  0.4024270000000 1.0
C      1  0.4009920000000  0.5076510000000  0.5085130000000 1.0
C      1  0.5073100000000  0.5968960000000  0.4965490000000 1.0
C      1  0.4822850000000  0.5942790000000  0.5007600000000 1.0
C      1  0.4883760000000  0.4087120000000  0.5019050000000 1.0
C      1  0.5110660000000  0.4895050000000  0.6044410000000 1.0
C      1  0.4959130000000  0.4939470000000  0.4009760000000 1.0
C      1  0.5012870000000  0.5126780000000  0.6033270000000 1.0
C      1  0.4026450000000  0.5024960000000  0.4837440000000 1.0
C      1  0.5895430000000  0.4949770000000  0.5102440000000 1.0
C      1  0.5861380000000  0.4989520000000  0.4855850000000 1.0
C      1  0.5602570000000  0.5468170000000  0.5011860000000 1.0
C      1  0.5002410000000  0.5633930000000  0.5503420000000 1.0
C      1  0.5612340000000  0.4991110000000  0.5656250000000 1.0
C      1  0.5660360000000  0.4438920000000  0.4997860000000 1.0
C      1  0.4372240000000  0.4468520000000  0.4986970000000 1.0
C      1  0.4338030000000  0.5583670000000  0.4933870000000 1.0
C      1  0.5019510000000  0.4373840000000  0.4470830000000 1.0
C      1  0.5069100000000  0.4442490000000  0.5513750000000 1.0
C      1  0.4927700000000  0.5642300000000  0.4388040000000 1.0
C      1  0.5582170000000  0.4938160000000  0.4369220000000 1.0
C      1  0.4498250000000  0.4991210000000  0.5661230000000 1.0
C      1  0.4492200000000  0.5062980000000  0.4377770000000 1.0
C      1  0.5219050000000  0.5478240000000  0.5120540000000 1.0
C      1  0.5151670000000  0.5157860000000  0.5549420000000 1.0
C      1  0.5410500000000  0.5112100000000  0.5333100000000 1.0
C      1  0.5290440000000  0.4440180000000  0.4847760000000 1.0
C      1  0.4723090000000  0.4620100000000  0.5099220000000 1.0
C      1  0.4724480000000  0.5433350000000  0.4759740000000 1.0
C      1  0.5224180000000  0.4776370000000  0.4441510000000 1.0
C      1  0.4942120000000  0.4815630000000  0.5575210000000 1.0
C      1  0.4903990000000  0.5238710000000  0.4546090000000 1.0
C      1  0.5354690000000  0.4761530000000  0.4756680000000 1.0
C      1  0.4495640000000  0.4860610000000  0.5177170000000 1.0
C      1  0.4530160000000  0.5159780000000  0.4815160000000 1.0
C      1  0.5145180000000  0.4501540000000  0.5250060000000 1.0
C      1  0.5298040000000  0.5045790000000  0.4275460000000 1.0
C      1  0.4333550000000  0.5299830000000  0.5012450000000 1.0
C      1  0.5000520000000  0.5613510000000  0.4676140000000 1.0
C      1  0.4975300000000  0.5644440000000  0.5224920000000 1.0
C      1  0.5021040000000  0.4349650000000  0.4750450000000 1.0
C      1  0.5330140000000  0.4982390000000  0.5721700000000 1.0
C      1  0.4767080000000  0.5032930000000  0.4376620000000 1.0
C      1  0.4768530000000  0.5005810000000  0.5740710000000 1.0
C      1  0.4282920000000  0.4744340000000  0.4960120000000 1.0
C      1  0.5583140000000  0.4719970000000  0.5005090000000 1.0
C      1  0.5533450000000  0.5186570000000  0.5031420000000 1.0
C      1  0.5253410000000  0.5557020000000  0.4371480000000 1.0
C      1  0.4400130000000  0.5212070000000  0.5514930000000 1.0
C      1  0.5588770000000  0.4318290000000  0.5269900000000 1.0
C      1  0.5315820000000  0.4448680000000  0.5676080000000 1.0
C      1  0.4809740000000  0.4532880000000  0.4372200000000 1.0
C      1  0.4782040000000  0.5502450000000  0.5627230000000 1.0
C      1  0.4387330000000  0.4789310000000  0.4458270000000 1.0
C      1  0.5685750000000  0.4725840000000  0.5528530000000 1.0
C      1  0.5562900000000  0.5225530000000  0.4512330000000 1.0
C      1  0.5483420000000  0.5600750000000  0.4796430000000 1.0
C      1  0.4479100000000  0.5596880000000  0.5235570000000 1.0
C      1  0.4503260000000  0.4385370000000  0.4725290000000 1.0
C      1  0.5633650000000  0.4885970000000  0.5271110000000 1.0
C      1  0.5205650000000  0.5706350000000  0.4875130000000 1.0
C      1  0.4923410000000  0.5275130000000  0.5759590000000 1.0
C      1  0.5560740000000  0.5032080000000  0.4757030000000 1.0
C      1  0.4279060000000  0.5110410000000  0.5256870000000 1.0
C      1  0.4315190000000  0.4945350000000  0.4716410000000 1.0
C      1  0.5311090000000  0.4286800000000  0.5117060000000 1.0
C      1  0.4751100000000  0.4363490000000  0.4914420000000 1.0
C      1  0.4720710000000  0.5633750000000  0.5036870000000 1.0
C      1  0.4934450000000  0.4790910000000  0.4287670000000 1.0
C      1  0.5182510000000  0.4710660000000  0.5787330000000 1.0
C      1  0.5104580000000  0.5292120000000  0.4315390000000 1.0
C      1  0.4760590000000  0.4533330000000  0.5513070000000 1.0
C      1  0.5609610000000  0.4672430000000  0.4446400000000 1.0
C      1  0.4459250000000  0.5599540000000  0.4626720000000 1.0
C      1  0.4658250000000  0.5567260000000  0.4352900000000 1.0
C      1  0.5270910000000  0.5547800000000  0.5575120000000 1.0
C      1  0.5338100000000  0.4464630000000  0.4421860000000 1.0
C      1  0.5517850000000  0.5313940000000  0.5575570000000 1.0
C      1  0.4428490000000  0.5338210000000  0.4408200000000 1.0
C      1  0.4505560000000  0.4749910000000  0.5481850000000 1.0
C      1  0.4504820000000  0.4456410000000  0.5302160000000 1.0
C      1  0.5567970000000  0.4418010000000  0.4668110000000 1.0
C      1  0.5481110000000  0.5523620000000  0.5308970000000 1.0
C      1  0.5103030000000  0.4865010000000  0.4894960000000 1.0
C      1  0.4726120000000  0.5050750000000  0.5048630000000 1.0
C      1  0.4995080000000  0.4725130000000  0.5138490000000 1.0
C      1  0.4985410000000  0.5267580000000  0.5093260000000 1.0
C      1  0.4962590000000  0.5116900000000  0.4813460000000 1.0
C      1  0.5027840000000  0.5000650000000  0.5300740000000 1.0
C      1  0.4537140000000  0.5458540000000  0.5480270000000 1.0
C      1  0.5562980000000  0.4468310000000  0.5523200000000 1.0
C      1  0.5478150000000  0.5489820000000  0.4535650000000 1.0
C      1  0.4549930000000  0.4551860000000  0.4493970000000 1.0
END
