TITL C-2622963-3633-749 -0.00376951755683424 125000 -773.581508510273 0 0 146 (C1) n - 1
REM
REM in /nfs/bkarasulu/CARBON/AIRSS/Generating-Clusters/AIREBO/with-SteepDescent/Higher-Symm/SD-CG/HFTN-CG
REM
REM
REM
REM
REM
REM ./C.cell (b20cbc046b6831c77cfcea5457e17084)
REM
REM compiler GCC version 9.2.1 20190827 (Red Hat 9.2.1-1)
REM options -cpp -mtune=generic -march=x86-64 -g -O0 -fpre-include=/usr/include/finclude/math-vector-fortran.h
REM seed 2073713520 -1132865845 -798319680 678010505 -50810179 1277450474 -894734528 -1630796142 -1330717286 1307391597 -794770043 -588016291 1921653097 -50981719 1143203608 1368134047 -869400040 -1978910954 1221718223 -784842068 130958935 1365272368 795734121 563288860 -1411669037 -2036607106 -1017839517 2013054828 -1630175405 1625686707 -1441763229 -1877293090 416343382
REM
CELL 1.54180   50.00000   50.00000   50.00000   90.00000   90.00000   90.00000
LATT -1
SFAC C  
C      1  0.5205320000000  0.4328730000000  0.4748390000000 1.0
C      1  0.4747000000000  0.4962760000000  0.4386250000000 1.0
C      1  0.5154620000000  0.5643450000000  0.4600310000000 1.0
C      1  0.4730530000000  0.5537850000000  0.5259650000000 1.0
C      1  0.5203900000000  0.5038710000000  0.5823980000000 1.0
C      1  0.4842230000000  0.4346830000000  0.5351830000000 1.0
C      1  0.5682410000000  0.4996100000000  0.4072080000000 1.0
C      1  0.4413420000000  0.5811290000000  0.4587640000000 1.0
C      1  0.5648340000000  0.5858710000000  0.5483300000000 1.0
C      1  0.4490400000000  0.4986550000000  0.5956520000000 1.0
C      1  0.5543460000000  0.4146120000000  0.5431010000000 1.0
C      1  0.4429770000000  0.4169810000000  0.4471410000000 1.0
C      1  0.4551610000000  0.4553770000000  0.4153080000000 1.0
C      1  0.5378960000000  0.5396130000000  0.4220130000000 1.0
C      1  0.4698430000000  0.6026800000000  0.5065290000000 1.0
C      1  0.5398040000000  0.5499710000000  0.5739250000000 1.0
C      1  0.4684320000000  0.4528190000000  0.5804710000000 1.0
C      1  0.5276590000000  0.3993750000000  0.4963540000000 1.0
C      1  0.4764860000000  0.3965040000000  0.4814670000000 1.0
C      1  0.5245330000000  0.4763540000000  0.4036730000000 1.0
C      1  0.4895310000000  0.5727280000000  0.4256580000000 1.0
C      1  0.5198380000000  0.5974910000000  0.5268340000000 1.0
C      1  0.4812690000000  0.5330140000000  0.5914990000000 1.0
C      1  0.5136860000000  0.4296940000000  0.5702300000000 1.0
C      1  0.4847660000000  0.4494630000000  0.4204900000000 1.0
C      1  0.5108820000000  0.5292150000000  0.4152940000000 1.0
C      1  0.4858600000000  0.5819150000000  0.4854730000000 1.0
C      1  0.5141070000000  0.5595840000000  0.5585760000000 1.0
C      1  0.4885840000000  0.4801160000000  0.5827060000000 1.0
C      1  0.5130260000000  0.4086990000000  0.5256020000000 1.0
C      1  0.4590130000000  0.5017240000000  0.4857240000000 1.0
C      1  0.5329330000000  0.5345650000000  0.5015060000000 1.0
C      1  0.4602700000000  0.5069510000000  0.5177540000000 1.0
C      1  0.5347300000000  0.5004230000000  0.5046920000000 1.0
C      1  0.4641350000000  0.4753530000000  0.5053570000000 1.0
C      1  0.5365480000000  0.4829160000000  0.4753400000000 1.0
C      1  0.4462780000000  0.5871600000000  0.4875560000000 1.0
C      1  0.5650050000000  0.5634510000000  0.5639010000000 1.0
C      1  0.4437200000000  0.4701290000000  0.5913050000000 1.0
C      1  0.5546690000000  0.4102840000000  0.5134070000000 1.0
C      1  0.4397400000000  0.4421140000000  0.4355630000000 1.0
C      1  0.5630750000000  0.5273330000000  0.4121830000000 1.0
C      1  0.5153720000000  0.4501200000000  0.4082750000000 1.0
C      1  0.4887740000000  0.5505770000000  0.4095290000000 1.0
C      1  0.5041700000000  0.6049060000000  0.5016520000000 1.0
C      1  0.4875880000000  0.5573810000000  0.5797580000000 1.0
C      1  0.5007370000000  0.4501990000000  0.5934050000000 1.0
C      1  0.4951050000000  0.3902900000000  0.5033280000000 1.0
C      1  0.4604490000000  0.5576720000000  0.4488380000000 1.0
C      1  0.5473740000000  0.5813320000000  0.5231100000000 1.0
C      1  0.4647250000000  0.5131830000000  0.5721640000000 1.0
C      1  0.5392400000000  0.4403330000000  0.5530310000000 1.0
C      1  0.4672910000000  0.4251800000000  0.4690860000000 1.0
C      1  0.5489650000000  0.4815660000000  0.4220610000000 1.0
C      1  0.4921960000000  0.5235520000000  0.4412330000000 1.0
C      1  0.4985740000000  0.5669550000000  0.5122350000000 1.0
C      1  0.4929800000000  0.5357040000000  0.5467540000000 1.0
C      1  0.5111740000000  0.4682830000000  0.5601950000000 1.0
C      1  0.4954560000000  0.4297120000000  0.5054250000000 1.0
C      1  0.4986110000000  0.4756590000000  0.4338900000000 1.0
C      1  0.5860040000000  0.4706450000000  0.4812680000000 1.0
C      1  0.4309150000000  0.5052710000000  0.4751370000000 1.0
C      1  0.5832120000000  0.5300510000000  0.4901290000000 1.0
C      1  0.4162990000000  0.5243130000000  0.5232580000000 1.0
C      1  0.5634850000000  0.4957300000000  0.5198090000000 1.0
C      1  0.4185490000000  0.4705780000000  0.5125140000000 1.0
C      1  0.5081040000000  0.5233670000000  0.4811530000000 1.0
C      1  0.4902020000000  0.5207490000000  0.5099530000000 1.0
C      1  0.5118910000000  0.5044290000000  0.5295850000000 1.0
C      1  0.4938590000000  0.4766560000000  0.5218420000000 1.0
C      1  0.5079160000000  0.4741110000000  0.4909870000000 1.0
C      1  0.4892930000000  0.4968250000000  0.4757850000000 1.0
C      1  0.4233480000000  0.4586640000000  0.4845570000000 1.0
C      1  0.5837090000000  0.4919760000000  0.4548670000000 1.0
C      1  0.4243400000000  0.5361180000000  0.4690450000000 1.0
C      1  0.5812900000000  0.5431510000000  0.5176020000000 1.0
C      1  0.4188670000000  0.5040810000000  0.5486240000000 1.0
C      1  0.5711100000000  0.4652660000000  0.5328410000000 1.0
C      1  0.4706330000000  0.4719400000000  0.4620430000000 1.0
C      1  0.5298220000000  0.5167430000000  0.4558010000000 1.0
C      1  0.4693940000000  0.5419280000000  0.4942960000000 1.0
C      1  0.5346040000000  0.5270800000000  0.5409080000000 1.0
C      1  0.4718040000000  0.4830180000000  0.5469290000000 1.0
C      1  0.5293710000000  0.4507450000000  0.5032320000000 1.0
C      1  0.4421810000000  0.5544700000000  0.4884580000000 1.0
C      1  0.5650960000000  0.5386090000000  0.5454150000000 1.0
C      1  0.4413720000000  0.4812960000000  0.5605890000000 1.0
C      1  0.5570380000000  0.4430830000000  0.5153760000000 1.0
C      1  0.4424110000000  0.4620270000000  0.4578410000000 1.0
C      1  0.5614410000000  0.5154750000000  0.4432620000000 1.0
C      1  0.4233450000000  0.5580630000000  0.5265530000000 1.0
C      1  0.5606180000000  0.4976520000000  0.5536590000000 1.0
C      1  0.4360050000000  0.4495540000000  0.5331300000000 1.0
C      1  0.5708600000000  0.4426510000000  0.4688090000000 1.0
C      1  0.4348810000000  0.5018500000000  0.4415170000000 1.0
C      1  0.5654140000000  0.5483320000000  0.4681150000000 1.0
C      1  0.5394570000000  0.5476960000000  0.4520880000000 1.0
C      1  0.4498700000000  0.5778510000000  0.5196510000000 1.0
C      1  0.5433380000000  0.5178340000000  0.5716420000000 1.0
C      1  0.4639920000000  0.4507360000000  0.5485710000000 1.0
C      1  0.5489300000000  0.4228280000000  0.4823280000000 1.0
C      1  0.4502260000000  0.4858130000000  0.4174530000000 1.0
C      1  0.5854110000000  0.5151380000000  0.5371080000000 1.0
C      1  0.4131330000000  0.4712890000000  0.5449270000000 1.0
C      1  0.5875660000000  0.4519990000000  0.5061140000000 1.0
C      1  0.4147810000000  0.4799270000000  0.4592120000000 1.0
C      1  0.5889130000000  0.5248800000000  0.4588580000000 1.0
C      1  0.4105120000000  0.5460190000000  0.4977670000000 1.0
C      1  0.4763590000000  0.5044770000000  0.4056470000000 1.0
C      1  0.5098350000000  0.5936720000000  0.4431300000000 1.0
C      1  0.4814560000000  0.5944560000000  0.5603020000000 1.0
C      1  0.5152300000000  0.5034100000000  0.6160070000000 1.0
C      1  0.4801390000000  0.3920970000000  0.5570200000000 1.0
C      1  0.5140250000000  0.4233190000000  0.4469280000000 1.0
C      1  0.4868520000000  0.4267940000000  0.4413160000000 1.0
C      1  0.5083420000000  0.4993580000000  0.3994850000000 1.0
C      1  0.4808340000000  0.5837100000000  0.4567500000000 1.0
C      1  0.5072490000000  0.5907240000000  0.5511400000000 1.0
C      1  0.4872680000000  0.5062650000000  0.6044110000000 1.0
C      1  0.5050480000000  0.4070170000000  0.5549790000000 1.0
C      1  0.4417440000000  0.5479130000000  0.5498680000000 1.0
C      1  0.5520400000000  0.4649730000000  0.5913390000000 1.0
C      1  0.4501170000000  0.4243130000000  0.5172400000000 1.0
C      1  0.5566220000000  0.4395230000000  0.4372080000000 1.0
C      1  0.4423300000000  0.5392080000000  0.4084290000000 1.0
C      1  0.5498950000000  0.5872300000000  0.4824950000000 1.0
C      1  0.4374710000000  0.5356880000000  0.4393940000000 1.0
C      1  0.5569980000000  0.5587160000000  0.4995970000000 1.0
C      1  0.4484420000000  0.5178880000000  0.5461140000000 1.0
C      1  0.5583800000000  0.4650010000000  0.5628860000000 1.0
C      1  0.4535810000000  0.4455180000000  0.4926630000000 1.0
C      1  0.5584880000000  0.4698290000000  0.4525230000000 1.0
C      1  0.4735590000000  0.4036430000000  0.5262980000000 1.0
C      1  0.5312050000000  0.4335270000000  0.4269190000000 1.0
C      1  0.4678680000000  0.5334910000000  0.4008300000000 1.0
C      1  0.5221900000000  0.5942200000000  0.4748050000000 1.0
C      1  0.4657130000000  0.5669230000000  0.5564800000000 1.0
C      1  0.5250960000000  0.4736360000000  0.5972650000000 1.0
C      1  0.4904880000000  0.4485690000000  0.4775690000000 1.0
C      1  0.5236430000000  0.4869980000000  0.4441130000000 1.0
C      1  0.4875000000000  0.5453710000000  0.4654110000000 1.0
C      1  0.5247070000000  0.5562050000000  0.5264170000000 1.0
C      1  0.4950850000000  0.5043080000000  0.5596500000000 1.0
C      1  0.5137600000000  0.4514410000000  0.5334350000000 1.0
C      1  0.4145790000000  0.5002260000000  0.5023760000000 1.0
C      1  0.5816560000000  0.4990060000000  0.4940880000000 1.0
END
