TITL C-2622964-2985-394 -0.000711408755818055 125000 -751.279712625018 0 0 133 (C1) n - 1
REM
REM in /nfs/bkarasulu/CARBON/AIRSS/Generating-Clusters/AIREBO/with-SteepDescent/Higher-Symm/SD-CG/HFTN-CG
REM
REM
REM
REM
REM
REM ./C.cell (b20cbc046b6831c77cfcea5457e17084)
REM
REM compiler GCC version 9.2.1 20190827 (Red Hat 9.2.1-1)
REM options -cpp -mtune=generic -march=x86-64 -g -O0 -fpre-include=/usr/include/finclude/math-vector-fortran.h
REM seed -1729753324 564230851 -1365805132 -108731315 -1964931004 1193612746 -1134808775 272455978 696001822 -1607750613 605831759 1116002648 1491213238 -2095807265 -980264644 -2115910131 -2099126685 598058178 -1031578738 -840833155 -643101606 -1666248003 2049218943 1646307195 52326317 -1105691092 1514948842 -899782683 -613466728 412482120 1308891029 1776386828 -1896617635
REM
CELL 1.54180   50.00000   50.00000   50.00000   90.00000   90.00000   90.00000
LATT -1
SFAC C  
C      1  0.4069340000000  0.5050250000000  0.5514680000000 1.0
C      1  0.4152170000000  0.5466480000000  0.5157500000000 1.0
C      1  0.4173670000000  0.5276250000000  0.4563870000000 1.0
C      1  0.4145890000000  0.4704210000000  0.4631170000000 1.0
C      1  0.4167570000000  0.4552500000000  0.5103030000000 1.0
C      1  0.5944570000000  0.4998060000000  0.5479700000000 1.0
C      1  0.5887930000000  0.5507860000000  0.5142750000000 1.0
C      1  0.5897490000000  0.5279610000000  0.4580110000000 1.0
C      1  0.5928880000000  0.4764130000000  0.4572120000000 1.0
C      1  0.5899000000000  0.4516660000000  0.5168060000000 1.0
C      1  0.4794650000000  0.5083420000000  0.4604460000000 1.0
C      1  0.4825150000000  0.4575730000000  0.4857990000000 1.0
C      1  0.4847770000000  0.4663400000000  0.5376950000000 1.0
C      1  0.4841660000000  0.5201800000000  0.5386570000000 1.0
C      1  0.4841570000000  0.5437490000000  0.4857690000000 1.0
C      1  0.5100860000000  0.5007950000000  0.4725440000000 1.0
C      1  0.5144360000000  0.4667790000000  0.4938170000000 1.0
C      1  0.5106270000000  0.4831130000000  0.5351290000000 1.0
C      1  0.5166990000000  0.5217130000000  0.5287690000000 1.0
C      1  0.5186490000000  0.5384430000000  0.4823610000000 1.0
C      1  0.4413180000000  0.4951740000000  0.5342860000000 1.0
C      1  0.4468590000000  0.5217280000000  0.5148090000000 1.0
C      1  0.4423560000000  0.5110980000000  0.4828160000000 1.0
C      1  0.4476260000000  0.4768950000000  0.4845180000000 1.0
C      1  0.4533700000000  0.4708920000000  0.5137640000000 1.0
C      1  0.5602830000000  0.4900590000000  0.5299270000000 1.0
C      1  0.5636020000000  0.5182360000000  0.5170190000000 1.0
C      1  0.5633920000000  0.5166650000000  0.4857810000000 1.0
C      1  0.5589260000000  0.4884710000000  0.4738120000000 1.0
C      1  0.5612090000000  0.4752110000000  0.5022310000000 1.0
C      1  0.4450310000000  0.4382960000000  0.5186790000000 1.0
C      1  0.4365920000000  0.5069720000000  0.5658280000000 1.0
C      1  0.4451300000000  0.5558250000000  0.5195270000000 1.0
C      1  0.4417710000000  0.5454950000000  0.4434100000000 1.0
C      1  0.4450390000000  0.4655840000000  0.4525530000000 1.0
C      1  0.5662590000000  0.4344050000000  0.5205760000000 1.0
C      1  0.5674950000000  0.4950300000000  0.5628470000000 1.0
C      1  0.5637360000000  0.5653870000000  0.5182700000000 1.0
C      1  0.5648960000000  0.5474410000000  0.4449520000000 1.0
C      1  0.5651920000000  0.4675900000000  0.4475680000000 1.0
C      1  0.4352060000000  0.4455700000000  0.5671500000000 1.0
C      1  0.4395230000000  0.5552500000000  0.5671220000000 1.0
C      1  0.4400240000000  0.5715520000000  0.4736760000000 1.0
C      1  0.4435050000000  0.5027240000000  0.4196370000000 1.0
C      1  0.4389280000000  0.4174950000000  0.4681970000000 1.0
C      1  0.5427660000000  0.4557970000000  0.5646000000000 1.0
C      1  0.5584960000000  0.5443730000000  0.5596140000000 1.0
C      1  0.5578900000000  0.5700910000000  0.4681620000000 1.0
C      1  0.5495580000000  0.5006830000000  0.4247100000000 1.0
C      1  0.5584970000000  0.4304980000000  0.4787540000000 1.0
C      1  0.4076200000000  0.4528790000000  0.4845380000000 1.0
C      1  0.4114800000000  0.4827640000000  0.5237060000000 1.0
C      1  0.4024360000000  0.5213200000000  0.5268710000000 1.0
C      1  0.4141820000000  0.5289170000000  0.4895900000000 1.0
C      1  0.4078970000000  0.4969480000000  0.4676190000000 1.0
C      1  0.5920740000000  0.4715680000000  0.4884890000000 1.0
C      1  0.6003530000000  0.4805180000000  0.5263050000000 1.0
C      1  0.5920160000000  0.5246580000000  0.5318300000000 1.0
C      1  0.5934680000000  0.5265200000000  0.4917820000000 1.0
C      1  0.5990780000000  0.5033410000000  0.4487150000000 1.0
C      1  0.4615730000000  0.5832020000000  0.5142420000000 1.0
C      1  0.4599940000000  0.5476850000000  0.4204180000000 1.0
C      1  0.4640180000000  0.4455010000000  0.4384230000000 1.0
C      1  0.4612760000000  0.4185110000000  0.5369460000000 1.0
C      1  0.4582130000000  0.5156400000000  0.5824770000000 1.0
C      1  0.5462320000000  0.5872390000000  0.5112090000000 1.0
C      1  0.5456330000000  0.5487810000000  0.4192300000000 1.0
C      1  0.5464920000000  0.4474750000000  0.4376310000000 1.0
C      1  0.5470020000000  0.4162400000000  0.5344340000000 1.0
C      1  0.5482670000000  0.5046570000000  0.5817070000000 1.0
C      1  0.5139350000000  0.4293960000000  0.4687850000000 1.0
C      1  0.5090900000000  0.4348370000000  0.5665180000000 1.0
C      1  0.5131910000000  0.5399670000000  0.5662320000000 1.0
C      1  0.5121800000000  0.5773880000000  0.4766320000000 1.0
C      1  0.5115730000000  0.5124860000000  0.4212910000000 1.0
C      1  0.4862870000000  0.4178340000000  0.4706010000000 1.0
C      1  0.4813120000000  0.4413780000000  0.5748250000000 1.0
C      1  0.4861970000000  0.5542250000000  0.5691870000000 1.0
C      1  0.4836420000000  0.5861150000000  0.4698720000000 1.0
C      1  0.4835300000000  0.5044080000000  0.4129160000000 1.0
C      1  0.4859650000000  0.5481780000000  0.5194430000000 1.0
C      1  0.4833470000000  0.5400980000000  0.4519740000000 1.0
C      1  0.4833870000000  0.4755560000000  0.4569430000000 1.0
C      1  0.4861880000000  0.4440180000000  0.5159010000000 1.0
C      1  0.4780480000000  0.4945230000000  0.5551260000000 1.0
C      1  0.5145160000000  0.5597810000000  0.5057800000000 1.0
C      1  0.5134800000000  0.5269160000000  0.4508110000000 1.0
C      1  0.5129830000000  0.4621350000000  0.4609170000000 1.0
C      1  0.5105150000000  0.4323710000000  0.5344780000000 1.0
C      1  0.5156800000000  0.5067650000000  0.5590400000000 1.0
C      1  0.5483290000000  0.5380470000000  0.4725320000000 1.0
C      1  0.5367510000000  0.4946400000000  0.4546260000000 1.0
C      1  0.5424360000000  0.4493100000000  0.5020860000000 1.0
C      1  0.5385290000000  0.4747790000000  0.5446670000000 1.0
C      1  0.5449330000000  0.5406740000000  0.5292310000000 1.0
C      1  0.4518300000000  0.5412830000000  0.4754690000000 1.0
C      1  0.4487530000000  0.4991910000000  0.4516010000000 1.0
C      1  0.4517440000000  0.4430990000000  0.4856920000000 1.0
C      1  0.4521650000000  0.4653880000000  0.5472960000000 1.0
C      1  0.4558170000000  0.5371930000000  0.5433200000000 1.0
C      1  0.5219380000000  0.4534430000000  0.4230130000000 1.0
C      1  0.5175890000000  0.4004040000000  0.5258430000000 1.0
C      1  0.5184120000000  0.4898430000000  0.5871680000000 1.0
C      1  0.5216770000000  0.5913950000000  0.5291010000000 1.0
C      1  0.5188090000000  0.5670540000000  0.4200110000000 1.0
C      1  0.4904400000000  0.4527210000000  0.4235360000000 1.0
C      1  0.4837130000000  0.4049600000000  0.5239500000000 1.0
C      1  0.4854990000000  0.4984590000000  0.5880680000000 1.0
C      1  0.4914910000000  0.5875820000000  0.5224730000000 1.0
C      1  0.4876670000000  0.5671220000000  0.4168160000000 1.0
C      1  0.5422880000000  0.4277280000000  0.4568930000000 1.0
C      1  0.5413120000000  0.4261060000000  0.5600470000000 1.0
C      1  0.5422260000000  0.5319440000000  0.5781010000000 1.0
C      1  0.5412020000000  0.5868530000000  0.4834130000000 1.0
C      1  0.5392060000000  0.5232050000000  0.4102320000000 1.0
C      1  0.4647760000000  0.4216010000000  0.4534290000000 1.0
C      1  0.4594120000000  0.4279250000000  0.5637410000000 1.0
C      1  0.4632180000000  0.5436700000000  0.5819560000000 1.0
C      1  0.4600520000000  0.5884690000000  0.4856790000000 1.0
C      1  0.4615150000000  0.5224430000000  0.4066960000000 1.0
C      1  0.5186020000000  0.4250600000000  0.5022650000000 1.0
C      1  0.5223370000000  0.4598740000000  0.5859420000000 1.0
C      1  0.5192620000000  0.5601070000000  0.5394740000000 1.0
C      1  0.5218890000000  0.5598330000000  0.4492100000000 1.0
C      1  0.5151700000000  0.4825870000000  0.4338250000000 1.0
C      1  0.4795750000000  0.4166430000000  0.4968510000000 1.0
C      1  0.4784620000000  0.4685110000000  0.5771000000000 1.0
C      1  0.4807240000000  0.5681380000000  0.5455800000000 1.0
C      1  0.4791930000000  0.5707430000000  0.4465150000000 1.0
C      1  0.4764060000000  0.4805980000000  0.4246390000000 1.0
C      1  0.6063980000000  0.4989140000000  0.5014690000000 1.0
C      1  0.3968410000000  0.5017910000000  0.4995980000000 1.0
C      1  0.5131410000000  0.4976990000000  0.5048790000000 1.0
END
