TITL C-2622968-4806-252 -1.61182939933232e-06 125000 -262.537185271983 0 0 46 (C1) n - 1
REM
REM in /nfs/bkarasulu/CARBON/AIRSS/Generating-Clusters/AIREBO/with-SteepDescent/Higher-Symm/SD-CG/HFTN-CG
REM
REM
REM
REM
REM
REM ./C.cell (b20cbc046b6831c77cfcea5457e17084)
REM
REM compiler GCC version 9.2.1 20190827 (Red Hat 9.2.1-1)
REM options -cpp -mtune=generic -march=x86-64 -g -O0 -fpre-include=/usr/include/finclude/math-vector-fortran.h
REM seed -1221251646 49425974 -1507714745 -1491239498 -864101053 2117178950 262265300 1399604096 433476879 -772301710 -1630700813 442413191 1843835770 1382816388 2018464612 -300062967 773677786 518251697 449226598 1278954182 1853804303 -78892656 -283103754 1540662345 -877912220 981164108 -606685049 -69556897 32498900 -2021763096 -756865985 -1826495466 53475922
REM
CELL 1.54180   50.00000   50.00000   50.00000   90.00000   90.00000   90.00000
LATT -1
SFAC C  
C      1  0.4859890000000  0.4528770000000  0.5053970000000 1.0
C      1  0.4639220000000  0.4790170000000  0.4607380000000 1.0
C      1  0.4227260000000  0.5365910000000  0.4890400000000 1.0
C      1  0.4469700000000  0.5516190000000  0.5383040000000 1.0
C      1  0.4938520000000  0.5786330000000  0.5322710000000 1.0
C      1  0.5651560000000  0.4940510000000  0.4998820000000 1.0
C      1  0.5391910000000  0.4509900000000  0.5154320000000 1.0
C      1  0.4314930000000  0.5544810000000  0.5602070000000 1.0
C      1  0.5184910000000  0.5799170000000  0.5215830000000 1.0
C      1  0.5720530000000  0.5185860000000  0.4915890000000 1.0
C      1  0.5431390000000  0.4248700000000  0.5247580000000 1.0
C      1  0.4762980000000  0.4285750000000  0.5122880000000 1.0
C      1  0.4550260000000  0.4723520000000  0.4365260000000 1.0
C      1  0.3996360000000  0.5415940000000  0.4762760000000 1.0
C      1  0.5578780000000  0.4689570000000  0.5055930000000 1.0
C      1  0.5120740000000  0.4581630000000  0.5140900000000 1.0
C      1  0.4741520000000  0.4706690000000  0.4888290000000 1.0
C      1  0.4485900000000  0.5185860000000  0.4921760000000 1.0
C      1  0.4389660000000  0.5363600000000  0.5167210000000 1.0
C      1  0.4714460000000  0.5644910000000  0.5360650000000 1.0
C      1  0.5100980000000  0.5171040000000  0.5072730000000 1.0
C      1  0.5315750000000  0.4983090000000  0.5731390000000 1.0
C      1  0.5343530000000  0.5197860000000  0.5558030000000 1.0
C      1  0.5493530000000  0.5411720000000  0.5626790000000 1.0
C      1  0.5238220000000  0.4086870000000  0.6289920000000 1.0
C      1  0.5271040000000  0.4315320000000  0.6165690000000 1.0
C      1  0.5279690000000  0.4545340000000  0.6031610000000 1.0
C      1  0.5310040000000  0.4766140000000  0.5885770000000 1.0
C      1  0.5263020000000  0.3990050000000  0.5133650000000 1.0
C      1  0.5083230000000  0.5288800000000  0.4598250000000 1.0
C      1  0.5145800000000  0.5735830000000  0.4414760000000 1.0
C      1  0.5214020000000  0.5541940000000  0.4600720000000 1.0
C      1  0.5413460000000  0.5596280000000  0.4798110000000 1.0
C      1  0.4973710000000  0.5172580000000  0.4827490000000 1.0
C      1  0.4947110000000  0.4033610000000  0.5244820000000 1.0
C      1  0.3782750000000  0.5485300000000  0.4627630000000 1.0
C      1  0.5063470000000  0.5927280000000  0.4255820000000 1.0
C      1  0.5344880000000  0.5776700000000  0.4999980000000 1.0
C      1  0.5628670000000  0.5420320000000  0.4819380000000 1.0
C      1  0.5213370000000  0.4097950000000  0.5442670000000 1.0
C      1  0.4612350000000  0.4019450000000  0.5198590000000 1.0
C      1  0.4438990000000  0.4657730000000  0.4137230000000 1.0
C      1  0.5209140000000  0.5190700000000  0.5315500000000 1.0
C      1  0.5049240000000  0.5030430000000  0.4125950000000 1.0
C      1  0.4709950000000  0.5033530000000  0.4824160000000 1.0
C      1  0.5077240000000  0.5149650000000  0.4357680000000 1.0
END
