TITL C-2622963-3633-487 0.00126845034548203 125000 -419.342779587655 0 0 75 (C1) n - 1
REM
REM in /nfs/bkarasulu/CARBON/AIRSS/Generating-Clusters/AIREBO/with-SteepDescent/Higher-Symm/SD-CG/HFTN-CG
REM
REM
REM
REM
REM
REM ./C.cell (b20cbc046b6831c77cfcea5457e17084)
REM
REM compiler GCC version 9.2.1 20190827 (Red Hat 9.2.1-1)
REM options -cpp -mtune=generic -march=x86-64 -g -O0 -fpre-include=/usr/include/finclude/math-vector-fortran.h
REM seed 148366359 81397664 -2109618508 762711395 -904866336 -1318082816 528931035 858669680 519240989 -40886334 294776390 -1716267249 -1129185733 -829508200 1182416470 1702391700 -1060800075 -1532014093 -1557104310 284671223 -93097548 -609640166 2021638767 -1331394249 1180637148 1633804237 1591549335 -511447766 -426730852 -162759546 -1244099098 1910343677 -1910141388
REM
CELL 1.54180   50.00000   50.00000   50.00000   90.00000   90.00000   90.00000
LATT -1
SFAC C  
C      1  0.4446790000000  0.4226980000000  0.5160240000000 1.0
C      1  0.5541720000000  0.4290060000000  0.4854860000000 1.0
C      1  0.4491940000000  0.5737520000000  0.5162690000000 1.0
C      1  0.5589600000000  0.5728760000000  0.4873410000000 1.0
C      1  0.4432410000000  0.4255730000000  0.4864330000000 1.0
C      1  0.5535120000000  0.4250690000000  0.5149630000000 1.0
C      1  0.4487500000000  0.5693430000000  0.4868560000000 1.0
C      1  0.5586650000000  0.5765890000000  0.5167980000000 1.0
C      1  0.4448480000000  0.5266420000000  0.5338510000000 1.0
C      1  0.5556400000000  0.5299780000000  0.4624730000000 1.0
C      1  0.4425770000000  0.4692150000000  0.5351850000000 1.0
C      1  0.5568140000000  0.4729450000000  0.4617700000000 1.0
C      1  0.4464430000000  0.5246150000000  0.4653160000000 1.0
C      1  0.5559420000000  0.5293540000000  0.5344030000000 1.0
C      1  0.4433200000000  0.4685090000000  0.4604830000000 1.0
C      1  0.5555630000000  0.4714720000000  0.5338720000000 1.0
C      1  0.5152040000000  0.4848550000000  0.4663970000000 1.0
C      1  0.4845460000000  0.4834660000000  0.5338620000000 1.0
C      1  0.5189890000000  0.5179980000000  0.4730320000000 1.0
C      1  0.4859500000000  0.5158500000000  0.5319240000000 1.0
C      1  0.5157420000000  0.4895030000000  0.5285780000000 1.0
C      1  0.4827310000000  0.4823040000000  0.4716750000000 1.0
C      1  0.5175990000000  0.5213810000000  0.5263710000000 1.0
C      1  0.4867870000000  0.5145060000000  0.4689440000000 1.0
C      1  0.5280860000000  0.5753800000000  0.5241980000000 1.0
C      1  0.4790750000000  0.5671340000000  0.4771320000000 1.0
C      1  0.5237620000000  0.4293290000000  0.5232610000000 1.0
C      1  0.4739660000000  0.4263550000000  0.4768600000000 1.0
C      1  0.5282490000000  0.5745960000000  0.4774260000000 1.0
C      1  0.4791680000000  0.5679300000000  0.5241170000000 1.0
C      1  0.5235810000000  0.4306010000000  0.4763570000000 1.0
C      1  0.4746900000000  0.4253550000000  0.5242670000000 1.0
C      1  0.5122380000000  0.4162620000000  0.4515570000000 1.0
C      1  0.4878380000000  0.4139190000000  0.5493490000000 1.0
C      1  0.5146650000000  0.5857550000000  0.4525100000000 1.0
C      1  0.4895350000000  0.5817170000000  0.5495440000000 1.0
C      1  0.5132550000000  0.4161270000000  0.5489320000000 1.0
C      1  0.4867950000000  0.4141520000000  0.4518320000000 1.0
C      1  0.5146770000000  0.5856820000000  0.5494310000000 1.0
C      1  0.4895020000000  0.5816170000000  0.4521510000000 1.0
C      1  0.4704180000000  0.5372580000000  0.5154720000000 1.0
C      1  0.5330240000000  0.5426790000000  0.4845570000000 1.0
C      1  0.4692980000000  0.4581970000000  0.5172760000000 1.0
C      1  0.5324340000000  0.4622310000000  0.4809180000000 1.0
C      1  0.4708660000000  0.5361160000000  0.4852880000000 1.0
C      1  0.5327880000000  0.5441640000000  0.5143520000000 1.0
C      1  0.4660980000000  0.4581410000000  0.4834240000000 1.0
C      1  0.5295760000000  0.4617200000000  0.5146940000000 1.0
C      1  0.4318740000000  0.5442070000000  0.4825550000000 1.0
C      1  0.5723870000000  0.5479770000000  0.5154170000000 1.0
C      1  0.4270240000000  0.4516640000000  0.4807750000000 1.0
C      1  0.5685180000000  0.4527060000000  0.5140340000000 1.0
C      1  0.4318260000000  0.5472500000000  0.5153430000000 1.0
C      1  0.5726660000000  0.5459210000000  0.4818290000000 1.0
C      1  0.4301820000000  0.4505870000000  0.5144790000000 1.0
C      1  0.5714370000000  0.4542540000000  0.4806960000000 1.0
C      1  0.4829130000000  0.5239430000000  0.5656750000000 1.0
C      1  0.5130120000000  0.5226080000000  0.4400390000000 1.0
C      1  0.4828120000000  0.4734410000000  0.5663040000000 1.0
C      1  0.5171410000000  0.4757770000000  0.4325340000000 1.0
C      1  0.4840980000000  0.5241040000000  0.4346910000000 1.0
C      1  0.5131430000000  0.5237000000000  0.5599080000000 1.0
C      1  0.4878780000000  0.4749520000000  0.4389910000000 1.0
C      1  0.5130060000000  0.4788210000000  0.5612690000000 1.0
C      1  0.4575950000000  0.4834940000000  0.4407380000000 1.0
C      1  0.5442040000000  0.4854410000000  0.5562350000000 1.0
C      1  0.4570110000000  0.5122610000000  0.4424140000000 1.0
C      1  0.5435440000000  0.5149540000000  0.5559420000000 1.0
C      1  0.4530110000000  0.4838140000000  0.5581490000000 1.0
C      1  0.5451810000000  0.4870210000000  0.4400780000000 1.0
C      1  0.4546660000000  0.5128620000000  0.5565850000000 1.0
C      1  0.5431470000000  0.5158010000000  0.4413780000000 1.0
C      1  0.4989590000000  0.4273400000000  0.5000490000000 1.0
C      1  0.5038340000000  0.5696130000000  0.5006440000000 1.0
C      1  0.4987560000000  0.4654490000000  0.5019170000000 1.0
END
