TITL C-2622961-1971-243 0.00144971483892199 125000 -1068.68828938928 0 0 189 (C1) n - 1
REM
REM in /nfs/bkarasulu/CARBON/AIRSS/Generating-Clusters/AIREBO/with-SteepDescent/Higher-Symm/SD-CG/HFTN-CG
REM
REM
REM
REM
REM
REM ./C.cell (b20cbc046b6831c77cfcea5457e17084)
REM
REM compiler GCC version 9.2.1 20190827 (Red Hat 9.2.1-1)
REM options -cpp -mtune=generic -march=x86-64 -g -O0 -fpre-include=/usr/include/finclude/math-vector-fortran.h
REM seed -67010958 1285077361 17293016 1490644762 -408290067 -1578853351 -57984980 -1328591109 -1172267429 1925772177 -1442409304 -757625045 1725447203 -1990247025 -634679625 1811980005 -1160410461 56872294 -599963578 1631036227 -589432713 -594293153 -1563473516 -797657745 796720502 451273045 312715237 209397250 -1376857618 439260971 717264156 -1565845937 -984522531
REM
CELL 1.54180   50.00000   50.00000   50.00000   90.00000   90.00000   90.00000
LATT -1
SFAC C  
C      1  0.4514720000000  0.5721880000000  0.4646990000000 1.0
C      1  0.5529970000000  0.5605020000000  0.4722030000000 1.0
C      1  0.4970440000000  0.5618490000000  0.5756380000000 1.0
C      1  0.4386520000000  0.4383770000000  0.4761040000000 1.0
C      1  0.5699080000000  0.4308060000000  0.4663930000000 1.0
C      1  0.5070600000000  0.4421850000000  0.5596650000000 1.0
C      1  0.4313640000000  0.5734180000000  0.5486690000000 1.0
C      1  0.5567870000000  0.5585360000000  0.5313630000000 1.0
C      1  0.5102480000000  0.5678690000000  0.4357060000000 1.0
C      1  0.4232690000000  0.4235780000000  0.5531470000000 1.0
C      1  0.5562000000000  0.4327090000000  0.5252580000000 1.0
C      1  0.4968350000000  0.4368580000000  0.4378250000000 1.0
C      1  0.5798690000000  0.5248460000000  0.4292370000000 1.0
C      1  0.5294070000000  0.5220610000000  0.6065720000000 1.0
C      1  0.3989070000000  0.5271470000000  0.4656550000000 1.0
C      1  0.5774610000000  0.4678040000000  0.4310470000000 1.0
C      1  0.5252320000000  0.4752150000000  0.5975590000000 1.0
C      1  0.4044250000000  0.4795280000000  0.4699630000000 1.0
C      1  0.5708560000000  0.5224010000000  0.5681350000000 1.0
C      1  0.5267110000000  0.5234900000000  0.4030120000000 1.0
C      1  0.3996980000000  0.5306190000000  0.5218410000000 1.0
C      1  0.5808190000000  0.4732070000000  0.5791060000000 1.0
C      1  0.5230660000000  0.4746560000000  0.3971340000000 1.0
C      1  0.3970450000000  0.4827660000000  0.5260220000000 1.0
C      1  0.4788390000000  0.6043780000000  0.4951040000000 1.0
C      1  0.5327110000000  0.6077640000000  0.4900360000000 1.0
C      1  0.4936040000000  0.5882780000000  0.5382380000000 1.0
C      1  0.4720290000000  0.3968640000000  0.4934420000000 1.0
C      1  0.5264830000000  0.4026520000000  0.4902190000000 1.0
C      1  0.4996330000000  0.4052980000000  0.5333890000000 1.0
C      1  0.4723940000000  0.5824420000000  0.5167620000000 1.0
C      1  0.5383750000000  0.5956400000000  0.5142810000000 1.0
C      1  0.5029000000000  0.5996530000000  0.4781730000000 1.0
C      1  0.4740860000000  0.4142480000000  0.5185380000000 1.0
C      1  0.5254210000000  0.3931140000000  0.5183810000000 1.0
C      1  0.4972750000000  0.4005400000000  0.4748330000000 1.0
C      1  0.4815080000000  0.4565090000000  0.5682370000000 1.0
C      1  0.4611870000000  0.4746070000000  0.4455240000000 1.0
C      1  0.5673150000000  0.4609160000000  0.4800440000000 1.0
C      1  0.4907140000000  0.5342830000000  0.5567550000000 1.0
C      1  0.4444710000000  0.5118850000000  0.4557640000000 1.0
C      1  0.5725920000000  0.5406950000000  0.4826260000000 1.0
C      1  0.4884580000000  0.4646460000000  0.4278240000000 1.0
C      1  0.4658520000000  0.4719490000000  0.5437640000000 1.0
C      1  0.5665450000000  0.4748910000000  0.5080240000000 1.0
C      1  0.4828790000000  0.5290750000000  0.4253990000000 1.0
C      1  0.4580190000000  0.5297370000000  0.5510390000000 1.0
C      1  0.5688130000000  0.5312030000000  0.5150960000000 1.0
C      1  0.6059250000000  0.5105600000000  0.4690110000000 1.0
C      1  0.4752590000000  0.5097780000000  0.6022420000000 1.0
C      1  0.4003070000000  0.4998330000000  0.4185770000000 1.0
C      1  0.6205970000000  0.4869790000000  0.4703190000000 1.0
C      1  0.4681730000000  0.4800150000000  0.6100630000000 1.0
C      1  0.3996390000000  0.4729360000000  0.4269770000000 1.0
C      1  0.6159670000000  0.5247950000000  0.5387500000000 1.0
C      1  0.4734850000000  0.5181580000000  0.3864500000000 1.0
C      1  0.3941160000000  0.5176150000000  0.5884750000000 1.0
C      1  0.6365600000000  0.5018480000000  0.5424810000000 1.0
C      1  0.4718500000000  0.4913120000000  0.3787880000000 1.0
C      1  0.3886160000000  0.4963850000000  0.5760550000000 1.0
C      1  0.5234640000000  0.4669880000000  0.4812200000000 1.0
C      1  0.5056350000000  0.4775100000000  0.5273410000000 1.0
C      1  0.4702410000000  0.4757630000000  0.4783110000000 1.0
C      1  0.5228140000000  0.5259680000000  0.4820170000000 1.0
C      1  0.5023970000000  0.5264540000000  0.5274050000000 1.0
C      1  0.4666030000000  0.5242240000000  0.4790500000000 1.0
C      1  0.5335730000000  0.4779660000000  0.5098160000000 1.0
C      1  0.4993650000000  0.4849740000000  0.4712050000000 1.0
C      1  0.4755490000000  0.4811130000000  0.5124650000000 1.0
C      1  0.5255090000000  0.5109890000000  0.5077940000000 1.0
C      1  0.4962580000000  0.5149480000000  0.4694430000000 1.0
C      1  0.4781060000000  0.5150260000000  0.5097130000000 1.0
C      1  0.4017820000000  0.5609940000000  0.5095710000000 1.0
C      1  0.5328640000000  0.5443690000000  0.4260780000000 1.0
C      1  0.5540860000000  0.5516370000000  0.5646130000000 1.0
C      1  0.4196860000000  0.4610540000000  0.5161300000000 1.0
C      1  0.5204620000000  0.4451600000000  0.4139050000000 1.0
C      1  0.5611580000000  0.4487910000000  0.5658890000000 1.0
C      1  0.4174320000000  0.5426240000000  0.4880760000000 1.0
C      1  0.5284190000000  0.5373720000000  0.5781660000000 1.0
C      1  0.5605300000000  0.5524450000000  0.4337680000000 1.0
C      1  0.4266880000000  0.4646760000000  0.4869760000000 1.0
C      1  0.5297830000000  0.4614000000000  0.5703750000000 1.0
C      1  0.5460840000000  0.4550820000000  0.4342010000000 1.0
C      1  0.5560970000000  0.5815300000000  0.4493500000000 1.0
C      1  0.5157320000000  0.5843120000000  0.5776570000000 1.0
C      1  0.4380380000000  0.5916290000000  0.4800650000000 1.0
C      1  0.5468850000000  0.4225710000000  0.4428850000000 1.0
C      1  0.5231710000000  0.4154910000000  0.5640660000000 1.0
C      1  0.4293080000000  0.4154680000000  0.4937290000000 1.0
C      1  0.5440730000000  0.5819670000000  0.5648780000000 1.0
C      1  0.5291540000000  0.5927540000000  0.4367780000000 1.0
C      1  0.4261760000000  0.5820420000000  0.5037120000000 1.0
C      1  0.5534240000000  0.4200480000000  0.5542600000000 1.0
C      1  0.5201830000000  0.4144470000000  0.4285110000000 1.0
C      1  0.4226360000000  0.4313080000000  0.5214240000000 1.0
C      1  0.5246810000000  0.5135470000000  0.5580110000000 1.0
C      1  0.4389810000000  0.5226840000000  0.4988270000000 1.0
C      1  0.5387650000000  0.5145400000000  0.4565170000000 1.0
C      1  0.5275640000000  0.4845320000000  0.5486970000000 1.0
C      1  0.4416340000000  0.4932400000000  0.4820300000000 1.0
C      1  0.5350870000000  0.4808520000000  0.4537120000000 1.0
C      1  0.5102450000000  0.5288550000000  0.4442060000000 1.0
C      1  0.4371980000000  0.5140890000000  0.5288640000000 1.0
C      1  0.5401480000000  0.5243120000000  0.5320480000000 1.0
C      1  0.5057030000000  0.4841280000000  0.4408250000000 1.0
C      1  0.4352440000000  0.4831890000000  0.5367300000000 1.0
C      1  0.5580220000000  0.4767210000000  0.5467510000000 1.0
C      1  0.6176560000000  0.4724490000000  0.4933230000000 1.0
C      1  0.4424720000000  0.4886270000000  0.5952690000000 1.0
C      1  0.4365300000000  0.4817170000000  0.4148800000000 1.0
C      1  0.6164550000000  0.5306860000000  0.4851480000000 1.0
C      1  0.4463170000000  0.5221430000000  0.5915300000000 1.0
C      1  0.4299060000000  0.5131790000000  0.4096920000000 1.0
C      1  0.6151010000000  0.4903160000000  0.5185440000000 1.0
C      1  0.4549780000000  0.4687800000000  0.3952450000000 1.0
C      1  0.4290910000000  0.4710620000000  0.5784430000000 1.0
C      1  0.6248060000000  0.5216190000000  0.5094680000000 1.0
C      1  0.4519020000000  0.5301020000000  0.4001240000000 1.0
C      1  0.4188920000000  0.5339740000000  0.5800330000000 1.0
C      1  0.4906020000000  0.4724890000000  0.3977790000000 1.0
C      1  0.5848810000000  0.4884990000000  0.5332210000000 1.0
C      1  0.4081130000000  0.4807710000000  0.5573030000000 1.0
C      1  0.4995070000000  0.5241680000000  0.3984950000000 1.0
C      1  0.5865530000000  0.5189430000000  0.5413960000000 1.0
C      1  0.4161920000000  0.5305150000000  0.5477540000000 1.0
C      1  0.4934130000000  0.4773710000000  0.5889220000000 1.0
C      1  0.5676390000000  0.4819820000000  0.4588100000000 1.0
C      1  0.4273060000000  0.4717140000000  0.4460560000000 1.0
C      1  0.4963380000000  0.5085560000000  0.5761190000000 1.0
C      1  0.5730810000000  0.5146580000000  0.4607060000000 1.0
C      1  0.4173530000000  0.5178930000000  0.4409600000000 1.0
C      1  0.5037520000000  0.5599040000000  0.5263640000000 1.0
C      1  0.4749730000000  0.5570200000000  0.4756430000000 1.0
C      1  0.5261530000000  0.5557840000000  0.4839830000000 1.0
C      1  0.5049680000000  0.4372330000000  0.5287680000000 1.0
C      1  0.4688360000000  0.4435840000000  0.4811030000000 1.0
C      1  0.5181400000000  0.4346020000000  0.4837000000000 1.0
C      1  0.5030270000000  0.5694240000000  0.4677920000000 1.0
C      1  0.4774000000000  0.5500310000000  0.5072760000000 1.0
C      1  0.5302190000000  0.5657610000000  0.5131820000000 1.0
C      1  0.4917780000000  0.4313460000000  0.4664190000000 1.0
C      1  0.4785610000000  0.4472480000000  0.5115940000000 1.0
C      1  0.5306750000000  0.4440460000000  0.5131240000000 1.0
C      1  0.4528940000000  0.4456670000000  0.4297010000000 1.0
C      1  0.5974830000000  0.4497720000000  0.4889480000000 1.0
C      1  0.4636270000000  0.4368100000000  0.5826610000000 1.0
C      1  0.4399870000000  0.5625180000000  0.4405770000000 1.0
C      1  0.6010400000000  0.5558200000000  0.4786860000000 1.0
C      1  0.4698280000000  0.5465270000000  0.5884260000000 1.0
C      1  0.4350010000000  0.4421170000000  0.5780310000000 1.0
C      1  0.5832240000000  0.4478730000000  0.5201990000000 1.0
C      1  0.4673030000000  0.4406180000000  0.4039410000000 1.0
C      1  0.4437580000000  0.5527180000000  0.5663750000000 1.0
C      1  0.5981270000000  0.5766010000000  0.5015960000000 1.0
C      1  0.4597990000000  0.5527540000000  0.4207380000000 1.0
C      1  0.4046550000000  0.5692080000000  0.5418870000000 1.0
C      1  0.4859100000000  0.5704130000000  0.4170810000000 1.0
C      1  0.5838810000000  0.5736360000000  0.5219270000000 1.0
C      1  0.4117180000000  0.4179900000000  0.5842400000000 1.0
C      1  0.4929840000000  0.4326300000000  0.3982510000000 1.0
C      1  0.5918950000000  0.4543930000000  0.5524540000000 1.0
C      1  0.4166940000000  0.5544590000000  0.4560720000000 1.0
C      1  0.5012780000000  0.5399970000000  0.5999730000000 1.0
C      1  0.5903680000000  0.5513620000000  0.4484790000000 1.0
C      1  0.4356680000000  0.4321780000000  0.4458540000000 1.0
C      1  0.4722890000000  0.4196840000000  0.6003840000000 1.0
C      1  0.5947480000000  0.4494690000000  0.4543060000000 1.0
C      1  0.4437500000000  0.5831650000000  0.5258410000000 1.0
C      1  0.5189880000000  0.6159540000000  0.4539020000000 1.0
C      1  0.5392710000000  0.6038350000000  0.5412580000000 1.0
C      1  0.4485270000000  0.4138280000000  0.5338360000000 1.0
C      1  0.5048760000000  0.3932260000000  0.4436630000000 1.0
C      1  0.5449310000000  0.3906140000000  0.5421350000000 1.0
C      1  0.4555270000000  0.6135510000000  0.4841660000000 1.0
C      1  0.5113520000000  0.6019890000000  0.5543300000000 1.0
C      1  0.5505860000000  0.6103430000000  0.4650590000000 1.0
C      1  0.4449870000000  0.3933430000000  0.4893980000000 1.0
C      1  0.5149040000000  0.3860880000000  0.5560380000000 1.0
C      1  0.5503860000000  0.4046970000000  0.4710380000000 1.0
C      1  0.5680870000000  0.4988200000000  0.5857070000000 1.0
C      1  0.5651130000000  0.4965570000000  0.4174900000000 1.0
C      1  0.5401580000000  0.4978060000000  0.4026970000000 1.0
C      1  0.5426480000000  0.4973540000000  0.6020200000000 1.0
C      1  0.3917030000000  0.5055750000000  0.5104940000000 1.0
C      1  0.3935270000000  0.5023030000000  0.4820310000000 1.0
C      1  0.4706050000000  0.5015990000000  0.5464090000000 1.0
C      1  0.4665730000000  0.5058010000000  0.4348820000000 1.0
C      1  0.5712040000000  0.5038010000000  0.4989620000000 1.0
END
