TITL C-2622956-4641-685 -0.000395444335322324 125000 -538.110851009172 0 0 101 (C1) n - 1
REM
REM in /nfs/bkarasulu/CARBON/AIRSS/Generating-Clusters/AIREBO/with-SteepDescent/Higher-Symm/SD-CG/HFTN-CG
REM
REM
REM
REM
REM
REM ./C.cell (b20cbc046b6831c77cfcea5457e17084)
REM
REM compiler GCC version 9.2.1 20190827 (Red Hat 9.2.1-1)
REM options -cpp -mtune=generic -march=x86-64 -g -O0 -fpre-include=/usr/include/finclude/math-vector-fortran.h
REM seed -1160672398 893959474 1539658657 -14519238 -1528544590 -1794766189 -972349820 1414681514 -1063740973 -768913288 1120450756 -440617176 744509735 1764229271 -703296127 -1396898267 -87380275 -1996677900 1627023077 872432576 136416793 1376275628 -1828816560 -806181203 1092044624 -879730904 -223665071 345546231 -1692142632 1989865083 1595103160 1269791680 1092880280
REM
CELL 1.54180   50.00000   50.00000   50.00000   90.00000   90.00000   90.00000
LATT -1
SFAC C  
C      1  0.5869890000000  0.4958430000000  0.5256840000000 1.0
C      1  0.4065140000000  0.5153610000000  0.4731400000000 1.0
C      1  0.5755390000000  0.4895460000000  0.5468970000000 1.0
C      1  0.4203100000000  0.5194540000000  0.4525180000000 1.0
C      1  0.5414180000000  0.4729390000000  0.5344270000000 1.0
C      1  0.4606480000000  0.5294950000000  0.4690800000000 1.0
C      1  0.5034730000000  0.4713230000000  0.4179830000000 1.0
C      1  0.4864920000000  0.5317400000000  0.5757060000000 1.0
C      1  0.5740890000000  0.5439740000000  0.4539200000000 1.0
C      1  0.4252320000000  0.4546070000000  0.5486300000000 1.0
C      1  0.4911630000000  0.5147070000000  0.4665830000000 1.0
C      1  0.5096900000000  0.4845360000000  0.5383500000000 1.0
C      1  0.5339890000000  0.5339230000000  0.5174970000000 1.0
C      1  0.4702790000000  0.4595800000000  0.4858480000000 1.0
C      1  0.5134280000000  0.5291030000000  0.5609820000000 1.0
C      1  0.4823910000000  0.4726130000000  0.4429520000000 1.0
C      1  0.4701970000000  0.4932590000000  0.5067060000000 1.0
C      1  0.5320380000000  0.5070210000000  0.4998740000000 1.0
C      1  0.5640000000000  0.5681800000000  0.4996580000000 1.0
C      1  0.4353590000000  0.4272510000000  0.5018610000000 1.0
C      1  0.4730750000000  0.5064750000000  0.5868540000000 1.0
C      1  0.5204590000000  0.4953240000000  0.4136690000000 1.0
C      1  0.5608960000000  0.4509590000000  0.4646680000000 1.0
C      1  0.4483020000000  0.5523680000000  0.5433020000000 1.0
C      1  0.4939280000000  0.5466280000000  0.4549810000000 1.0
C      1  0.5109130000000  0.4513520000000  0.5478500000000 1.0
C      1  0.5174940000000  0.4185150000000  0.5424590000000 1.0
C      1  0.4863870000000  0.5785780000000  0.4538080000000 1.0
C      1  0.4756840000000  0.5548190000000  0.5634740000000 1.0
C      1  0.5008880000000  0.4423620000000  0.4245590000000 1.0
C      1  0.5220870000000  0.4595160000000  0.5097340000000 1.0
C      1  0.4806570000000  0.5421710000000  0.4934920000000 1.0
C      1  0.4554030000000  0.5780770000000  0.4405590000000 1.0
C      1  0.5453940000000  0.4237510000000  0.5612060000000 1.0
C      1  0.4274170000000  0.5037130000000  0.5286600000000 1.0
C      1  0.5758280000000  0.4943980000000  0.4629140000000 1.0
C      1  0.4897580000000  0.4565610000000  0.5793010000000 1.0
C      1  0.5073010000000  0.5407970000000  0.4185710000000 1.0
C      1  0.5614700000000  0.4472750000000  0.5442010000000 1.0
C      1  0.4407250000000  0.5560050000000  0.4610220000000 1.0
C      1  0.5515800000000  0.5113140000000  0.4583620000000 1.0
C      1  0.4514540000000  0.4835410000000  0.5404920000000 1.0
C      1  0.5350070000000  0.5786600000000  0.4564190000000 1.0
C      1  0.4702230000000  0.4172710000000  0.5376570000000 1.0
C      1  0.5520360000000  0.5582190000000  0.5266190000000 1.0
C      1  0.4494200000000  0.4354440000000  0.4759770000000 1.0
C      1  0.5229490000000  0.4130470000000  0.4770750000000 1.0
C      1  0.4918210000000  0.5910250000000  0.5146700000000 1.0
C      1  0.5086000000000  0.5821000000000  0.4935820000000 1.0
C      1  0.4972410000000  0.4141110000000  0.4968390000000 1.0
C      1  0.5380410000000  0.4346460000000  0.5237290000000 1.0
C      1  0.4670490000000  0.5679500000000  0.4771720000000 1.0
C      1  0.5420910000000  0.5178480000000  0.5714040000000 1.0
C      1  0.4527410000000  0.4845930000000  0.4367290000000 1.0
C      1  0.4464720000000  0.4099400000000  0.5240000000000 1.0
C      1  0.5573720000000  0.5851540000000  0.4738360000000 1.0
C      1  0.5465470000000  0.4897300000000  0.5635540000000 1.0
C      1  0.4500530000000  0.5135240000000  0.4409870000000 1.0
C      1  0.5097670000000  0.5531180000000  0.4913880000000 1.0
C      1  0.4952650000000  0.4438160000000  0.5121680000000 1.0
C      1  0.4376660000000  0.5429540000000  0.5123920000000 1.0
C      1  0.5684790000000  0.4593500000000  0.4930440000000 1.0
C      1  0.4779250000000  0.5328380000000  0.5248370000000 1.0
C      1  0.5220600000000  0.4686860000000  0.4794460000000 1.0
C      1  0.5828180000000  0.4900820000000  0.4936760000000 1.0
C      1  0.4172490000000  0.5174660000000  0.5018680000000 1.0
C      1  0.4506260000000  0.4889160000000  0.5896260000000 1.0
C      1  0.5414130000000  0.5117840000000  0.4077840000000 1.0
C      1  0.5110980000000  0.5905730000000  0.4661310000000 1.0
C      1  0.4947560000000  0.4069930000000  0.5273270000000 1.0
C      1  0.4733630000000  0.5071820000000  0.5470170000000 1.0
C      1  0.5253230000000  0.4952940000000  0.4598080000000 1.0
C      1  0.5031540000000  0.4344450000000  0.4502710000000 1.0
C      1  0.4990640000000  0.5693110000000  0.5472800000000 1.0
C      1  0.4375990000000  0.5658710000000  0.4929980000000 1.0
C      1  0.5694220000000  0.4375370000000  0.5131600000000 1.0
C      1  0.4505940000000  0.5149270000000  0.4981140000000 1.0
C      1  0.5528050000000  0.4867290000000  0.5070520000000 1.0
C      1  0.5526630000000  0.5302290000000  0.4313510000000 1.0
C      1  0.4398210000000  0.4733300000000  0.5682800000000 1.0
C      1  0.5078160000000  0.5174320000000  0.5299200000000 1.0
C      1  0.4910030000000  0.4816590000000  0.4745820000000 1.0
C      1  0.4787100000000  0.5275260000000  0.4313230000000 1.0
C      1  0.5201030000000  0.4710320000000  0.5740120000000 1.0
C      1  0.5746250000000  0.4699900000000  0.4496440000000 1.0
C      1  0.4445340000000  0.5221150000000  0.5455750000000 1.0
C      1  0.4674670000000  0.4619300000000  0.5196750000000 1.0
C      1  0.5327810000000  0.5324200000000  0.4772740000000 1.0
C      1  0.4728180000000  0.5664580000000  0.5258650000000 1.0
C      1  0.5311550000000  0.4429620000000  0.4637530000000 1.0
C      1  0.4363700000000  0.4485620000000  0.5229110000000 1.0
C      1  0.5632410000000  0.5461740000000  0.4794090000000 1.0
C      1  0.4537510000000  0.4549030000000  0.4498060000000 1.0
C      1  0.5423700000000  0.5467410000000  0.5561160000000 1.0
C      1  0.5210890000000  0.5692360000000  0.5309790000000 1.0
C      1  0.4829560000000  0.4306710000000  0.4732050000000 1.0
C      1  0.4771990000000  0.4470110000000  0.5486610000000 1.0
C      1  0.5269950000000  0.5468680000000  0.4470280000000 1.0
C      1  0.4958140000000  0.4938690000000  0.5673060000000 1.0
C      1  0.5041030000000  0.5058730000000  0.4378440000000 1.0
C      1  0.5006410000000  0.4994640000000  0.5019120000000 1.0
END
