TITL C-2622953-3516-830 -0.000450576149021044 125000 -557.382141041324 0 0 103 (C1) n - 1
REM
REM in /nfs/bkarasulu/CARBON/AIRSS/Generating-Clusters/AIREBO/with-SteepDescent/Higher-Symm/SD-CG/HFTN-CG
REM
REM
REM
REM
REM
REM ./C.cell (b20cbc046b6831c77cfcea5457e17084)
REM
REM compiler GCC version 9.2.1 20190827 (Red Hat 9.2.1-1)
REM options -cpp -mtune=generic -march=x86-64 -g -O0 -fpre-include=/usr/include/finclude/math-vector-fortran.h
REM seed -2117769963 -479169963 -1905547340 268970646 -687538085 -158032358 1489914401 793364229 956328589 -1424212052 -892587992 783248907 -243962442 -750757995 -1063165707 2055281493 849270711 -801803652 1683369155 2079022337 -545335656 1539910258 -1601576790 -1090397019 2042342182 -897461591 1030715606 -1836718657 -1649765211 1143054008 1528062581 -1127079346 -1455511852
REM
CELL 1.54180   50.00000   50.00000   50.00000   90.00000   90.00000   90.00000
LATT -1
SFAC C  
C      1  0.4481490000000  0.5591900000000  0.5197550000000 1.0
C      1  0.4784860000000  0.4260090000000  0.5156780000000 1.0
C      1  0.5777440000000  0.5159920000000  0.5153070000000 1.0
C      1  0.4862440000000  0.5692130000000  0.5605320000000 1.0
C      1  0.4414830000000  0.4536300000000  0.5581960000000 1.0
C      1  0.5648760000000  0.4666490000000  0.5551600000000 1.0
C      1  0.5040490000000  0.4850280000000  0.5343450000000 1.0
C      1  0.5136020000000  0.5172240000000  0.5397390000000 1.0
C      1  0.4745070000000  0.4965750000000  0.5466380000000 1.0
C      1  0.4502420000000  0.4209080000000  0.4420610000000 1.0
C      1  0.6060540000000  0.4871640000000  0.4600600000000 1.0
C      1  0.4614970000000  0.5796280000000  0.4589670000000 1.0
C      1  0.4779710000000  0.4142260000000  0.4520760000000 1.0
C      1  0.5803040000000  0.5369960000000  0.4572100000000 1.0
C      1  0.4446890000000  0.5562440000000  0.4562390000000 1.0
C      1  0.5472000000000  0.4728160000000  0.5789110000000 1.0
C      1  0.5053160000000  0.5411240000000  0.5624760000000 1.0
C      1  0.4575870000000  0.4779670000000  0.5695220000000 1.0
C      1  0.5238760000000  0.5356210000000  0.4615010000000 1.0
C      1  0.4526630000000  0.4995160000000  0.4698150000000 1.0
C      1  0.5321040000000  0.4549750000000  0.4789550000000 1.0
C      1  0.4478340000000  0.4814090000000  0.5211490000000 1.0
C      1  0.5348230000000  0.4738100000000  0.5409430000000 1.0
C      1  0.5098250000000  0.5518290000000  0.5202300000000 1.0
C      1  0.4090730000000  0.4783530000000  0.5300360000000 1.0
C      1  0.5614940000000  0.4388310000000  0.5266350000000 1.0
C      1  0.5215090000000  0.5884030000000  0.5316670000000 1.0
C      1  0.4452740000000  0.5267000000000  0.4411730000000 1.0
C      1  0.5015990000000  0.4385830000000  0.4498490000000 1.0
C      1  0.5539650000000  0.5448760000000  0.4376370000000 1.0
C      1  0.5519010000000  0.5227270000000  0.5719770000000 1.0
C      1  0.4579720000000  0.5283810000000  0.5719950000000 1.0
C      1  0.4993710000000  0.4550900000000  0.5723070000000 1.0
C      1  0.5268000000000  0.5754620000000  0.5025070000000 1.0
C      1  0.4212260000000  0.4899870000000  0.5014180000000 1.0
C      1  0.5535500000000  0.4362470000000  0.4979640000000 1.0
C      1  0.4909460000000  0.4545230000000  0.5417180000000 1.0
C      1  0.5466260000000  0.5209330000000  0.5397180000000 1.0
C      1  0.4606620000000  0.5269330000000  0.5399940000000 1.0
C      1  0.4800690000000  0.4667150000000  0.5873990000000 1.0
C      1  0.5500440000000  0.4995360000000  0.5874790000000 1.0
C      1  0.4809220000000  0.5366900000000  0.5831840000000 1.0
C      1  0.4820130000000  0.4894760000000  0.4838110000000 1.0
C      1  0.5272870000000  0.4871860000000  0.4757560000000 1.0
C      1  0.5056440000000  0.5132890000000  0.4782490000000 1.0
C      1  0.5255700000000  0.4210350000000  0.4985600000000 1.0
C      1  0.5506330000000  0.5598980000000  0.4909410000000 1.0
C      1  0.4256250000000  0.5194270000000  0.4914540000000 1.0
C      1  0.5288720000000  0.4583820000000  0.4452760000000 1.0
C      1  0.5232090000000  0.5590970000000  0.4405960000000 1.0
C      1  0.4488800000000  0.4937510000000  0.4385740000000 1.0
C      1  0.4498090000000  0.5511180000000  0.4883440000000 1.0
C      1  0.4792930000000  0.4267300000000  0.4839700000000 1.0
C      1  0.5722910000000  0.5230120000000  0.4832540000000 1.0
C      1  0.5206170000000  0.4882110000000  0.4363740000000 1.0
C      1  0.4970460000000  0.5545260000000  0.4225210000000 1.0
C      1  0.4713900000000  0.4742700000000  0.4259440000000 1.0
C      1  0.5856060000000  0.4732330000000  0.4831550000000 1.0
C      1  0.4823790000000  0.5785840000000  0.4835440000000 1.0
C      1  0.4316600000000  0.4473280000000  0.4846950000000 1.0
C      1  0.4744740000000  0.5417080000000  0.4322270000000 1.0
C      1  0.4836370000000  0.4488450000000  0.4228490000000 1.0
C      1  0.5399760000000  0.5158980000000  0.4307330000000 1.0
C      1  0.4410940000000  0.5046330000000  0.5669720000000 1.0
C      1  0.5271430000000  0.4520470000000  0.5735060000000 1.0
C      1  0.5359700000000  0.5476550000000  0.5673290000000 1.0
C      1  0.5556370000000  0.5674630000000  0.4630310000000 1.0
C      1  0.4199280000000  0.5261750000000  0.4638780000000 1.0
C      1  0.5169700000000  0.4155690000000  0.4696120000000 1.0
C      1  0.4794660000000  0.5464640000000  0.4727070000000 1.0
C      1  0.4551410000000  0.4424630000000  0.4679070000000 1.0
C      1  0.5755810000000  0.4981040000000  0.4649820000000 1.0
C      1  0.5070380000000  0.4761440000000  0.5016250000000 1.0
C      1  0.5153240000000  0.5238010000000  0.5077520000000 1.0
C      1  0.4722840000000  0.4994740000000  0.5136220000000 1.0
C      1  0.5590660000000  0.4473280000000  0.4504430000000 1.0
C      1  0.5214770000000  0.5865230000000  0.4549060000000 1.0
C      1  0.4221060000000  0.4802900000000  0.4527680000000 1.0
C      1  0.4201670000000  0.4529460000000  0.5360270000000 1.0
C      1  0.5819230000000  0.4598230000000  0.5328820000000 1.0
C      1  0.4939410000000  0.5901250000000  0.5382000000000 1.0
C      1  0.5552960000000  0.4933760000000  0.5271670000000 1.0
C      1  0.4797470000000  0.5536070000000  0.5310310000000 1.0
C      1  0.4594560000000  0.4505270000000  0.5294990000000 1.0
C      1  0.4590330000000  0.5203800000000  0.4943540000000 1.0
C      1  0.5032660000000  0.4457640000000  0.4916990000000 1.0
C      1  0.5409530000000  0.5288890000000  0.4886090000000 1.0
C      1  0.5106220000000  0.5869240000000  0.4802500000000 1.0
C      1  0.4196200000000  0.4711840000000  0.4782950000000 1.0
C      1  0.5712930000000  0.4482340000000  0.4754020000000 1.0
C      1  0.5828830000000  0.4822760000000  0.5112750000000 1.0
C      1  0.4733980000000  0.5814550000000  0.5125320000000 1.0
C      1  0.4325720000000  0.4394820000000  0.5112770000000 1.0
C      1  0.5601670000000  0.5450180000000  0.5195770000000 1.0
C      1  0.4318930000000  0.5301570000000  0.5219130000000 1.0
C      1  0.5091650000000  0.4288430000000  0.5273530000000 1.0
C      1  0.5492440000000  0.4935510000000  0.4536790000000 1.0
C      1  0.4828790000000  0.5197650000000  0.4538350000000 1.0
C      1  0.4817740000000  0.4629940000000  0.4627930000000 1.0
C      1  0.5348920000000  0.4405760000000  0.5439830000000 1.0
C      1  0.5371290000000  0.5597170000000  0.5384210000000 1.0
C      1  0.4287130000000  0.5030240000000  0.5391290000000 1.0
C      1  0.4914270000000  0.4910120000000  0.4450190000000 1.0
END
