TITL C-2622960-5345-196 -0.00146202811268446 125000 -442.461899673971 0 0 77 (C1) n - 1
REM
REM in /nfs/bkarasulu/CARBON/AIRSS/Generating-Clusters/AIREBO/with-SteepDescent/Higher-Symm/SD-CG/HFTN-CG
REM
REM
REM
REM
REM
REM ./C.cell (b20cbc046b6831c77cfcea5457e17084)
REM
REM compiler GCC version 9.2.1 20190827 (Red Hat 9.2.1-1)
REM options -cpp -mtune=generic -march=x86-64 -g -O0 -fpre-include=/usr/include/finclude/math-vector-fortran.h
REM seed -755638638 1600143119 1641335064 -1297848510 -1780442370 -1200768458 178463445 -679582619 -106411813 -1809847354 2123807013 1760680402 29940579 547817530 407701224 -1432046563 -1250506246 -878815438 -1255267627 1291317498 952664553 -256659906 1179147372 -1843466432 1135988164 -211296086 1277870459 1855808049 200551704 81325496 66883761 1524659455 1429320435
REM
CELL 1.54180   50.00000   50.00000   50.00000   90.00000   90.00000   90.00000
LATT -1
SFAC C  
C      1  0.4313470000000  0.5215680000000  0.5367120000000 1.0
C      1  0.5269300000000  0.5422870000000  0.4329050000000 1.0
C      1  0.5444240000000  0.4323900000000  0.5192330000000 1.0
C      1  0.5675740000000  0.5201230000000  0.4628660000000 1.0
C      1  0.5671080000000  0.4768020000000  0.5395570000000 1.0
C      1  0.4343360000000  0.4716880000000  0.4504810000000 1.0
C      1  0.4738220000000  0.5398150000000  0.5549780000000 1.0
C      1  0.4761380000000  0.4586970000000  0.4295980000000 1.0
C      1  0.5288330000000  0.4536350000000  0.5686340000000 1.0
C      1  0.4505970000000  0.4434790000000  0.4736750000000 1.0
C      1  0.4538430000000  0.5619590000000  0.5136060000000 1.0
C      1  0.5439990000000  0.5642620000000  0.4793550000000 1.0
C      1  0.5498220000000  0.5170650000000  0.4340160000000 1.0
C      1  0.4305740000000  0.5464140000000  0.5182310000000 1.0
C      1  0.5262280000000  0.4353280000000  0.5451420000000 1.0
C      1  0.4557180000000  0.5186050000000  0.5513190000000 1.0
C      1  0.5466260000000  0.4749890000000  0.5656570000000 1.0
C      1  0.4481480000000  0.4672440000000  0.4263520000000 1.0
C      1  0.5617030000000  0.5439920000000  0.4809860000000 1.0
C      1  0.4218920000000  0.4596300000000  0.4772600000000 1.0
C      1  0.5658400000000  0.4573170000000  0.5159190000000 1.0
C      1  0.4732760000000  0.4428380000000  0.4542160000000 1.0
C      1  0.5309260000000  0.5686080000000  0.4518200000000 1.0
C      1  0.4751310000000  0.5664740000000  0.5346240000000 1.0
C      1  0.5176660000000  0.4553850000000  0.4963800000000 1.0
C      1  0.4505960000000  0.4885320000000  0.5256710000000 1.0
C      1  0.5068920000000  0.5377500000000  0.4595730000000 1.0
C      1  0.4623220000000  0.4383980000000  0.5013700000000 1.0
C      1  0.4661320000000  0.5624030000000  0.4868950000000 1.0
C      1  0.5147720000000  0.5538300000000  0.5045710000000 1.0
C      1  0.5438570000000  0.4953710000000  0.4833690000000 1.0
C      1  0.5475070000000  0.5030840000000  0.5354250000000 1.0
C      1  0.4495310000000  0.4881470000000  0.4741390000000 1.0
C      1  0.5050220000000  0.5300070000000  0.5589870000000 1.0
C      1  0.4940500000000  0.4746570000000  0.4657010000000 1.0
C      1  0.5001550000000  0.4811470000000  0.5394230000000 1.0
C      1  0.5082700000000  0.4541200000000  0.5250450000000 1.0
C      1  0.5270840000000  0.5118020000000  0.4587170000000 1.0
C      1  0.4489610000000  0.5086970000000  0.4981890000000 1.0
C      1  0.5004890000000  0.4422910000000  0.4702660000000 1.0
C      1  0.4947930000000  0.5467260000000  0.4833360000000 1.0
C      1  0.5064990000000  0.5534770000000  0.5375500000000 1.0
C      1  0.4705750000000  0.4889630000000  0.5510180000000 1.0
C      1  0.5201950000000  0.5024370000000  0.5464690000000 1.0
C      1  0.4726600000000  0.4899200000000  0.4542870000000 1.0
C      1  0.5504060000000  0.5142280000000  0.5051290000000 1.0
C      1  0.4615030000000  0.4708810000000  0.5006320000000 1.0
C      1  0.5442830000000  0.4652900000000  0.4922610000000 1.0
C      1  0.5252670000000  0.5840370000000  0.4998440000000 1.0
C      1  0.5808150000000  0.5065280000000  0.5295010000000 1.0
C      1  0.5061190000000  0.5074090000000  0.5831700000000 1.0
C      1  0.4829380000000  0.5821850000000  0.4692760000000 1.0
C      1  0.4835740000000  0.4216550000000  0.5097200000000 1.0
C      1  0.5318000000000  0.4164840000000  0.5005020000000 1.0
C      1  0.4021390000000  0.5078600000000  0.4900500000000 1.0
C      1  0.4188130000000  0.4938500000000  0.5234270000000 1.0
C      1  0.5832640000000  0.4985220000000  0.4778120000000 1.0
C      1  0.4951290000000  0.5300180000000  0.4298470000000 1.0
C      1  0.5038690000000  0.4601360000000  0.5816040000000 1.0
C      1  0.4981380000000  0.4804160000000  0.4251110000000 1.0
C      1  0.5025850000000  0.5849880000000  0.5253860000000 1.0
C      1  0.5361930000000  0.4999600000000  0.5780820000000 1.0
C      1  0.5811290000000  0.5239220000000  0.5003830000000 1.0
C      1  0.5103910000000  0.5829000000000  0.4693750000000 1.0
C      1  0.5047630000000  0.4183710000000  0.4904190000000 1.0
C      1  0.4949800000000  0.4251830000000  0.5368120000000 1.0
C      1  0.4811450000000  0.5061720000000  0.4302050000000 1.0
C      1  0.5251830000000  0.4921440000000  0.4310340000000 1.0
C      1  0.4894520000000  0.4847920000000  0.5777720000000 1.0
C      1  0.4231770000000  0.5251460000000  0.4978020000000 1.0
C      1  0.5767470000000  0.4729770000000  0.4873660000000 1.0
C      1  0.4098380000000  0.4786220000000  0.4957770000000 1.0
C      1  0.5109750000000  0.4922850000000  0.4799110000000 1.0
C      1  0.4874990000000  0.4849980000000  0.5114130000000 1.0
C      1  0.4722790000000  0.5265210000000  0.4945230000000 1.0
C      1  0.5225660000000  0.5256150000000  0.5139760000000 1.0
C      1  0.4984030000000  0.5108970000000  0.5007150000000 1.0
END
