TITL C-2622962-9663-415 -0.00139038684139158 125000 -445.588671687156 0 0 80 (C1) n - 1
REM
REM in /nfs/bkarasulu/CARBON/AIRSS/Generating-Clusters/AIREBO/with-SteepDescent/Higher-Symm/SD-CG/HFTN-CG
REM
REM
REM
REM
REM
REM ./C.cell (b20cbc046b6831c77cfcea5457e17084)
REM
REM compiler GCC version 9.2.1 20190827 (Red Hat 9.2.1-1)
REM options -cpp -mtune=generic -march=x86-64 -g -O0 -fpre-include=/usr/include/finclude/math-vector-fortran.h
REM seed 659373409 1602722870 1092290275 -1166963469 416643668 -1309316353 -327529836 181066732 -877688537 -1262396763 -716310255 -1052594981 -667826395 2025184627 -1973032506 1778561195 -1401190915 -1071455183 -1147939851 -1408852019 -1395239298 -1183497128 1586593535 616918902 1653770344 -618533796 -1124631696 1384477778 605069660 1400100536 -187969970 -72622683 -2031068728
REM
CELL 1.54180   50.00000   50.00000   50.00000   90.00000   90.00000   90.00000
LATT -1
SFAC C  
C      1  0.4831600000000  0.4564860000000  0.5419640000000 1.0
C      1  0.4991880000000  0.5621270000000  0.4677280000000 1.0
C      1  0.4906660000000  0.5690760000000  0.5401300000000 1.0
C      1  0.4804320000000  0.4304620000000  0.4662040000000 1.0
C      1  0.4718600000000  0.4847020000000  0.4647640000000 1.0
C      1  0.4662720000000  0.5202200000000  0.5335000000000 1.0
C      1  0.5350240000000  0.5280400000000  0.4649020000000 1.0
C      1  0.5456260000000  0.4820200000000  0.5367640000000 1.0
C      1  0.5321470000000  0.4178290000000  0.4855900000000 1.0
C      1  0.5346930000000  0.5828400000000  0.5169050000000 1.0
C      1  0.4783290000000  0.5943750000000  0.4834480000000 1.0
C      1  0.4776410000000  0.4075310000000  0.5245540000000 1.0
C      1  0.5325550000000  0.4898320000000  0.4430030000000 1.0
C      1  0.5152320000000  0.5243310000000  0.5445680000000 1.0
C      1  0.4750280000000  0.5363490000000  0.4295110000000 1.0
C      1  0.4846340000000  0.4383030000000  0.5910430000000 1.0
C      1  0.5091420000000  0.4230230000000  0.5095700000000 1.0
C      1  0.5127560000000  0.5759220000000  0.4916110000000 1.0
C      1  0.4846930000000  0.5752110000000  0.5108180000000 1.0
C      1  0.4806590000000  0.4210300000000  0.4934930000000 1.0
C      1  0.5859490000000  0.5062990000000  0.4874050000000 1.0
C      1  0.5852460000000  0.4969070000000  0.5125880000000 1.0
C      1  0.4251590000000  0.4983700000000  0.4842960000000 1.0
C      1  0.4166680000000  0.5165270000000  0.5082610000000 1.0
C      1  0.5621500000000  0.4593610000000  0.4808980000000 1.0
C      1  0.5826430000000  0.5541030000000  0.5150410000000 1.0
C      1  0.4465510000000  0.5394370000000  0.4573000000000 1.0
C      1  0.4279130000000  0.4618980000000  0.5431580000000 1.0
C      1  0.4540550000000  0.4409920000000  0.5383560000000 1.0
C      1  0.4656590000000  0.5579430000000  0.4729960000000 1.0
C      1  0.5586520000000  0.5443040000000  0.5370810000000 1.0
C      1  0.5423910000000  0.4533610000000  0.4560580000000 1.0
C      1  0.5780110000000  0.4990790000000  0.4573950000000 1.0
C      1  0.5786570000000  0.5100530000000  0.5388660000000 1.0
C      1  0.4290100000000  0.5101750000000  0.4535190000000 1.0
C      1  0.4071900000000  0.5024020000000  0.5377010000000 1.0
C      1  0.5741020000000  0.5563050000000  0.4877230000000 1.0
C      1  0.5686140000000  0.4513890000000  0.5081180000000 1.0
C      1  0.4333430000000  0.4424990000000  0.4921500000000 1.0
C      1  0.4340160000000  0.5456440000000  0.5126620000000 1.0
C      1  0.5370630000000  0.5651670000000  0.5386790000000 1.0
C      1  0.5303430000000  0.4266030000000  0.4587510000000 1.0
C      1  0.4800920000000  0.4080680000000  0.5511420000000 1.0
C      1  0.4706160000000  0.5867220000000  0.4556700000000 1.0
C      1  0.4807620000000  0.4335990000000  0.4321690000000 1.0
C      1  0.4695070000000  0.5659010000000  0.5580080000000 1.0
C      1  0.5234830000000  0.5535310000000  0.4232050000000 1.0
C      1  0.5102370000000  0.4415770000000  0.5363330000000 1.0
C      1  0.5130470000000  0.5527880000000  0.5452550000000 1.0
C      1  0.5064780000000  0.4213200000000  0.4468910000000 1.0
C      1  0.4831530000000  0.4327840000000  0.5644070000000 1.0
C      1  0.4834400000000  0.5609160000000  0.4376180000000 1.0
C      1  0.4381890000000  0.4724720000000  0.4896510000000 1.0
C      1  0.4333570000000  0.5227150000000  0.5377580000000 1.0
C      1  0.5685790000000  0.5291550000000  0.4707430000000 1.0
C      1  0.5725700000000  0.4732870000000  0.5245090000000 1.0
C      1  0.4945400000000  0.5077280000000  0.5355150000000 1.0
C      1  0.5189410000000  0.5021890000000  0.4696610000000 1.0
C      1  0.4945370000000  0.4798230000000  0.5219630000000 1.0
C      1  0.4912140000000  0.5061830000000  0.4795400000000 1.0
C      1  0.4491560000000  0.4679190000000  0.5197310000000 1.0
C      1  0.4482720000000  0.5211590000000  0.4842660000000 1.0
C      1  0.5533720000000  0.5275940000000  0.5098980000000 1.0
C      1  0.5325660000000  0.4760520000000  0.4805370000000 1.0
C      1  0.4526520000000  0.4284480000000  0.5083110000000 1.0
C      1  0.4623500000000  0.5532240000000  0.5032970000000 1.0
C      1  0.5464070000000  0.5732520000000  0.4875370000000 1.0
C      1  0.5376720000000  0.4421210000000  0.5073520000000 1.0
C      1  0.4774210000000  0.4604220000000  0.4498710000000 1.0
C      1  0.4592300000000  0.5406400000000  0.5593040000000 1.0
C      1  0.5196800000000  0.5477440000000  0.4482400000000 1.0
C      1  0.5320360000000  0.4542280000000  0.5471790000000 1.0
C      1  0.4714440000000  0.4776510000000  0.4980250000000 1.0
C      1  0.4747410000000  0.5217240000000  0.5015110000000 1.0
C      1  0.5373850000000  0.5415550000000  0.4921130000000 1.0
C      1  0.5236240000000  0.4724870000000  0.5126380000000 1.0
C      1  0.4081220000000  0.4782200000000  0.5493080000000 1.0
C      1  0.4623510000000  0.5108380000000  0.4478670000000 1.0
C      1  0.5457580000000  0.5142160000000  0.5464230000000 1.0
C      1  0.5598980000000  0.4812250000000  0.4474820000000 1.0
END
