TITL C-2622961-1971-494 0.00123724194293069 125000 -690.922786033268 0 0 129 (C1) n - 1
REM
REM in /nfs/bkarasulu/CARBON/AIRSS/Generating-Clusters/AIREBO/with-SteepDescent/Higher-Symm/SD-CG/HFTN-CG
REM
REM
REM
REM
REM
REM ./C.cell (b20cbc046b6831c77cfcea5457e17084)
REM
REM compiler GCC version 9.2.1 20190827 (Red Hat 9.2.1-1)
REM options -cpp -mtune=generic -march=x86-64 -g -O0 -fpre-include=/usr/include/finclude/math-vector-fortran.h
REM seed -1251234963 -608243072 1816154580 940877285 -1741115929 -880642602 1133336656 -1595200013 -251157814 -686398892 259147034 409439138 -1162027319 -222501854 -343919583 607189896 -658806802 -296947717 2057923182 1094277425 -1070212416 -470452819 2079016190 -1886843744 1279196859 -1095622739 619620730 -1169870024 441957141 -1931330323 96886058 1468516496 1658870018
REM
CELL 1.54180   50.00000   50.00000   50.00000   90.00000   90.00000   90.00000
LATT -1
SFAC C  
C      1  0.4505610000000  0.4408100000000  0.4797160000000 1.0
C      1  0.4555930000000  0.5539470000000  0.5192770000000 1.0
C      1  0.5400860000000  0.4390990000000  0.5220460000000 1.0
C      1  0.5506150000000  0.5522140000000  0.4811810000000 1.0
C      1  0.4861950000000  0.4628040000000  0.5280830000000 1.0
C      1  0.4910940000000  0.5366460000000  0.4688460000000 1.0
C      1  0.5097610000000  0.4639720000000  0.4717970000000 1.0
C      1  0.5128030000000  0.5337890000000  0.5293080000000 1.0
C      1  0.4650710000000  0.5100020000000  0.4082180000000 1.0
C      1  0.4649150000000  0.4948190000000  0.5920680000000 1.0
C      1  0.5283930000000  0.5058440000000  0.5947760000000 1.0
C      1  0.5319880000000  0.4902840000000  0.4067000000000 1.0
C      1  0.4566130000000  0.5503990000000  0.4520270000000 1.0
C      1  0.4521360000000  0.4479700000000  0.5425380000000 1.0
C      1  0.5496050000000  0.5420980000000  0.5604580000000 1.0
C      1  0.5425170000000  0.4503160000000  0.4537950000000 1.0
C      1  0.4792750000000  0.5776690000000  0.4963570000000 1.0
C      1  0.4796660000000  0.4211990000000  0.5026670000000 1.0
C      1  0.5112330000000  0.5788090000000  0.5050840000000 1.0
C      1  0.5114070000000  0.4196290000000  0.4934610000000 1.0
C      1  0.5861500000000  0.4670810000000  0.5241570000000 1.0
C      1  0.5833860000000  0.5431780000000  0.4798010000000 1.0
C      1  0.4192580000000  0.4536250000000  0.4833980000000 1.0
C      1  0.4101500000000  0.5405740000000  0.5210370000000 1.0
C      1  0.4349130000000  0.5450440000000  0.5431510000000 1.0
C      1  0.4335360000000  0.4517590000000  0.4523640000000 1.0
C      1  0.5645110000000  0.5449620000000  0.4509820000000 1.0
C      1  0.5634070000000  0.4546500000000  0.5413010000000 1.0
C      1  0.5437100000000  0.4822440000000  0.4558410000000 1.0
C      1  0.5483600000000  0.5143820000000  0.5411650000000 1.0
C      1  0.4538090000000  0.4814730000000  0.5414470000000 1.0
C      1  0.4495410000000  0.5202990000000  0.4571870000000 1.0
C      1  0.4893660000000  0.5155260000000  0.4262790000000 1.0
C      1  0.4889260000000  0.4859040000000  0.5716410000000 1.0
C      1  0.5085890000000  0.5135020000000  0.5747970000000 1.0
C      1  0.5069300000000  0.4864480000000  0.4247170000000 1.0
C      1  0.4876030000000  0.5462510000000  0.4386670000000 1.0
C      1  0.4800900000000  0.4566100000000  0.5598610000000 1.0
C      1  0.5174770000000  0.5404540000000  0.5590220000000 1.0
C      1  0.5125050000000  0.4579320000000  0.4396970000000 1.0
C      1  0.5049660000000  0.5681030000000  0.4316200000000 1.0
C      1  0.4939230000000  0.4332540000000  0.5694260000000 1.0
C      1  0.5029220000000  0.5639570000000  0.5668680000000 1.0
C      1  0.4967160000000  0.4361410000000  0.4298880000000 1.0
C      1  0.4420710000000  0.5001730000000  0.5181460000000 1.0
C      1  0.4375090000000  0.4996390000000  0.4789770000000 1.0
C      1  0.5547470000000  0.4997930000000  0.4805690000000 1.0
C      1  0.5611990000000  0.4977070000000  0.5196700000000 1.0
C      1  0.5337650000000  0.5385610000000  0.4263340000000 1.0
C      1  0.5377290000000  0.4660910000000  0.5694830000000 1.0
C      1  0.4644800000000  0.5386770000000  0.5691340000000 1.0
C      1  0.4648270000000  0.4632820000000  0.4304380000000 1.0
C      1  0.4846520000000  0.4141860000000  0.4505490000000 1.0
C      1  0.4854430000000  0.5835060000000  0.5484750000000 1.0
C      1  0.5148860000000  0.4230540000000  0.5533900000000 1.0
C      1  0.5210100000000  0.5842010000000  0.4526210000000 1.0
C      1  0.5715080000000  0.4837250000000  0.5573370000000 1.0
C      1  0.5746410000000  0.5186860000000  0.4337260000000 1.0
C      1  0.4274690000000  0.4794320000000  0.4390570000000 1.0
C      1  0.4300440000000  0.5194360000000  0.5627550000000 1.0
C      1  0.4089710000000  0.5149660000000  0.5392960000000 1.0
C      1  0.4065700000000  0.4786590000000  0.4641990000000 1.0
C      1  0.5908450000000  0.5167920000000  0.4608230000000 1.0
C      1  0.5970510000000  0.4912140000000  0.5383750000000 1.0
C      1  0.5381120000000  0.4762850000000  0.5081170000000 1.0
C      1  0.5350660000000  0.5203540000000  0.4991750000000 1.0
C      1  0.4612640000000  0.4785000000000  0.4866700000000 1.0
C      1  0.4629330000000  0.5182050000000  0.5034460000000 1.0
C      1  0.3978610000000  0.5014710000000  0.4789280000000 1.0
C      1  0.4041120000000  0.4912210000000  0.5264700000000 1.0
C      1  0.5983380000000  0.5129320000000  0.5222480000000 1.0
C      1  0.5960820000000  0.4931870000000  0.4740440000000 1.0
C      1  0.4569630000000  0.5669600000000  0.5569500000000 1.0
C      1  0.4584340000000  0.4337020000000  0.4411750000000 1.0
C      1  0.5445820000000  0.5661950000000  0.4368060000000 1.0
C      1  0.5445180000000  0.4354180000000  0.5614570000000 1.0
C      1  0.5504510000000  0.5832430000000  0.4672320000000 1.0
C      1  0.5421560000000  0.4093440000000  0.5384050000000 1.0
C      1  0.4553510000000  0.5908310000000  0.5343270000000 1.0
C      1  0.4559310000000  0.4099630000000  0.4664140000000 1.0
C      1  0.4458310000000  0.4928330000000  0.5672240000000 1.0
C      1  0.4403780000000  0.5082150000000  0.4312430000000 1.0
C      1  0.5548800000000  0.4926010000000  0.4304500000000 1.0
C      1  0.5623150000000  0.5134570000000  0.5710370000000 1.0
C      1  0.5167360000000  0.4817800000000  0.5524800000000 1.0
C      1  0.5175410000000  0.5188360000000  0.4450670000000 1.0
C      1  0.4835080000000  0.4837160000000  0.4492720000000 1.0
C      1  0.4835210000000  0.5202590000000  0.5527880000000 1.0
C      1  0.4231800000000  0.4143890000000  0.5172380000000 1.0
C      1  0.4271760000000  0.5809490000000  0.4853490000000 1.0
C      1  0.5713070000000  0.4160400000000  0.4856390000000 1.0
C      1  0.5693470000000  0.5778490000000  0.5244110000000 1.0
C      1  0.4221820000000  0.4786470000000  0.5009060000000 1.0
C      1  0.4184910000000  0.5179130000000  0.5004410000000 1.0
C      1  0.5768000000000  0.4789820000000  0.4959570000000 1.0
C      1  0.5770050000000  0.5186680000000  0.4982320000000 1.0
C      1  0.4825080000000  0.4953800000000  0.5295060000000 1.0
C      1  0.4764440000000  0.5064100000000  0.4745490000000 1.0
C      1  0.5162720000000  0.4961030000000  0.4704580000000 1.0
C      1  0.5216260000000  0.5013570000000  0.5241210000000 1.0
C      1  0.4719910000000  0.5774080000000  0.4629320000000 1.0
C      1  0.4740760000000  0.4255040000000  0.5355800000000 1.0
C      1  0.5192360000000  0.6183350000000  0.5354470000000 1.0
C      1  0.5330990000000  0.4182940000000  0.4494840000000 1.0
C      1  0.4824560000000  0.5347070000000  0.5243710000000 1.0
C      1  0.4783680000000  0.4564150000000  0.4672840000000 1.0
C      1  0.5221840000000  0.5352430000000  0.4721870000000 1.0
C      1  0.5162060000000  0.4620780000000  0.5286970000000 1.0
C      1  0.5634920000000  0.5669580000000  0.5486360000000 1.0
C      1  0.5682200000000  0.4310950000000  0.4629110000000 1.0
C      1  0.4326000000000  0.5719580000000  0.4599490000000 1.0
C      1  0.4257170000000  0.4316120000000  0.5387470000000 1.0
C      1  0.5256720000000  0.4487680000000  0.4924740000000 1.0
C      1  0.5285830000000  0.5527890000000  0.5070890000000 1.0
C      1  0.4693370000000  0.4520560000000  0.5057500000000 1.0
C      1  0.4705010000000  0.5477180000000  0.4893190000000 1.0
C      1  0.5113600000000  0.4096360000000  0.4646530000000 1.0
C      1  0.5064430000000  0.5962630000000  0.5301650000000 1.0
C      1  0.5028150000000  0.4105080000000  0.5253070000000 1.0
C      1  0.5014520000000  0.5892080000000  0.4739000000000 1.0
C      1  0.5615040000000  0.5788080000000  0.4993720000000 1.0
C      1  0.5574220000000  0.4135010000000  0.5078880000000 1.0
C      1  0.4416420000000  0.5822400000000  0.5091050000000 1.0
C      1  0.4366490000000  0.4135390000000  0.4945210000000 1.0
C      1  0.5539770000000  0.4861250000000  0.5869970000000 1.0
C      1  0.5504400000000  0.5187630000000  0.4093960000000 1.0
C      1  0.4468230000000  0.4814490000000  0.4110220000000 1.0
C      1  0.4510240000000  0.5235400000000  0.5910210000000 1.0
C      1  0.4983570000000  0.4987320000000  0.4994290000000 1.0
END
