TITL C-2622953-3516-214 0.000459281372784786 125000 -218.410160960747 0 0 39 (C1) n - 1
REM
REM in /nfs/bkarasulu/CARBON/AIRSS/Generating-Clusters/AIREBO/with-SteepDescent/Higher-Symm/SD-CG/HFTN-CG
REM
REM
REM
REM
REM
REM ./C.cell (b20cbc046b6831c77cfcea5457e17084)
REM
REM compiler GCC version 9.2.1 20190827 (Red Hat 9.2.1-1)
REM options -cpp -mtune=generic -march=x86-64 -g -O0 -fpre-include=/usr/include/finclude/math-vector-fortran.h
REM seed -72814777 788717172 -1769736333 -627541214 113102964 -1018736296 927375917 -1338946191 -1005169178 826240536 -2025878140 -1814780267 -470742488 275566165 -1696721637 2115136210 1604977191 177176708 183411730 504173610 -1991080191 -989952927 -357878058 201195381 -1826285243 -965582788 2053622548 942953141 11633318 751591035 394872746 -48437081 194478029
REM
CELL 1.54180   50.00000   50.00000   50.00000   90.00000   90.00000   90.00000
LATT -1
SFAC C  
C      1  0.4763580000000  0.5050060000000  0.4691150000000 1.0
C      1  0.4824490000000  0.5094480000000  0.5363980000000 1.0
C      1  0.5448200000000  0.5065130000000  0.4946300000000 1.0
C      1  0.5106120000000  0.5031160000000  0.5284120000000 1.0
C      1  0.5255620000000  0.5014720000000  0.4721850000000 1.0
C      1  0.4666870000000  0.4984770000000  0.4964650000000 1.0
C      1  0.5113050000000  0.4729430000000  0.4762370000000 1.0
C      1  0.4787830000000  0.4730080000000  0.5112420000000 1.0
C      1  0.5127110000000  0.4750770000000  0.5101580000000 1.0
C      1  0.5488650000000  0.4805200000000  0.5519910000000 1.0
C      1  0.5190230000000  0.4851640000000  0.4257900000000 1.0
C      1  0.4275700000000  0.4830720000000  0.5211470000000 1.0
C      1  0.5290610000000  0.5408030000000  0.4548680000000 1.0
C      1  0.4406000000000  0.5387090000000  0.4992410000000 1.0
C      1  0.5267000000000  0.5397240000000  0.5470920000000 1.0
C      1  0.4917970000000  0.4776090000000  0.4309940000000 1.0
C      1  0.4415760000000  0.4808660000000  0.5459910000000 1.0
C      1  0.5622570000000  0.4734180000000  0.5278430000000 1.0
C      1  0.5416810000000  0.5267750000000  0.5204990000000 1.0
C      1  0.4987580000000  0.5271500000000  0.4573210000000 1.0
C      1  0.4596480000000  0.5308480000000  0.5240350000000 1.0
C      1  0.5314950000000  0.4544090000000  0.4596540000000 1.0
C      1  0.4573300000000  0.4506730000000  0.5028190000000 1.0
C      1  0.5143370000000  0.4527850000000  0.5357840000000 1.0
C      1  0.5296090000000  0.4603570000000  0.5578840000000 1.0
C      1  0.5366300000000  0.4639680000000  0.4337900000000 1.0
C      1  0.4306720000000  0.4588450000000  0.5060400000000 1.0
C      1  0.4806570000000  0.5407980000000  0.5467650000000 1.0
C      1  0.5550180000000  0.5383150000000  0.4930250000000 1.0
C      1  0.4676410000000  0.5363070000000  0.4610400000000 1.0
C      1  0.5239110000000  0.5107500000000  0.4409320000000 1.0
C      1  0.4384870000000  0.5068640000000  0.5068520000000 1.0
C      1  0.5368040000000  0.5076850000000  0.5483330000000 1.0
C      1  0.4476410000000  0.5474110000000  0.4747180000000 1.0
C      1  0.5039990000000  0.5515750000000  0.5539890000000 1.0
C      1  0.5477230000000  0.5511880000000  0.4706050000000 1.0
C      1  0.4861440000000  0.4787620000000  0.4579160000000 1.0
C      1  0.4686930000000  0.4822370000000  0.5422730000000 1.0
C      1  0.5463830000000  0.4773500000000  0.5059290000000 1.0
END
