TITL C-2622953-3516-811 187.067785549432 125000 -1101.24237074843 0 0 197 (C1) n - 1
REM
REM in /nfs/bkarasulu/CARBON/AIRSS/Generating-Clusters/AIREBO/with-SteepDescent/Higher-Symm/SD-CG/HFTN-CG
REM
REM
REM
REM
REM
REM ./C.cell (b20cbc046b6831c77cfcea5457e17084)
REM
REM compiler GCC version 9.2.1 20190827 (Red Hat 9.2.1-1)
REM options -cpp -mtune=generic -march=x86-64 -g -O0 -fpre-include=/usr/include/finclude/math-vector-fortran.h
REM seed -365879746 419150628 -234843743 1472688317 -1853334578 -442725372 -365046630 -1033628844 689975802 896144368 1058873677 -715837807 -1355106420 1477971070 1740527471 -178992477 -249699430 -806776389 673087411 2060589793 -1605220283 -992847948 1900603848 859939412 1301553811 826056614 980685263 -520894665 1640455184 1852094703 468519869 72610180 1466652124
REM
CELL 1.54180   50.00000   50.00000   50.00000   90.00000   90.00000   90.00000
LATT -1
SFAC C  
C      1  0.4884730000000  0.4220550000000  0.4852820000000 1.0
C      1  0.4459580000000  0.4427870000000  0.4727290000000 1.0
C      1  0.4224710000000  0.4701830000000  0.4987560000000 1.0
C      1  0.4232210000000  0.5124430000000  0.4695750000000 1.0
C      1  0.4373640000000  0.5496080000000  0.4737340000000 1.0
C      1  0.4839890000000  0.5696160000000  0.4769990000000 1.0
C      1  0.5410290000000  0.5716920000000  0.4772890000000 1.0
C      1  0.5676460000000  0.5421020000000  0.4801450000000 1.0
C      1  0.5825880000000  0.4950080000000  0.4767490000000 1.0
C      1  0.5687420000000  0.4579290000000  0.4716580000000 1.0
C      1  0.5374210000000  0.4264520000000  0.4792160000000 1.0
C      1  0.4579910000000  0.4835740000000  0.4143370000000 1.0
C      1  0.4551710000000  0.5111450000000  0.4047850000000 1.0
C      1  0.4696060000000  0.5353600000000  0.4065840000000 1.0
C      1  0.4928610000000  0.5476460000000  0.4190240000000 1.0
C      1  0.5196480000000  0.5409800000000  0.4095880000000 1.0
C      1  0.5418770000000  0.5238940000000  0.4099260000000 1.0
C      1  0.5542120000000  0.4985010000000  0.4085600000000 1.0
C      1  0.5480470000000  0.4713120000000  0.4185430000000 1.0
C      1  0.5271550000000  0.4561820000000  0.4052200000000 1.0
C      1  0.4996410000000  0.4515470000000  0.4023550000000 1.0
C      1  0.4740700000000  0.4633260000000  0.4008080000000 1.0
C      1  0.4637740000000  0.4837870000000  0.4439220000000 1.0
C      1  0.4531650000000  0.5095920000000  0.4561580000000 1.0
C      1  0.4633090000000  0.5350200000000  0.4590570000000 1.0
C      1  0.4913460000000  0.5503640000000  0.4502600000000 1.0
C      1  0.5238070000000  0.5489140000000  0.4587960000000 1.0
C      1  0.5446550000000  0.5273120000000  0.4638430000000 1.0
C      1  0.5546560000000  0.5011040000000  0.4583260000000 1.0
C      1  0.5473490000000  0.4705780000000  0.4492010000000 1.0
C      1  0.5246140000000  0.4504400000000  0.4621100000000 1.0
C      1  0.4963980000000  0.4470130000000  0.4635940000000 1.0
C      1  0.4700370000000  0.4572060000000  0.4576260000000 1.0
C      1  0.4167570000000  0.4399740000000  0.4583400000000 1.0
C      1  0.4057900000000  0.4765900000000  0.4698100000000 1.0
C      1  0.4087770000000  0.5349180000000  0.4500300000000 1.0
C      1  0.4416560000000  0.5774390000000  0.4577610000000 1.0
C      1  0.4992090000000  0.5934780000000  0.4645240000000 1.0
C      1  0.5619110000000  0.5812190000000  0.4522060000000 1.0
C      1  0.5929960000000  0.5410770000000  0.4574920000000 1.0
C      1  0.5979850000000  0.4836140000000  0.4486530000000 1.0
C      1  0.5822370000000  0.4293050000000  0.4592220000000 1.0
C      1  0.5282860000000  0.3999940000000  0.4630110000000 1.0
C      1  0.4731250000000  0.4074220000000  0.4586970000000 1.0
C      1  0.4279480000000  0.4326820000000  0.5434790000000 1.0
C      1  0.4016380000000  0.4738310000000  0.5533780000000 1.0
C      1  0.4050430000000  0.5335790000000  0.5544530000000 1.0
C      1  0.4296800000000  0.5735340000000  0.5460380000000 1.0
C      1  0.4849960000000  0.6041560000000  0.5489490000000 1.0
C      1  0.5481620000000  0.5955470000000  0.5462160000000 1.0
C      1  0.5839370000000  0.5550030000000  0.5462910000000 1.0
C      1  0.6026690000000  0.5030640000000  0.5434540000000 1.0
C      1  0.5820560000000  0.4526160000000  0.5447790000000 1.0
C      1  0.5391390000000  0.4140700000000  0.5438580000000 1.0
C      1  0.4801340000000  0.4035800000000  0.5449080000000 1.0
C      1  0.5611090000000  0.6011570000000  0.4042910000000 1.0
C      1  0.6148520000000  0.5550960000000  0.4123810000000 1.0
C      1  0.6136520000000  0.4959370000000  0.4007080000000 1.0
C      1  0.6087400000000  0.4114930000000  0.4182620000000 1.0
C      1  0.5370960000000  0.3774600000000  0.4170070000000 1.0
C      1  0.4792670000000  0.3879630000000  0.4109380000000 1.0
C      1  0.4018320000000  0.4153340000000  0.4148020000000 1.0
C      1  0.3885050000000  0.4714070000000  0.4209040000000 1.0
C      1  0.3929130000000  0.5416000000000  0.4010380000000 1.0
C      1  0.4328590000000  0.6014780000000  0.4125550000000 1.0
C      1  0.4876650000000  0.6211910000000  0.4215880000000 1.0
C      1  0.3892930000000  0.4653030000000  0.5293550000000 1.0
C      1  0.3992720000000  0.5255090000000  0.5245710000000 1.0
C      1  0.4169130000000  0.5783070000000  0.5222560000000 1.0
C      1  0.4898980000000  0.6145480000000  0.5145880000000 1.0
C      1  0.5561760000000  0.6023500000000  0.5162790000000 1.0
C      1  0.5886810000000  0.5593000000000  0.5163190000000 1.0
C      1  0.6134990000000  0.4960610000000  0.5126240000000 1.0
C      1  0.5922060000000  0.4484790000000  0.5195950000000 1.0
C      1  0.5466400000000  0.3950930000000  0.5256390000000 1.0
C      1  0.4726800000000  0.3832020000000  0.5196320000000 1.0
C      1  0.4365890000000  0.4140280000000  0.5202560000000 1.0
C      1  0.6026420000000  0.4610030000000  0.4716690000000 1.0
C      1  0.5666030000000  0.4204320000000  0.4848480000000 1.0
C      1  0.5101170000000  0.3986050000000  0.4878730000000 1.0
C      1  0.4502940000000  0.4117230000000  0.4804340000000 1.0
C      1  0.4097530000000  0.4401210000000  0.4891850000000 1.0
C      1  0.3988270000000  0.5011660000000  0.4904230000000 1.0
C      1  0.4054270000000  0.5464490000000  0.4801360000000 1.0
C      1  0.4569040000000  0.5822240000000  0.4856130000000 1.0
C      1  0.5236120000000  0.5976330000000  0.4829340000000 1.0
C      1  0.5809540000000  0.5733210000000  0.4778230000000 1.0
C      1  0.6006310000000  0.5200860000000  0.4818620000000 1.0
C      1  0.4205770000000  0.4553850000000  0.5626090000000 1.0
C      1  0.4167510000000  0.5026660000000  0.5523640000000 1.0
C      1  0.4243420000000  0.5518090000000  0.5629630000000 1.0
C      1  0.4613640000000  0.5801300000000  0.5444310000000 1.0
C      1  0.5146580000000  0.5897720000000  0.5466190000000 1.0
C      1  0.5580220000000  0.5685460000000  0.5547260000000 1.0
C      1  0.5798400000000  0.5245260000000  0.5530460000000 1.0
C      1  0.5827140000000  0.4816020000000  0.5538610000000 1.0
C      1  0.5533890000000  0.4398080000000  0.5505760000000 1.0
C      1  0.5083810000000  0.4153390000000  0.5528430000000 1.0
C      1  0.4596300000000  0.4275790000000  0.5512210000000 1.0
C      1  0.4941200000000  0.6065180000000  0.4423200000000 1.0
C      1  0.5615780000000  0.5899220000000  0.4279660000000 1.0
C      1  0.6033400000000  0.5470270000000  0.4344980000000 1.0
C      1  0.6047030000000  0.4891760000000  0.4243930000000 1.0
C      1  0.5942870000000  0.4203210000000  0.4382610000000 1.0
C      1  0.5317560000000  0.3895420000000  0.4396400000000 1.0
C      1  0.4759140000000  0.3989180000000  0.4345070000000 1.0
C      1  0.4095900000000  0.4265540000000  0.4371780000000 1.0
C      1  0.3991790000000  0.4739500000000  0.4448100000000 1.0
C      1  0.4019790000000  0.5388800000000  0.4254790000000 1.0
C      1  0.4383740000000  0.5888730000000  0.4348600000000 1.0
C      1  0.4974820000000  0.3730650000000  0.5065000000000 1.0
C      1  0.4662570000000  0.4140700000000  0.5098700000000 1.0
C      1  0.4040620000000  0.4430090000000  0.5214380000000 1.0
C      1  0.4129140000000  0.4959110000000  0.5192510000000 1.0
C      1  0.4013500000000  0.5569960000000  0.5110260000000 1.0
C      1  0.4636730000000  0.5974020000000  0.5152240000000 1.0
C      1  0.5222220000000  0.6041290000000  0.5162800000000 1.0
C      1  0.5611130000000  0.5724240000000  0.5049700000000 1.0
C      1  0.6022580000000  0.5272930000000  0.5141780000000 1.0
C      1  0.5921090000000  0.4724800000000  0.5011000000000 1.0
C      1  0.5695850000000  0.3996730000000  0.5109270000000 1.0
C      1  0.4854610000000  0.4498100000000  0.5047160000000 1.0
C      1  0.4560210000000  0.4649490000000  0.4965760000000 1.0
C      1  0.4508370000000  0.4963610000000  0.5085370000000 1.0
C      1  0.4458200000000  0.5227820000000  0.4928500000000 1.0
C      1  0.4675470000000  0.5432790000000  0.5028670000000 1.0
C      1  0.4987120000000  0.5557690000000  0.5025220000000 1.0
C      1  0.5285710000000  0.5477600000000  0.4979810000000 1.0
C      1  0.5501910000000  0.5252070000000  0.5040180000000 1.0
C      1  0.5557300000000  0.4952750000000  0.4975990000000 1.0
C      1  0.5471650000000  0.4635720000000  0.4974520000000 1.0
C      1  0.5190360000000  0.4448060000000  0.5012020000000 1.0
C      1  0.5413780000000  0.5530050000000  0.5773950000000 1.0
C      1  0.5712450000000  0.5225650000000  0.5838500000000 1.0
C      1  0.5593920000000  0.4852600000000  0.5760600000000 1.0
C      1  0.5484990000000  0.4447050000000  0.5808680000000 1.0
C      1  0.5092660000000  0.4188950000000  0.5841100000000 1.0
C      1  0.4620720000000  0.4308460000000  0.5828970000000 1.0
C      1  0.4421240000000  0.4653580000000  0.5796540000000 1.0
C      1  0.4246460000000  0.5009110000000  0.5850660000000 1.0
C      1  0.4481240000000  0.5387720000000  0.5724670000000 1.0
C      1  0.4640630000000  0.5750380000000  0.5779400000000 1.0
C      1  0.5146150000000  0.5826070000000  0.5798550000000 1.0
C      1  0.5345750000000  0.5457970000000  0.5458750000000 1.0
C      1  0.5513500000000  0.5211860000000  0.5353940000000 1.0
C      1  0.5523660000000  0.4894730000000  0.5435090000000 1.0
C      1  0.5397630000000  0.4625670000000  0.5303660000000 1.0
C      1  0.5113610000000  0.4438200000000  0.5344940000000 1.0
C      1  0.4782790000000  0.4512740000000  0.5373130000000 1.0
C      1  0.4557200000000  0.4710780000000  0.5517370000000 1.0
C      1  0.4483000000000  0.4999720000000  0.5399530000000 1.0
C      1  0.4623190000000  0.5275470000000  0.5501760000000 1.0
C      1  0.4746690000000  0.5512520000000  0.5338460000000 1.0
C      1  0.5079380000000  0.5586160000000  0.5349670000000 1.0
C      1  0.4775680000000  0.5555380000000  0.5936450000000 1.0
C      1  0.5057580000000  0.5598410000000  0.5946630000000 1.0
C      1  0.5267820000000  0.5382850000000  0.5979300000000 1.0
C      1  0.5468060000000  0.5162860000000  0.5978010000000 1.0
C      1  0.5407910000000  0.4863550000000  0.5993130000000 1.0
C      1  0.5290460000000  0.4595600000000  0.5958250000000 1.0
C      1  0.5051600000000  0.4439390000000  0.5975650000000 1.0
C      1  0.4773230000000  0.4500020000000  0.5978010000000 1.0
C      1  0.4632940000000  0.4758450000000  0.5990340000000 1.0
C      1  0.4494340000000  0.5024600000000  0.5992570000000 1.0
C      1  0.4600050000000  0.5303630000000  0.5998290000000 1.0
C      1  0.3775710000000  0.4814440000000  0.5082650000000 1.0
C      1  0.3801570000000  0.5335800000000  0.4981970000000 1.0
C      1  0.4324620000000  0.5939610000000  0.5053460000000 1.0
C      1  0.5042850000000  0.6251700000000  0.4881630000000 1.0
C      1  0.5819040000000  0.6036270000000  0.4940620000000 1.0
C      1  0.6092650000000  0.5515950000000  0.4912950000000 1.0
C      1  0.6275520000000  0.4790490000000  0.4867440000000 1.0
C      1  0.5887170000000  0.4239700000000  0.5090770000000 1.0
C      1  0.5260290000000  0.3838400000000  0.5123560000000 1.0
C      1  0.4465480000000  0.3824890000000  0.4978430000000 1.0
C      1  0.4164130000000  0.4109380000000  0.5014790000000 1.0
C      1  0.5036820000000  0.4889640000000  0.7400440000000 1.0
C      1  0.5027560000000  0.5199110000000  0.2679470000000 1.0
C      1  0.4994760000000  0.4924030000000  0.7144020000000 1.0
C      1  0.4921920000000  0.4957030000000  0.4496870000000 1.0
C      1  0.5017870000000  0.5007050000000  0.5306910000000 1.0
C      1  0.5044170000000  0.4997430000000  0.3451440000000 1.0
C      1  0.5029090000000  0.5120860000000  0.2934110000000 1.0
C      1  0.4963040000000  0.4935730000000  0.6879780000000 1.0
C      1  0.5049750000000  0.5060300000000  0.3192690000000 1.0
C      1  0.5055490000000  0.4954410000000  0.3714010000000 1.0
C      1  0.5024020000000  0.5323220000000  0.2166390000000 1.0
C      1  0.5029330000000  0.5010060000000  0.5035160000000 1.0
C      1  0.4935650000000  0.4973320000000  0.6617530000000 1.0
C      1  0.5059130000000  0.5027580000000  0.5850760000000 1.0
C      1  0.4922440000000  0.4988950000000  0.6352040000000 1.0
C      1  0.4908820000000  0.5031490000000  0.6085430000000 1.0
C      1  0.5015710000000  0.5253830000000  0.2419020000000 1.0
C      1  0.5055050000000  0.4991990000000  0.4250040000000 1.0
C      1  0.5006980000000  0.5031140000000  0.5579880000000 1.0
C      1  0.4984120000000  0.4972950000000  0.4770390000000 1.0
C      1  0.5040350000000  0.4910270000000  0.3979600000000 1.0
END
