TITL C-2622961-1971-447 -0.00165513236185381 125000 -972.225104142143 0 0 180 (C1) n - 1
REM
REM in /nfs/bkarasulu/CARBON/AIRSS/Generating-Clusters/AIREBO/with-SteepDescent/Higher-Symm/SD-CG/HFTN-CG
REM
REM
REM
REM
REM
REM ./C.cell (b20cbc046b6831c77cfcea5457e17084)
REM
REM compiler GCC version 9.2.1 20190827 (Red Hat 9.2.1-1)
REM options -cpp -mtune=generic -march=x86-64 -g -O0 -fpre-include=/usr/include/finclude/math-vector-fortran.h
REM seed -1871238375 -1993690356 99988436 -287991057 151021505 -1758970204 -1021514274 -1873307259 -103004867 -1267628963 -1599127855 -507150877 -337153834 -700067493 1338961673 918916776 238198668 -1191706286 -2013322569 -2000448362 -933008993 195867206 -1144376757 -479950763 1972909964 1586464240 948515134 54605294 -504927624 1121652230 759746539 -832436922 -1720967667
REM
CELL 1.54180   50.00000   50.00000   50.00000   90.00000   90.00000   90.00000
LATT -1
SFAC C  
C      1  0.4992720000000  0.5946470000000  0.5177690000000 1.0
C      1  0.4873530000000  0.5969230000000  0.4863850000000 1.0
C      1  0.5192650000000  0.6072000000000  0.4932750000000 1.0
C      1  0.5077910000000  0.3840410000000  0.5244450000000 1.0
C      1  0.5222930000000  0.3875870000000  0.4712010000000 1.0
C      1  0.4935120000000  0.3945040000000  0.4953810000000 1.0
C      1  0.4501810000000  0.4900910000000  0.4222550000000 1.0
C      1  0.5952300000000  0.4850900000000  0.4949470000000 1.0
C      1  0.4457020000000  0.4902220000000  0.5895380000000 1.0
C      1  0.5536720000000  0.5116300000000  0.4226890000000 1.0
C      1  0.3933170000000  0.5236390000000  0.4962400000000 1.0
C      1  0.5476020000000  0.5228840000000  0.5911610000000 1.0
C      1  0.5060780000000  0.5528830000000  0.5845080000000 1.0
C      1  0.4302590000000  0.5447720000000  0.4633230000000 1.0
C      1  0.5708590000000  0.5564830000000  0.4671990000000 1.0
C      1  0.4791620000000  0.4494380000000  0.5899330000000 1.0
C      1  0.5735420000000  0.4500780000000  0.4567610000000 1.0
C      1  0.4340170000000  0.4519300000000  0.4673070000000 1.0
C      1  0.5246870000000  0.3838930000000  0.5462060000000 1.0
C      1  0.4651970000000  0.4133180000000  0.4944430000000 1.0
C      1  0.5343890000000  0.4111470000000  0.4498580000000 1.0
C      1  0.4858980000000  0.5822560000000  0.5409150000000 1.0
C      1  0.5489100000000  0.6123340000000  0.4988710000000 1.0
C      1  0.4729530000000  0.5800740000000  0.4637320000000 1.0
C      1  0.4634220000000  0.5106460000000  0.3986000000000 1.0
C      1  0.6032730000000  0.5024150000000  0.5182130000000 1.0
C      1  0.4237460000000  0.5113410000000  0.5843810000000 1.0
C      1  0.5369620000000  0.4937860000000  0.3990500000000 1.0
C      1  0.3906820000000  0.4977380000000  0.5147790000000 1.0
C      1  0.5676060000000  0.4966200000000  0.5828850000000 1.0
C      1  0.5228920000000  0.4861810000000  0.6135110000000 1.0
C      1  0.3909010000000  0.4725800000000  0.4667690000000 1.0
C      1  0.5953080000000  0.4867570000000  0.3994390000000 1.0
C      1  0.4631280000000  0.5125270000000  0.6337540000000 1.0
C      1  0.5893640000000  0.5221530000000  0.4586490000000 1.0
C      1  0.4150970000000  0.5269900000000  0.4193920000000 1.0
C      1  0.5264680000000  0.5124000000000  0.5666650000000 1.0
C      1  0.4342110000000  0.4967140000000  0.4754940000000 1.0
C      1  0.5295950000000  0.5131110000000  0.4466720000000 1.0
C      1  0.4770010000000  0.4988630000000  0.5794250000000 1.0
C      1  0.5678730000000  0.4934050000000  0.4762400000000 1.0
C      1  0.4682400000000  0.4791980000000  0.4489280000000 1.0
C      1  0.5109140000000  0.5830540000000  0.4334750000000 1.0
C      1  0.5554160000000  0.5863710000000  0.5424910000000 1.0
C      1  0.4333490000000  0.5892890000000  0.5264780000000 1.0
C      1  0.4866770000000  0.4156910000000  0.4315310000000 1.0
C      1  0.4451250000000  0.4187450000000  0.5377100000000 1.0
C      1  0.5637350000000  0.4143170000000  0.5179860000000 1.0
C      1  0.5466640000000  0.4082310000000  0.5473540000000 1.0
C      1  0.4401370000000  0.4123730000000  0.5104110000000 1.0
C      1  0.5096510000000  0.3997370000000  0.4319940000000 1.0
C      1  0.4554300000000  0.5944280000000  0.5481330000000 1.0
C      1  0.5591320000000  0.6079390000000  0.5246090000000 1.0
C      1  0.4803790000000  0.5886890000000  0.4334970000000 1.0
C      1  0.5435780000000  0.4448230000000  0.4954020000000 1.0
C      1  0.5036280000000  0.4395830000000  0.5277210000000 1.0
C      1  0.4896170000000  0.4476920000000  0.4779660000000 1.0
C      1  0.4678600000000  0.5566530000000  0.5092490000000 1.0
C      1  0.5218490000000  0.5487580000000  0.5339570000000 1.0
C      1  0.5195940000000  0.5468060000000  0.4654270000000 1.0
C      1  0.4720960000000  0.4157760000000  0.5471180000000 1.0
C      1  0.4671330000000  0.4095840000000  0.4546990000000 1.0
C      1  0.5587060000000  0.4088150000000  0.4886210000000 1.0
C      1  0.5258370000000  0.5845340000000  0.5511800000000 1.0
C      1  0.5300290000000  0.5833840000000  0.4533280000000 1.0
C      1  0.4367500000000  0.5885900000000  0.4947050000000 1.0
C      1  0.5838530000000  0.5081270000000  0.5623620000000 1.0
C      1  0.4033310000000  0.5128480000000  0.5373380000000 1.0
C      1  0.5147240000000  0.5106840000000  0.3923920000000 1.0
C      1  0.4122900000000  0.5009050000000  0.5603420000000 1.0
C      1  0.5905840000000  0.4924390000000  0.5408290000000 1.0
C      1  0.4896460000000  0.5000020000000  0.3951170000000 1.0
C      1  0.4877850000000  0.5083870000000  0.4797230000000 1.0
C      1  0.5228230000000  0.5006210000000  0.5006370000000 1.0
C      1  0.4842860000000  0.5110770000000  0.5325770000000 1.0
C      1  0.5121960000000  0.4866890000000  0.4719490000000 1.0
C      1  0.4731490000000  0.4948860000000  0.5058840000000 1.0
C      1  0.5067230000000  0.4883160000000  0.5263900000000 1.0
C      1  0.5726970000000  0.5369620000000  0.5607320000000 1.0
C      1  0.4241230000000  0.5345660000000  0.5238830000000 1.0
C      1  0.5208290000000  0.5399010000000  0.4018250000000 1.0
C      1  0.4290480000000  0.4777700000000  0.5527220000000 1.0
C      1  0.5716790000000  0.4700390000000  0.5335670000000 1.0
C      1  0.4894410000000  0.4726680000000  0.4091530000000 1.0
C      1  0.4305360000000  0.4684650000000  0.4414050000000 1.0
C      1  0.5953930000000  0.4660650000000  0.4667620000000 1.0
C      1  0.4677990000000  0.4691640000000  0.6045170000000 1.0
C      1  0.5703210000000  0.5345330000000  0.4415260000000 1.0
C      1  0.4063940000000  0.5250460000000  0.4712360000000 1.0
C      1  0.5170380000000  0.5318390000000  0.6000560000000 1.0
C      1  0.5684650000000  0.5592760000000  0.5357640000000 1.0
C      1  0.4335460000000  0.5614780000000  0.5424030000000 1.0
C      1  0.4989500000000  0.5582860000000  0.4155540000000 1.0
C      1  0.4311020000000  0.4452640000000  0.5446980000000 1.0
C      1  0.5594300000000  0.4390900000000  0.5409110000000 1.0
C      1  0.4981600000000  0.4438240000000  0.4239450000000 1.0
C      1  0.5609500000000  0.4694750000000  0.5849410000000 1.0
C      1  0.3924510000000  0.4685040000000  0.5158680000000 1.0
C      1  0.5412090000000  0.4654680000000  0.3993350000000 1.0
C      1  0.4276800000000  0.5392750000000  0.5892900000000 1.0
C      1  0.6068550000000  0.5305440000000  0.5140890000000 1.0
C      1  0.4573830000000  0.5380830000000  0.4022010000000 1.0
C      1  0.5256360000000  0.4168480000000  0.4881910000000 1.0
C      1  0.4922660000000  0.4123440000000  0.5235590000000 1.0
C      1  0.4967450000000  0.4158930000000  0.4702390000000 1.0
C      1  0.4644690000000  0.5825850000000  0.5025240000000 1.0
C      1  0.5255350000000  0.5765860000000  0.5180910000000 1.0
C      1  0.5201450000000  0.5743390000000  0.4845910000000 1.0
C      1  0.5712010000000  0.4168620000000  0.4636520000000 1.0
C      1  0.4934470000000  0.4249710000000  0.5709180000000 1.0
C      1  0.4419200000000  0.4196940000000  0.4626150000000 1.0
C      1  0.4311580000000  0.5783730000000  0.4687060000000 1.0
C      1  0.5082290000000  0.5823300000000  0.5737140000000 1.0
C      1  0.5590230000000  0.5844000000000  0.4600820000000 1.0
C      1  0.5306220000000  0.5424900000000  0.4334340000000 1.0
C      1  0.5424480000000  0.5340810000000  0.5524750000000 1.0
C      1  0.4481790000000  0.5375660000000  0.5007740000000 1.0
C      1  0.4710100000000  0.4492040000000  0.4529910000000 1.0
C      1  0.4837360000000  0.4570330000000  0.5355500000000 1.0
C      1  0.5746550000000  0.4528400000000  0.5066310000000 1.0
C      1  0.4581060000000  0.4463740000000  0.4906890000000 1.0
C      1  0.5407250000000  0.4425620000000  0.4615720000000 1.0
C      1  0.5058060000000  0.4565910000000  0.5732760000000 1.0
C      1  0.5468440000000  0.5449140000000  0.4838640000000 1.0
C      1  0.4641080000000  0.5479890000000  0.4643840000000 1.0
C      1  0.4946610000000  0.5514880000000  0.5524930000000 1.0
C      1  0.5996060000000  0.5486820000000  0.5335560000000 1.0
C      1  0.4196480000000  0.5609080000000  0.5699300000000 1.0
C      1  0.4748980000000  0.5580150000000  0.3969410000000 1.0
C      1  0.3997590000000  0.4546480000000  0.5385430000000 1.0
C      1  0.5699830000000  0.4468930000000  0.5722800000000 1.0
C      1  0.5192540000000  0.4486430000000  0.3982330000000 1.0
C      1  0.4917010000000  0.4794590000000  0.5556630000000 1.0
C      1  0.4615640000000  0.4785080000000  0.4801190000000 1.0
C      1  0.5404550000000  0.4732900000000  0.4761660000000 1.0
C      1  0.4974870000000  0.5186510000000  0.5608500000000 1.0
C      1  0.5408960000000  0.5140780000000  0.4748360000000 1.0
C      1  0.4563750000000  0.5187170000000  0.4785960000000 1.0
C      1  0.3958380000000  0.5493390000000  0.5121280000000 1.0
C      1  0.5538130000000  0.5380480000000  0.4012720000000 1.0
C      1  0.5690250000000  0.5487760000000  0.5916170000000 1.0
C      1  0.6057330000000  0.4527680000000  0.4951830000000 1.0
C      1  0.4579900000000  0.4643130000000  0.4014920000000 1.0
C      1  0.4367370000000  0.4588670000000  0.5799190000000 1.0
C      1  0.5487920000000  0.5109420000000  0.5168820000000 1.0
C      1  0.4508900000000  0.5174220000000  0.5376780000000 1.0
C      1  0.4955890000000  0.5131320000000  0.4469720000000 1.0
C      1  0.4464570000000  0.4861560000000  0.5250600000000 1.0
C      1  0.5396040000000  0.4810600000000  0.5311490000000 1.0
C      1  0.5009560000000  0.4800550000000  0.4405500000000 1.0
C      1  0.5345840000000  0.4765770000000  0.4369050000000 1.0
C      1  0.5322810000000  0.4842490000000  0.5618610000000 1.0
C      1  0.4273320000000  0.4800860000000  0.5003870000000 1.0
C      1  0.4630830000000  0.5173850000000  0.4379160000000 1.0
C      1  0.4589110000000  0.5244750000000  0.5696510000000 1.0
C      1  0.5732880000000  0.5184080000000  0.4973350000000 1.0
C      1  0.4573810000000  0.5531640000000  0.5802850000000 1.0
C      1  0.4420090000000  0.5432790000000  0.4314440000000 1.0
C      1  0.5952630000000  0.5400760000000  0.4849150000000 1.0
C      1  0.5301170000000  0.4674660000000  0.5899060000000 1.0
C      1  0.5601300000000  0.4568300000000  0.4262430000000 1.0
C      1  0.4082870000000  0.4541330000000  0.4894300000000 1.0
C      1  0.5594680000000  0.4233050000000  0.4319730000000 1.0
C      1  0.5194720000000  0.4072090000000  0.5680630000000 1.0
C      1  0.4210010000000  0.4217520000000  0.4893460000000 1.0
C      1  0.4494050000000  0.5754810000000  0.4396320000000 1.0
C      1  0.4738290000000  0.5789080000000  0.5725270000000 1.0
C      1  0.5652000000000  0.6069610000000  0.4762030000000 1.0
C      1  0.5105930000000  0.4501740000000  0.4536190000000 1.0
C      1  0.5310810000000  0.4487580000000  0.5248170000000 1.0
C      1  0.4563650000000  0.4544470000000  0.5238080000000 1.0
C      1  0.4931470000000  0.5470520000000  0.4466440000000 1.0
C      1  0.4647040000000  0.5484840000000  0.5383520000000 1.0
C      1  0.5493070000000  0.5447140000000  0.5148030000000 1.0
C      1  0.4775530000000  0.5007090000000  0.6133780000000 1.0
C      1  0.4174030000000  0.4969250000000  0.4281990000000 1.0
C      1  0.5900380000000  0.4926290000000  0.4504630000000 1.0
C      1  0.5068260000000  0.5081120000000  0.6116980000000 1.0
C      1  0.5766350000000  0.4864520000000  0.4235680000000 1.0
C      1  0.4085200000000  0.4971580000000  0.4578490000000 1.0
END
