TITL C-2622967-6265-395 0.000512447107228092 125000 -1105.84281259172 0 0 197 (C1) n - 1
REM
REM in /nfs/bkarasulu/CARBON/AIRSS/Generating-Clusters/AIREBO/with-SteepDescent/Higher-Symm/SD-CG/HFTN-CG
REM
REM
REM
REM
REM
REM ./C.cell (b20cbc046b6831c77cfcea5457e17084)
REM
REM compiler GCC version 9.2.1 20190827 (Red Hat 9.2.1-1)
REM options -cpp -mtune=generic -march=x86-64 -g -O0 -fpre-include=/usr/include/finclude/math-vector-fortran.h
REM seed 511925254 -461368518 1499917584 -1939334359 -1671610996 344576247 -1547921779 799183919 1235391156 607419195 1939434227 1701009599 -468101140 1626140834 -801186820 -1504044794 -1510926749 1751779308 630083038 50649264 -1364325124 -1427801952 1228973747 -959793008 1244605778 -639384284 -1690122998 283715682 -2047152744 -261096019 1926616000 176546822 -1929958270
REM
CELL 1.54180   50.00000   50.00000   50.00000   90.00000   90.00000   90.00000
LATT -1
SFAC C  
C      1  0.5349990000000  0.4051760000000  0.4524180000000 1.0
C      1  0.5372340000000  0.4252120000000  0.5747550000000 1.0
C      1  0.5319810000000  0.5468260000000  0.5980550000000 1.0
C      1  0.5364660000000  0.6088700000000  0.4821050000000 1.0
C      1  0.5403360000000  0.5170730000000  0.3983230000000 1.0
C      1  0.4696420000000  0.4019510000000  0.5597980000000 1.0
C      1  0.4655770000000  0.4219100000000  0.4282500000000 1.0
C      1  0.4752160000000  0.5541620000000  0.3917670000000 1.0
C      1  0.4699640000000  0.6152170000000  0.5150220000000 1.0
C      1  0.4664810000000  0.5122480000000  0.6188650000000 1.0
C      1  0.4240920000000  0.5930830000000  0.5081440000000 1.0
C      1  0.4221270000000  0.5399220000000  0.4207650000000 1.0
C      1  0.4162110000000  0.4166660000000  0.4489830000000 1.0
C      1  0.4209830000000  0.4301970000000  0.5518900000000 1.0
C      1  0.4126700000000  0.5206990000000  0.5861340000000 1.0
C      1  0.5857800000000  0.5869760000000  0.4947320000000 1.0
C      1  0.5799100000000  0.5312720000000  0.5823940000000 1.0
C      1  0.5835130000000  0.4333070000000  0.5500040000000 1.0
C      1  0.5831430000000  0.4302520000000  0.4528630000000 1.0
C      1  0.5844440000000  0.5255890000000  0.4285110000000 1.0
C      1  0.4744920000000  0.4651390000000  0.4885630000000 1.0
C      1  0.4640000000000  0.4683280000000  0.5189790000000 1.0
C      1  0.4649040000000  0.5109710000000  0.5394590000000 1.0
C      1  0.4561480000000  0.5269400000000  0.4940270000000 1.0
C      1  0.4664350000000  0.5091980000000  0.4668180000000 1.0
C      1  0.5438440000000  0.4857050000000  0.5223100000000 1.0
C      1  0.5334110000000  0.4691500000000  0.4944950000000 1.0
C      1  0.5304490000000  0.5119650000000  0.4647010000000 1.0
C      1  0.5214500000000  0.5264520000000  0.4942470000000 1.0
C      1  0.5289000000000  0.5159080000000  0.5225050000000 1.0
C      1  0.4364790000000  0.4844640000000  0.5486840000000 1.0
C      1  0.4354230000000  0.5531240000000  0.5310770000000 1.0
C      1  0.4338590000000  0.5519540000000  0.4696020000000 1.0
C      1  0.4324600000000  0.4653460000000  0.4530430000000 1.0
C      1  0.4309820000000  0.4343710000000  0.5020600000000 1.0
C      1  0.5602010000000  0.4792110000000  0.4474600000000 1.0
C      1  0.5594410000000  0.5575230000000  0.4836200000000 1.0
C      1  0.5691480000000  0.5507260000000  0.5286240000000 1.0
C      1  0.5678320000000  0.4866390000000  0.5566250000000 1.0
C      1  0.5654530000000  0.4419390000000  0.5024880000000 1.0
C      1  0.4686250000000  0.4642010000000  0.5831430000000 1.0
C      1  0.4721680000000  0.5612370000000  0.5445190000000 1.0
C      1  0.4655720000000  0.5736860000000  0.4558110000000 1.0
C      1  0.4615910000000  0.4798970000000  0.4264370000000 1.0
C      1  0.4748580000000  0.4141040000000  0.4746330000000 1.0
C      1  0.5269570000000  0.4560110000000  0.4260530000000 1.0
C      1  0.5258770000000  0.5473760000000  0.4434690000000 1.0
C      1  0.5365340000000  0.5740870000000  0.5420380000000 1.0
C      1  0.5311140000000  0.4827240000000  0.5823190000000 1.0
C      1  0.5270550000000  0.4107920000000  0.5204100000000 1.0
C      1  0.5164570000000  0.6229740000000  0.5040600000000 1.0
C      1  0.5233350000000  0.5455540000000  0.3918780000000 1.0
C      1  0.5184120000000  0.4231930000000  0.4287300000000 1.0
C      1  0.5203380000000  0.4048860000000  0.5532330000000 1.0
C      1  0.5133510000000  0.5303240000000  0.6169340000000 1.0
C      1  0.4909160000000  0.6249300000000  0.4927320000000 1.0
C      1  0.4859340000000  0.5397630000000  0.6142620000000 1.0
C      1  0.4935210000000  0.4101430000000  0.5740570000000 1.0
C      1  0.4909330000000  0.4105800000000  0.4446120000000 1.0
C      1  0.4971310000000  0.5365940000000  0.3811770000000 1.0
C      1  0.4634500000000  0.4369110000000  0.4922560000000 1.0
C      1  0.4671840000000  0.4881840000000  0.5628220000000 1.0
C      1  0.4639090000000  0.5488640000000  0.5155260000000 1.0
C      1  0.4626920000000  0.5417980000000  0.4576710000000 1.0
C      1  0.4641520000000  0.4761100000000  0.4590540000000 1.0
C      1  0.5330690000000  0.4360710000000  0.4982790000000 1.0
C      1  0.5279670000000  0.4849600000000  0.4441900000000 1.0
C      1  0.5297200000000  0.5502820000000  0.4748040000000 1.0
C      1  0.5388370000000  0.5420290000000  0.5413980000000 1.0
C      1  0.5362650000000  0.4767850000000  0.5526470000000 1.0
C      1  0.4898120000000  0.5698960000000  0.5089900000000 1.0
C      1  0.4853430000000  0.5274870000000  0.4371000000000 1.0
C      1  0.4837930000000  0.4489000000000  0.4534490000000 1.0
C      1  0.4865220000000  0.4442950000000  0.5274410000000 1.0
C      1  0.4900350000000  0.5122720000000  0.5701940000000 1.0
C      1  0.5094600000000  0.5709470000000  0.4875360000000 1.0
C      1  0.5137810000000  0.5259390000000  0.5578360000000 1.0
C      1  0.5098310000000  0.4576490000000  0.5430440000000 1.0
C      1  0.5099090000000  0.4410760000000  0.4738510000000 1.0
C      1  0.5049680000000  0.5043990000000  0.4323460000000 1.0
C      1  0.4242900000000  0.5279280000000  0.4881000000000 1.0
C      1  0.4202130000000  0.4937210000000  0.4544080000000 1.0
C      1  0.4188390000000  0.4639510000000  0.4989070000000 1.0
C      1  0.4373470000000  0.4823170000000  0.5184350000000 1.0
C      1  0.4458330000000  0.5312190000000  0.5464540000000 1.0
C      1  0.5854580000000  0.5329640000000  0.5107940000000 1.0
C      1  0.5790840000000  0.5008700000000  0.5334070000000 1.0
C      1  0.5717430000000  0.4707450000000  0.5086940000000 1.0
C      1  0.5562500000000  0.4847230000000  0.4766340000000 1.0
C      1  0.5601140000000  0.5244170000000  0.4758500000000 1.0
C      1  0.4936660000000  0.4151230000000  0.5186970000000 1.0
C      1  0.5000860000000  0.4884580000000  0.5869570000000 1.0
C      1  0.5050260000000  0.5804760000000  0.5336290000000 1.0
C      1  0.4971840000000  0.5586670000000  0.4369180000000 1.0
C      1  0.4929750000000  0.4552860000000  0.4251150000000 1.0
C      1  0.5022230000000  0.4126190000000  0.4890240000000 1.0
C      1  0.4905130000000  0.4852250000000  0.4148820000000 1.0
C      1  0.4978480000000  0.5801610000000  0.4608470000000 1.0
C      1  0.5038360000000  0.5562930000000  0.5558660000000 1.0
C      1  0.5004690000000  0.4589020000000  0.5729670000000 1.0
C      1  0.5333200000000  0.5841180000000  0.4296840000000 1.0
C      1  0.5196190000000  0.4666680000000  0.3945110000000 1.0
C      1  0.5207650000000  0.3810020000000  0.5045740000000 1.0
C      1  0.5293430000000  0.4713540000000  0.6143150000000 1.0
C      1  0.5349320000000  0.6078380000000  0.5458320000000 1.0
C      1  0.4779740000000  0.5835940000000  0.5694680000000 1.0
C      1  0.4854630000000  0.4532020000000  0.6094220000000 1.0
C      1  0.4679960000000  0.3692970000000  0.4641160000000 1.0
C      1  0.4692600000000  0.4986110000000  0.3923620000000 1.0
C      1  0.4694580000000  0.6073990000000  0.4536900000000 1.0
C      1  0.6276760000000  0.5154880000000  0.4822450000000 1.0
C      1  0.6203120000000  0.4881220000000  0.4785550000000 1.0
C      1  0.6033160000000  0.4794000000000  0.4999330000000 1.0
C      1  0.6056850000000  0.5000770000000  0.5208500000000 1.0
C      1  0.6151420000000  0.5262270000000  0.5066280000000 1.0
C      1  0.3770130000000  0.5151990000000  0.5099360000000 1.0
C      1  0.3742290000000  0.4867360000000  0.5122240000000 1.0
C      1  0.3904560000000  0.4751110000000  0.4909310000000 1.0
C      1  0.3931300000000  0.4959090000000  0.4704110000000 1.0
C      1  0.3940110000000  0.5201280000000  0.4870010000000 1.0
C      1  0.4921740000000  0.3780000000000  0.4543250000000 1.0
C      1  0.4959400000000  0.4265430000000  0.5960380000000 1.0
C      1  0.4830060000000  0.5666700000000  0.5989650000000 1.0
C      1  0.4911530000000  0.6192200000000  0.4651150000000 1.0
C      1  0.4948490000000  0.5074990000000  0.3802660000000 1.0
C      1  0.5086360000000  0.3787350000000  0.5348910000000 1.0
C      1  0.5114780000000  0.4337620000000  0.3971490000000 1.0
C      1  0.5202330000000  0.5716460000000  0.4069690000000 1.0
C      1  0.5143290000000  0.6192420000000  0.5321370000000 1.0
C      1  0.5155880000000  0.5018520000000  0.6212460000000 1.0
C      1  0.4214430000000  0.4579660000000  0.5631930000000 1.0
C      1  0.4395880000000  0.5361560000000  0.5768520000000 1.0
C      1  0.4375530000000  0.5795290000000  0.4835690000000 1.0
C      1  0.4271660000000  0.5080860000000  0.4285580000000 1.0
C      1  0.4349400000000  0.4160720000000  0.4736720000000 1.0
C      1  0.5624920000000  0.4499070000000  0.4432050000000 1.0
C      1  0.5750130000000  0.5424100000000  0.4505970000000 1.0
C      1  0.5671420000000  0.5782640000000  0.5168880000000 1.0
C      1  0.5640100000000  0.5052170000000  0.5803570000000 1.0
C      1  0.5618890000000  0.4281600000000  0.5294570000000 1.0
C      1  0.5530710000000  0.5641980000000  0.4402080000000 1.0
C      1  0.5566270000000  0.4475790000000  0.4117220000000 1.0
C      1  0.5579950000000  0.3969430000000  0.5231730000000 1.0
C      1  0.5566100000000  0.4874330000000  0.6045640000000 1.0
C      1  0.5631160000000  0.5957090000000  0.5422680000000 1.0
C      1  0.4499630000000  0.5641030000000  0.5688380000000 1.0
C      1  0.4394310000000  0.4569090000000  0.5899890000000 1.0
C      1  0.4536610000000  0.3899090000000  0.4753130000000 1.0
C      1  0.4422430000000  0.4905940000000  0.4051280000000 1.0
C      1  0.4402980000000  0.5967590000000  0.4571700000000 1.0
C      1  0.4866470000000  0.4865350000000  0.6162160000000 1.0
C      1  0.4853790000000  0.6057080000000  0.5440360000000 1.0
C      1  0.4900330000000  0.5720770000000  0.4090150000000 1.0
C      1  0.4810230000000  0.4335590000000  0.4036170000000 1.0
C      1  0.4811210000000  0.3916670000000  0.5356000000000 1.0
C      1  0.5197660000000  0.4934350000000  0.3867270000000 1.0
C      1  0.5192790000000  0.6038340000000  0.4536250000000 1.0
C      1  0.5096960000000  0.5645130000000  0.5843500000000 1.0
C      1  0.5216730000000  0.4459040000000  0.5943170000000 1.0
C      1  0.5163810000000  0.3894530000000  0.4721040000000 1.0
C      1  0.4163340000000  0.5549700000000  0.4430680000000 1.0
C      1  0.4173080000000  0.4447320000000  0.4342520000000 1.0
C      1  0.4098380000000  0.4250320000000  0.5268390000000 1.0
C      1  0.4192720000000  0.4888240000000  0.5776830000000 1.0
C      1  0.4170090000000  0.5731350000000  0.5264860000000 1.0
C      1  0.5730420000000  0.5516340000000  0.5596980000000 1.0
C      1  0.5804710000000  0.4603860000000  0.5656990000000 1.0
C      1  0.5801540000000  0.4242840000000  0.4833440000000 1.0
C      1  0.5768620000000  0.4953200000000  0.4298850000000 1.0
C      1  0.5822110000000  0.5725430000000  0.4646550000000 1.0
C      1  0.5670180000000  0.6021790000000  0.4730700000000 1.0
C      1  0.5690770000000  0.5117420000000  0.4036050000000 1.0
C      1  0.5658930000000  0.4047470000000  0.4610250000000 1.0
C      1  0.5682810000000  0.4322440000000  0.5778300000000 1.0
C      1  0.5616520000000  0.5561510000000  0.5902950000000 1.0
C      1  0.4374570000000  0.6158990000000  0.5155810000000 1.0
C      1  0.4384100000000  0.5045300000000  0.6011520000000 1.0
C      1  0.4472860000000  0.4178590000000  0.5518900000000 1.0
C      1  0.4344630000000  0.4197280000000  0.4232920000000 1.0
C      1  0.4506010000000  0.5468760000000  0.4050270000000 1.0
C      1  0.4630240000000  0.5862990000000  0.5026860000000 1.0
C      1  0.4573520000000  0.5228180000000  0.4232950000000 1.0
C      1  0.4513030000000  0.4386400000000  0.4541940000000 1.0
C      1  0.4558920000000  0.4297790000000  0.5247640000000 1.0
C      1  0.4648750000000  0.5200710000000  0.5867060000000 1.0
C      1  0.5406100000000  0.5807500000000  0.4977540000000 1.0
C      1  0.5409170000000  0.5254590000000  0.5757500000000 1.0
C      1  0.5383490000000  0.4393180000000  0.5456820000000 1.0
C      1  0.5392730000000  0.4370920000000  0.4593530000000 1.0
C      1  0.5270740000000  0.5240630000000  0.4253540000000 1.0
C      1  0.4890320000000  0.5260550000000  0.4945540000000 1.0
C      1  0.4990570000000  0.5018090000000  0.4729240000000 1.0
C      1  0.4950420000000  0.5126660000000  0.5238030000000 1.0
C      1  0.5046660000000  0.4769990000000  0.4904450000000 1.0
C      1  0.4930060000000  0.4823220000000  0.5192060000000 1.0
C      1  0.5715830000000  0.5037360000000  0.5003130000000 1.0
C      1  0.4291090000000  0.4942600000000  0.4873990000000 1.0
END
