TITL C-2622967-6265-751 0.0021406933132527 125000 -1025.2563737697 0 0 193 (C1) n - 1
REM
REM in /nfs/bkarasulu/CARBON/AIRSS/Generating-Clusters/AIREBO/with-SteepDescent/Higher-Symm/SD-CG/HFTN-CG
REM
REM
REM
REM
REM
REM ./C.cell (b20cbc046b6831c77cfcea5457e17084)
REM
REM compiler GCC version 9.2.1 20190827 (Red Hat 9.2.1-1)
REM options -cpp -mtune=generic -march=x86-64 -g -O0 -fpre-include=/usr/include/finclude/math-vector-fortran.h
REM seed 1352591647 -1889404012 1872378078 1903877225 196247844 -1646228611 1980092446 441567649 1492568247 -1013764324 805984131 1072280771 -575567242 -1853630831 -1000892882 -1446935091 884115092 -868133530 -293931620 -1554180998 1094733288 275585640 -1794115761 192139874 1570162507 -1967530528 1961443710 2038941878 -1194474729 -1730931173 -662262743 1993996937 2099121225
REM
CELL 1.54180   50.00000   50.00000   50.00000   90.00000   90.00000   90.00000
LATT -1
SFAC C  
C      1  0.4704530000000  0.5043750000000  0.4471270000000 1.0
C      1  0.5045250000000  0.5352360000000  0.4418980000000 1.0
C      1  0.5364940000000  0.5071890000000  0.4494850000000 1.0
C      1  0.5185260000000  0.4716510000000  0.4520760000000 1.0
C      1  0.4697300000000  0.4710410000000  0.4521590000000 1.0
C      1  0.4643630000000  0.4832050000000  0.5437700000000 1.0
C      1  0.5053330000000  0.4620510000000  0.5513620000000 1.0
C      1  0.5271900000000  0.4947440000000  0.5583740000000 1.0
C      1  0.5213410000000  0.5336800000000  0.5403670000000 1.0
C      1  0.4726040000000  0.5357920000000  0.5567510000000 1.0
C      1  0.5955050000000  0.5135100000000  0.4838190000000 1.0
C      1  0.5245700000000  0.4224600000000  0.4714450000000 1.0
C      1  0.4422320000000  0.4531210000000  0.4748630000000 1.0
C      1  0.4156140000000  0.5543830000000  0.4845990000000 1.0
C      1  0.5231920000000  0.5892130000000  0.4730440000000 1.0
C      1  0.5839090000000  0.4907310000000  0.5192780000000 1.0
C      1  0.5281870000000  0.5860440000000  0.5124340000000 1.0
C      1  0.4300960000000  0.5617380000000  0.5206790000000 1.0
C      1  0.4303320000000  0.4544380000000  0.5194020000000 1.0
C      1  0.5336480000000  0.4084480000000  0.5087950000000 1.0
C      1  0.4810130000000  0.5594990000000  0.5876760000000 1.0
C      1  0.5592020000000  0.5458420000000  0.5858290000000 1.0
C      1  0.5572510000000  0.4640950000000  0.5891070000000 1.0
C      1  0.4846420000000  0.4367820000000  0.5807390000000 1.0
C      1  0.4277440000000  0.4984190000000  0.5935270000000 1.0
C      1  0.4731760000000  0.4394580000000  0.4083900000000 1.0
C      1  0.5468770000000  0.4608780000000  0.4202990000000 1.0
C      1  0.5559940000000  0.5264970000000  0.4163480000000 1.0
C      1  0.4616920000000  0.5621330000000  0.4092860000000 1.0
C      1  0.4424990000000  0.5024740000000  0.3999180000000 1.0
C      1  0.4761000000000  0.4904420000000  0.5126600000000 1.0
C      1  0.4751780000000  0.5217700000000  0.5258550000000 1.0
C      1  0.4971150000000  0.5430940000000  0.5261750000000 1.0
C      1  0.5314130000000  0.5073810000000  0.5275170000000 1.0
C      1  0.5190850000000  0.4651190000000  0.5239650000000 1.0
C      1  0.4685330000000  0.5203270000000  0.4771120000000 1.0
C      1  0.4781680000000  0.4705860000000  0.4851150000000 1.0
C      1  0.5117710000000  0.4654510000000  0.4843880000000 1.0
C      1  0.5242960000000  0.5117220000000  0.4810650000000 1.0
C      1  0.5000670000000  0.5330410000000  0.4755350000000 1.0
C      1  0.5494530000000  0.5288570000000  0.4896010000000 1.0
C      1  0.5416220000000  0.4606930000000  0.4999610000000 1.0
C      1  0.4626590000000  0.4431660000000  0.4988060000000 1.0
C      1  0.4452970000000  0.5130980000000  0.5009300000000 1.0
C      1  0.4838560000000  0.5617110000000  0.4834700000000 1.0
C      1  0.5691590000000  0.4689830000000  0.4976940000000 1.0
C      1  0.5376630000000  0.5535670000000  0.5088590000000 1.0
C      1  0.4607470000000  0.5603840000000  0.5063390000000 1.0
C      1  0.4447400000000  0.4808710000000  0.5036010000000 1.0
C      1  0.5045800000000  0.4261030000000  0.5085750000000 1.0
C      1  0.4911950000000  0.5272700000000  0.5839330000000 1.0
C      1  0.5501000000000  0.5171640000000  0.5971840000000 1.0
C      1  0.5261740000000  0.4772270000000  0.5848840000000 1.0
C      1  0.4988430000000  0.4660770000000  0.5919790000000 1.0
C      1  0.4847790000000  0.4970320000000  0.5919280000000 1.0
C      1  0.4895840000000  0.4679320000000  0.4247100000000 1.0
C      1  0.5197300000000  0.4783430000000  0.4127360000000 1.0
C      1  0.5264630000000  0.5096390000000  0.4170750000000 1.0
C      1  0.4980830000000  0.5276850000000  0.4113010000000 1.0
C      1  0.4727740000000  0.5095280000000  0.4134930000000 1.0
C      1  0.4485670000000  0.4611640000000  0.5643390000000 1.0
C      1  0.4401760000000  0.5359160000000  0.5616180000000 1.0
C      1  0.5112040000000  0.5540780000000  0.5622590000000 1.0
C      1  0.5601580000000  0.5024850000000  0.5547770000000 1.0
C      1  0.5310870000000  0.4410110000000  0.5556500000000 1.0
C      1  0.4333990000000  0.5385100000000  0.4490750000000 1.0
C      1  0.4408190000000  0.4664100000000  0.4348660000000 1.0
C      1  0.5116180000000  0.4446590000000  0.4325640000000 1.0
C      1  0.5631060000000  0.4930460000000  0.4528460000000 1.0
C      1  0.5301570000000  0.5573410000000  0.4466860000000 1.0
C      1  0.5983320000000  0.4631720000000  0.5524100000000 1.0
C      1  0.4945810000000  0.4073310000000  0.5424420000000 1.0
C      1  0.4026810000000  0.4771930000000  0.5575480000000 1.0
C      1  0.4437890000000  0.5837060000000  0.5516710000000 1.0
C      1  0.5683600000000  0.5908320000000  0.5588020000000 1.0
C      1  0.6023320000000  0.5372550000000  0.4532930000000 1.0
C      1  0.4952300000000  0.5883530000000  0.4451410000000 1.0
C      1  0.3823020000000  0.5328400000000  0.4497520000000 1.0
C      1  0.4461570000000  0.4129810000000  0.4542860000000 1.0
C      1  0.5598160000000  0.4235750000000  0.4525220000000 1.0
C      1  0.5922290000000  0.4946600000000  0.5637030000000 1.0
C      1  0.5182980000000  0.4031810000000  0.5568780000000 1.0
C      1  0.4195620000000  0.4539120000000  0.5578850000000 1.0
C      1  0.4241280000000  0.5651040000000  0.5684540000000 1.0
C      1  0.5417450000000  0.5902300000000  0.5649880000000 1.0
C      1  0.5932250000000  0.5067150000000  0.4446350000000 1.0
C      1  0.5237270000000  0.5864220000000  0.4328930000000 1.0
C      1  0.4051240000000  0.5503570000000  0.4377920000000 1.0
C      1  0.4297740000000  0.4344590000000  0.4398160000000 1.0
C      1  0.5345150000000  0.4195240000000  0.4328800000000 1.0
C      1  0.4443650000000  0.5319360000000  0.5287200000000 1.0
C      1  0.4996010000000  0.5677220000000  0.5105570000000 1.0
C      1  0.5624360000000  0.5167540000000  0.5169320000000 1.0
C      1  0.5390630000000  0.4388440000000  0.5230420000000 1.0
C      1  0.4615700000000  0.4460490000000  0.5299060000000 1.0
C      1  0.4320890000000  0.4855730000000  0.4732940000000 1.0
C      1  0.4963500000000  0.4355540000000  0.4793780000000 1.0
C      1  0.5705890000000  0.4946320000000  0.4818720000000 1.0
C      1  0.5233460000000  0.5574270000000  0.4799970000000 1.0
C      1  0.4474040000000  0.5462690000000  0.4790310000000 1.0
C      1  0.6066850000000  0.4856960000000  0.4677380000000 1.0
C      1  0.5217730000000  0.3945910000000  0.4524630000000 1.0
C      1  0.4119430000000  0.4540240000000  0.4594160000000 1.0
C      1  0.4155590000000  0.5728910000000  0.4588680000000 1.0
C      1  0.5485560000000  0.5945020000000  0.4533310000000 1.0
C      1  0.6049670000000  0.5109090000000  0.5366120000000 1.0
C      1  0.5248490000000  0.5968190000000  0.5436810000000 1.0
C      1  0.4100060000000  0.5528760000000  0.5420550000000 1.0
C      1  0.4190470000000  0.4305820000000  0.5408580000000 1.0
C      1  0.5414330000000  0.4034940000000  0.5415220000000 1.0
C      1  0.5387000000000  0.5206530000000  0.3873190000000 1.0
C      1  0.5049480000000  0.4606210000000  0.3885490000000 1.0
C      1  0.4857850000000  0.4737270000000  0.3752030000000 1.0
C      1  0.4682060000000  0.4930900000000  0.3840640000000 1.0
C      1  0.4819150000000  0.5515640000000  0.3984900000000 1.0
C      1  0.5458660000000  0.4879040000000  0.6105450000000 1.0
C      1  0.5225280000000  0.5357520000000  0.5954900000000 1.0
C      1  0.5005270000000  0.5559160000000  0.6099720000000 1.0
C      1  0.4579400000000  0.4948510000000  0.6037100000000 1.0
C      1  0.5045380000000  0.4369240000000  0.6085250000000 1.0
C      1  0.5927510000000  0.5378540000000  0.5422040000000 1.0
C      1  0.5643300000000  0.4202520000000  0.5476990000000 1.0
C      1  0.4436540000000  0.4124370000000  0.5399990000000 1.0
C      1  0.4074980000000  0.5240880000000  0.5416950000000 1.0
C      1  0.4954480000000  0.5976260000000  0.5432600000000 1.0
C      1  0.5892890000000  0.4590710000000  0.4646180000000 1.0
C      1  0.5681970000000  0.5706210000000  0.4572340000000 1.0
C      1  0.4430750000000  0.5854420000000  0.4571140000000 1.0
C      1  0.4027300000000  0.4778630000000  0.4386350000000 1.0
C      1  0.4896680000000  0.4019460000000  0.4550450000000 1.0
C      1  0.4148950000000  0.5730290000000  0.5929520000000 1.0
C      1  0.5328610000000  0.5653430000000  0.5820910000000 1.0
C      1  0.5741150000000  0.4935630000000  0.5909690000000 1.0
C      1  0.5162660000000  0.4243930000000  0.5791740000000 1.0
C      1  0.4423130000000  0.4704700000000  0.5925860000000 1.0
C      1  0.4450940000000  0.4431920000000  0.4116100000000 1.0
C      1  0.5281230000000  0.4404910000000  0.4031310000000 1.0
C      1  0.5823590000000  0.5100770000000  0.4152590000000 1.0
C      1  0.5263090000000  0.5927570000000  0.4060490000000 1.0
C      1  0.4022680000000  0.5573080000000  0.4110180000000 1.0
C      1  0.4267500000000  0.4253980000000  0.5020650000000 1.0
C      1  0.3996190000000  0.5306380000000  0.4927410000000 1.0
C      1  0.5085120000000  0.6116270000000  0.5017230000000 1.0
C      1  0.6182270000000  0.5283620000000  0.5130630000000 1.0
C      1  0.5666750000000  0.4081570000000  0.5005430000000 1.0
C      1  0.4307070000000  0.5832600000000  0.4943650000000 1.0
C      1  0.4023250000000  0.4650710000000  0.4902900000000 1.0
C      1  0.5127800000000  0.3941190000000  0.4860690000000 1.0
C      1  0.6107620000000  0.4816040000000  0.5012460000000 1.0
C      1  0.5530310000000  0.5885240000000  0.4893420000000 1.0
C      1  0.4922930000000  0.6039700000000  0.4741680000000 1.0
C      1  0.6051160000000  0.5449570000000  0.4864000000000 1.0
C      1  0.5764400000000  0.4170250000000  0.4732290000000 1.0
C      1  0.4535670000000  0.3902480000000  0.4673020000000 1.0
C      1  0.3880660000000  0.5173030000000  0.4712290000000 1.0
C      1  0.4765520000000  0.3924270000000  0.5291970000000 1.0
C      1  0.6057590000000  0.4380840000000  0.5440860000000 1.0
C      1  0.5745270000000  0.5693600000000  0.5400490000000 1.0
C      1  0.4554630000000  0.6050360000000  0.5352040000000 1.0
C      1  0.4076970000000  0.4797960000000  0.5182820000000 1.0
C      1  0.4551200000000  0.5611250000000  0.4398200000000 1.0
C      1  0.5583320000000  0.5452780000000  0.4397180000000 1.0
C      1  0.5632100000000  0.4628100000000  0.4459120000000 1.0
C      1  0.4852550000000  0.4250660000000  0.4342950000000 1.0
C      1  0.4264130000000  0.4921440000000  0.4226540000000 1.0
C      1  0.4625290000000  0.4321920000000  0.5609460000000 1.0
C      1  0.5605950000000  0.4491470000000  0.5629510000000 1.0
C      1  0.5656190000000  0.5343840000000  0.5576850000000 1.0
C      1  0.4868630000000  0.5731640000000  0.5600120000000 1.0
C      1  0.4228710000000  0.5101050000000  0.5671320000000 1.0
C      1  0.5463920000000  0.5516170000000  0.5389210000000 1.0
C      1  0.5680950000000  0.4718650000000  0.5423040000000 1.0
C      1  0.4917680000000  0.4380810000000  0.5345500000000 1.0
C      1  0.4305280000000  0.4888030000000  0.5418470000000 1.0
C      1  0.4654940000000  0.5638910000000  0.5389240000000 1.0
C      1  0.5389200000000  0.4472360000000  0.4613690000000 1.0
C      1  0.5719020000000  0.5316930000000  0.4674250000000 1.0
C      1  0.4831930000000  0.5605060000000  0.4513470000000 1.0
C      1  0.4372640000000  0.5075480000000  0.4486330000000 1.0
C      1  0.4686400000000  0.4379030000000  0.4597530000000 1.0
C      1  0.4788140000000  0.3968320000000  0.4869100000000 1.0
C      1  0.3988190000000  0.4904740000000  0.4682810000000 1.0
C      1  0.4613270000000  0.5943620000000  0.4844870000000 1.0
C      1  0.5780190000000  0.5654450000000  0.4878250000000 1.0
C      1  0.5858400000000  0.4424440000000  0.4938850000000 1.0
C      1  0.4794900000000  0.5950020000000  0.5133290000000 1.0
C      1  0.4136530000000  0.5117310000000  0.5135080000000 1.0
C      1  0.4568960000000  0.4111090000000  0.5086790000000 1.0
C      1  0.5853530000000  0.4243990000000  0.5227020000000 1.0
C      1  0.5768290000000  0.5475310000000  0.5140610000000 1.0
C      1  0.5034320000000  0.5019470000000  0.4488160000000 1.0
C      1  0.4935170000000  0.4897730000000  0.5603080000000 1.0
C      1  0.5105190000000  0.4922460000000  0.5053430000000 1.0
END
