TITL C-2622965-4321-643 0.00131130313120961 125000 -725.296009484222 0 0 130 (C1) n - 1
REM
REM in /nfs/bkarasulu/CARBON/AIRSS/Generating-Clusters/AIREBO/with-SteepDescent/Higher-Symm/SD-CG/HFTN-CG
REM
REM
REM
REM
REM
REM ./C.cell (b20cbc046b6831c77cfcea5457e17084)
REM
REM compiler GCC version 9.2.1 20190827 (Red Hat 9.2.1-1)
REM options -cpp -mtune=generic -march=x86-64 -g -O0 -fpre-include=/usr/include/finclude/math-vector-fortran.h
REM seed -1946756112 -351548742 2071469308 686520210 517294994 252956370 -721996128 1223444418 -1473998309 -1333187904 1920718469 -948968784 1915306039 1667349695 -2001093610 -868334003 -298122369 1317186753 809878696 -1924832176 -537467055 -1981252380 -1472991401 -2046087282 1371441789 -967909430 -152126901 1999131703 -77492363 -1524257743 1600706777 -168255245 1064840618
REM
CELL 1.54180   50.00000   50.00000   50.00000   90.00000   90.00000   90.00000
LATT -1
SFAC C  
C      1  0.4940410000000  0.5967980000000  0.5296160000000 1.0
C      1  0.4946510000000  0.4060300000000  0.5129310000000 1.0
C      1  0.5022150000000  0.5926340000000  0.4716550000000 1.0
C      1  0.4922260000000  0.4003470000000  0.4793330000000 1.0
C      1  0.4664840000000  0.4204440000000  0.5487310000000 1.0
C      1  0.5307390000000  0.5829900000000  0.5525360000000 1.0
C      1  0.4765350000000  0.4271980000000  0.4662730000000 1.0
C      1  0.5304320000000  0.5724930000000  0.4553410000000 1.0
C      1  0.4962040000000  0.4120400000000  0.5465540000000 1.0
C      1  0.4993630000000  0.5814210000000  0.5571720000000 1.0
C      1  0.5051400000000  0.4164000000000  0.4520980000000 1.0
C      1  0.4993480000000  0.5772310000000  0.4424050000000 1.0
C      1  0.5374250000000  0.5041630000000  0.5550520000000 1.0
C      1  0.4641750000000  0.4944880000000  0.5564210000000 1.0
C      1  0.5361270000000  0.5038970000000  0.4411160000000 1.0
C      1  0.4654710000000  0.4924120000000  0.4416670000000 1.0
C      1  0.5610190000000  0.5042970000000  0.5144680000000 1.0
C      1  0.4398200000000  0.5021590000000  0.5188450000000 1.0
C      1  0.5493240000000  0.5195890000000  0.4868400000000 1.0
C      1  0.4398300000000  0.4906400000000  0.4888610000000 1.0
C      1  0.4456000000000  0.4622190000000  0.4869270000000 1.0
C      1  0.5499000000000  0.5530900000000  0.4845060000000 1.0
C      1  0.4470330000000  0.4501110000000  0.5174910000000 1.0
C      1  0.5407900000000  0.5492830000000  0.5158260000000 1.0
C      1  0.4778730000000  0.5476710000000  0.4843610000000 1.0
C      1  0.5252430000000  0.4507150000000  0.4883100000000 1.0
C      1  0.4706320000000  0.5490780000000  0.5150120000000 1.0
C      1  0.5280890000000  0.4498580000000  0.5192070000000 1.0
C      1  0.4808330000000  0.5137990000000  0.4839570000000 1.0
C      1  0.5146920000000  0.4822360000000  0.4817770000000 1.0
C      1  0.4846130000000  0.5011840000000  0.5153120000000 1.0
C      1  0.5160380000000  0.4900670000000  0.5148560000000 1.0
C      1  0.5260990000000  0.4550750000000  0.5671920000000 1.0
C      1  0.4797980000000  0.5285030000000  0.5735470000000 1.0
C      1  0.5264420000000  0.4562930000000  0.4235930000000 1.0
C      1  0.4681910000000  0.5425160000000  0.4287540000000 1.0
C      1  0.4476330000000  0.5210990000000  0.4828240000000 1.0
C      1  0.5483350000000  0.4864640000000  0.4792180000000 1.0
C      1  0.4461920000000  0.5309310000000  0.5214310000000 1.0
C      1  0.5475570000000  0.4776930000000  0.5179640000000 1.0
C      1  0.4664370000000  0.4388460000000  0.4369570000000 1.0
C      1  0.5382890000000  0.5478690000000  0.4370490000000 1.0
C      1  0.4651740000000  0.4422770000000  0.5708350000000 1.0
C      1  0.5307320000000  0.5570640000000  0.5693550000000 1.0
C      1  0.5675440000000  0.4995000000000  0.4438660000000 1.0
C      1  0.4367730000000  0.5047430000000  0.4407450000000 1.0
C      1  0.5687240000000  0.4964460000000  0.5528440000000 1.0
C      1  0.4357280000000  0.5037960000000  0.5585920000000 1.0
C      1  0.4729580000000  0.4792790000000  0.5835440000000 1.0
C      1  0.5375780000000  0.5209600000000  0.5846180000000 1.0
C      1  0.4691860000000  0.4726840000000  0.4160760000000 1.0
C      1  0.5490940000000  0.5174690000000  0.4135120000000 1.0
C      1  0.4970890000000  0.5477610000000  0.5311700000000 1.0
C      1  0.4997010000000  0.4561230000000  0.5315840000000 1.0
C      1  0.4948690000000  0.5473520000000  0.4580990000000 1.0
C      1  0.5091550000000  0.4488910000000  0.4588010000000 1.0
C      1  0.4716020000000  0.4631520000000  0.5470980000000 1.0
C      1  0.5179890000000  0.5319540000000  0.5517160000000 1.0
C      1  0.4814440000000  0.4645540000000  0.4529190000000 1.0
C      1  0.5200620000000  0.5271940000000  0.4539560000000 1.0
C      1  0.4377650000000  0.5630260000000  0.5434060000000 1.0
C      1  0.5621550000000  0.4375480000000  0.5360950000000 1.0
C      1  0.4351690000000  0.5655400000000  0.4663590000000 1.0
C      1  0.5566650000000  0.4430360000000  0.4645160000000 1.0
C      1  0.4433700000000  0.4655010000000  0.5752740000000 1.0
C      1  0.5558620000000  0.5388300000000  0.5621690000000 1.0
C      1  0.4425340000000  0.4608270000000  0.4344770000000 1.0
C      1  0.5676540000000  0.5395440000000  0.4313480000000 1.0
C      1  0.5269590000000  0.3995140000000  0.5153960000000 1.0
C      1  0.4726530000000  0.5990510000000  0.5130420000000 1.0
C      1  0.5238240000000  0.4015090000000  0.4860370000000 1.0
C      1  0.4780230000000  0.5991130000000  0.4840580000000 1.0
C      1  0.4372270000000  0.5292160000000  0.4277050000000 1.0
C      1  0.5738340000000  0.4744050000000  0.4320140000000 1.0
C      1  0.4379560000000  0.5274120000000  0.5724410000000 1.0
C      1  0.5735220000000  0.4724060000000  0.5674040000000 1.0
C      1  0.5725180000000  0.5605930000000  0.5179800000000 1.0
C      1  0.4174170000000  0.4515110000000  0.5290830000000 1.0
C      1  0.5777540000000  0.5628880000000  0.4784060000000 1.0
C      1  0.4221970000000  0.4408240000000  0.4801620000000 1.0
C      1  0.4043490000000  0.4763470000000  0.4778800000000 1.0
C      1  0.5947960000000  0.5342410000000  0.4815960000000 1.0
C      1  0.4073290000000  0.4746770000000  0.5063110000000 1.0
C      1  0.5922020000000  0.5346210000000  0.5154370000000 1.0
C      1  0.5169560000000  0.5086170000000  0.4066250000000 1.0
C      1  0.5026870000000  0.4785920000000  0.4138040000000 1.0
C      1  0.5056800000000  0.5091930000000  0.5852390000000 1.0
C      1  0.5050410000000  0.4757760000000  0.5842580000000 1.0
C      1  0.4740580000000  0.4473760000000  0.4881700000000 1.0
C      1  0.5242430000000  0.5736890000000  0.4887980000000 1.0
C      1  0.4770540000000  0.4343700000000  0.5195650000000 1.0
C      1  0.5177690000000  0.5733690000000  0.5226120000000 1.0
C      1  0.4218910000000  0.5503610000000  0.5162680000000 1.0
C      1  0.5687470000000  0.4542050000000  0.5133310000000 1.0
C      1  0.4313710000000  0.5440220000000  0.4868230000000 1.0
C      1  0.5631490000000  0.4627270000000  0.4843360000000 1.0
C      1  0.5872960000000  0.5040190000000  0.5294260000000 1.0
C      1  0.4148200000000  0.4906510000000  0.5355460000000 1.0
C      1  0.5760190000000  0.5124440000000  0.4670260000000 1.0
C      1  0.4214660000000  0.4988960000000  0.4625470000000 1.0
C      1  0.4790010000000  0.5184440000000  0.4498090000000 1.0
C      1  0.5231010000000  0.4782930000000  0.4489490000000 1.0
C      1  0.4818080000000  0.5190090000000  0.5409610000000 1.0
C      1  0.5189300000000  0.4795140000000  0.5470540000000 1.0
C      1  0.5712570000000  0.5375010000000  0.5423220000000 1.0
C      1  0.4219660000000  0.4663610000000  0.5578960000000 1.0
C      1  0.5872360000000  0.5467940000000  0.4504820000000 1.0
C      1  0.4226050000000  0.4599100000000  0.4543110000000 1.0
C      1  0.4405570000000  0.5577290000000  0.4408080000000 1.0
C      1  0.5553070000000  0.4535710000000  0.4381140000000 1.0
C      1  0.4562390000000  0.5471440000000  0.5575660000000 1.0
C      1  0.5566730000000  0.4505330000000  0.5610110000000 1.0
C      1  0.4930150000000  0.5557690000000  0.4192320000000 1.0
C      1  0.5120130000000  0.4273950000000  0.4236810000000 1.0
C      1  0.4911610000000  0.5605560000000  0.5734790000000 1.0
C      1  0.5096460000000  0.4260200000000  0.5675590000000 1.0
C      1  0.5117090000000  0.5417460000000  0.5930100000000 1.0
C      1  0.4925360000000  0.4445230000000  0.5857560000000 1.0
C      1  0.5153150000000  0.5383680000000  0.4158900000000 1.0
C      1  0.4892770000000  0.4466780000000  0.4130200000000 1.0
C      1  0.5371260000000  0.4230540000000  0.4750390000000 1.0
C      1  0.4584520000000  0.5734160000000  0.4858840000000 1.0
C      1  0.5408360000000  0.4197680000000  0.5267010000000 1.0
C      1  0.4514590000000  0.5770690000000  0.5185440000000 1.0
C      1  0.4809490000000  0.4799170000000  0.4810000000000 1.0
C      1  0.5155690000000  0.5161540000000  0.4827760000000 1.0
C      1  0.4628160000000  0.4794410000000  0.5195840000000 1.0
C      1  0.5259710000000  0.5219750000000  0.5211560000000 1.0
C      1  0.5844120000000  0.5857980000000  0.5006310000000 1.0
C      1  0.4087970000000  0.4335970000000  0.5025430000000 1.0
END
