TITL C-2622955-8511-476 0.00321666309502821 125000 -562.595370642112 0 0 105 (C1) n - 1
REM
REM in /nfs/bkarasulu/CARBON/AIRSS/Generating-Clusters/AIREBO/with-SteepDescent/Higher-Symm/SD-CG/HFTN-CG
REM
REM
REM
REM
REM
REM ./C.cell (b20cbc046b6831c77cfcea5457e17084)
REM
REM compiler GCC version 9.2.1 20190827 (Red Hat 9.2.1-1)
REM options -cpp -mtune=generic -march=x86-64 -g -O0 -fpre-include=/usr/include/finclude/math-vector-fortran.h
REM seed -169508264 1429140858 -1544272118 -1173547 1719150796 -526138964 -1370154849 -528598445 -1280047605 -985404051 -496333738 415109302 2098493623 -694072087 233492360 -1266298012 -1574500983 618756925 1304002412 162105777 -964037974 -81810909 -1101820393 -1963125657 -572684579 1108488229 90422003 1071264623 -1529895398 -321558166 -1384014672 -459427037 -1230470376
REM
CELL 1.54180   50.00000   50.00000   50.00000   90.00000   90.00000   90.00000
LATT -1
SFAC C  
C      1  0.4896500000000  0.5795100000000  0.5586560000000 1.0
C      1  0.4843620000000  0.4268840000000  0.4545630000000 1.0
C      1  0.4883460000000  0.5148710000000  0.4497930000000 1.0
C      1  0.4824820000000  0.4895970000000  0.5440190000000 1.0
C      1  0.4855660000000  0.5466570000000  0.5664090000000 1.0
C      1  0.4906810000000  0.4515420000000  0.4339060000000 1.0
C      1  0.4612110000000  0.4503000000000  0.4510550000000 1.0
C      1  0.4625470000000  0.5360320000000  0.5502230000000 1.0
C      1  0.5564670000000  0.5472010000000  0.4814200000000 1.0
C      1  0.5591840000000  0.4663600000000  0.5223510000000 1.0
C      1  0.4745230000000  0.4917630000000  0.4152470000000 1.0
C      1  0.4871050000000  0.4954980000000  0.5842640000000 1.0
C      1  0.4182240000000  0.4715980000000  0.4621080000000 1.0
C      1  0.4238740000000  0.5283010000000  0.5325170000000 1.0
C      1  0.5435160000000  0.4145340000000  0.5054280000000 1.0
C      1  0.5445700000000  0.5903330000000  0.5037350000000 1.0
C      1  0.4324620000000  0.5013810000000  0.5139100000000 1.0
C      1  0.4307540000000  0.4975910000000  0.4801070000000 1.0
C      1  0.5776230000000  0.4870720000000  0.5420400000000 1.0
C      1  0.5794330000000  0.5040740000000  0.4671720000000 1.0
C      1  0.4288280000000  0.5159890000000  0.5578640000000 1.0
C      1  0.4257790000000  0.4908610000000  0.4409930000000 1.0
C      1  0.5361850000000  0.5588920000000  0.5366870000000 1.0
C      1  0.5326250000000  0.4451000000000  0.4705580000000 1.0
C      1  0.4598030000000  0.4793530000000  0.5806930000000 1.0
C      1  0.4555470000000  0.5202130000000  0.4167250000000 1.0
C      1  0.4552770000000  0.4232890000000  0.4994930000000 1.0
C      1  0.4624380000000  0.5681610000000  0.5044700000000 1.0
C      1  0.5576150000000  0.5661200000000  0.5157850000000 1.0
C      1  0.5574020000000  0.4417190000000  0.4919910000000 1.0
C      1  0.5092160000000  0.5501060000000  0.5186940000000 1.0
C      1  0.5084540000000  0.4589290000000  0.4897740000000 1.0
C      1  0.5008740000000  0.5237340000000  0.5816240000000 1.0
C      1  0.4947680000000  0.4725080000000  0.4134580000000 1.0
C      1  0.5467470000000  0.4734600000000  0.5624770000000 1.0
C      1  0.5571380000000  0.5163580000000  0.4456640000000 1.0
C      1  0.4986480000000  0.4270990000000  0.4809260000000 1.0
C      1  0.5022950000000  0.5818070000000  0.5292420000000 1.0
C      1  0.4301170000000  0.4319480000000  0.4883300000000 1.0
C      1  0.4293730000000  0.5681050000000  0.5025470000000 1.0
C      1  0.4929870000000  0.5225590000000  0.5158490000000 1.0
C      1  0.4855540000000  0.4835900000000  0.4833560000000 1.0
C      1  0.4726090000000  0.5455500000000  0.4825790000000 1.0
C      1  0.4708670000000  0.4470900000000  0.5168210000000 1.0
C      1  0.4201120000000  0.4527730000000  0.5103950000000 1.0
C      1  0.4187130000000  0.5460280000000  0.4852240000000 1.0
C      1  0.4961870000000  0.5983360000000  0.4841500000000 1.0
C      1  0.4996460000000  0.3990720000000  0.5195100000000 1.0
C      1  0.5252470000000  0.4283720000000  0.5496870000000 1.0
C      1  0.5244530000000  0.5665890000000  0.4488070000000 1.0
C      1  0.4674940000000  0.5551640000000  0.4554580000000 1.0
C      1  0.4651360000000  0.4429160000000  0.5456780000000 1.0
C      1  0.4275080000000  0.4750890000000  0.5308090000000 1.0
C      1  0.4243840000000  0.5253160000000  0.4636050000000 1.0
C      1  0.4637200000000  0.5529660000000  0.4208070000000 1.0
C      1  0.4673090000000  0.4477290000000  0.5787880000000 1.0
C      1  0.4933060000000  0.5599410000000  0.4363110000000 1.0
C      1  0.4945050000000  0.4375550000000  0.5610630000000 1.0
C      1  0.5564700000000  0.4733640000000  0.4138250000000 1.0
C      1  0.5615170000000  0.5176130000000  0.5802270000000 1.0
C      1  0.5765410000000  0.4649430000000  0.4610710000000 1.0
C      1  0.5767280000000  0.5379670000000  0.5378500000000 1.0
C      1  0.5459680000000  0.4993920000000  0.5404980000000 1.0
C      1  0.5339670000000  0.4924970000000  0.4501180000000 1.0
C      1  0.4841990000000  0.4761850000000  0.5161090000000 1.0
C      1  0.4913160000000  0.5171440000000  0.4823150000000 1.0
C      1  0.5496430000000  0.5442370000000  0.4536650000000 1.0
C      1  0.5506970000000  0.4475530000000  0.5494260000000 1.0
C      1  0.5294650000000  0.5117850000000  0.5675280000000 1.0
C      1  0.5247110000000  0.4828540000000  0.4188450000000 1.0
C      1  0.5752640000000  0.4889310000000  0.4369790000000 1.0
C      1  0.5799560000000  0.5138950000000  0.5557120000000 1.0
C      1  0.5276680000000  0.6003300000000  0.5243410000000 1.0
C      1  0.5281920000000  0.4125180000000  0.4787050000000 1.0
C      1  0.5158620000000  0.5610230000000  0.5605400000000 1.0
C      1  0.5194090000000  0.4406600000000  0.4395390000000 1.0
C      1  0.5093800000000  0.5093020000000  0.4235940000000 1.0
C      1  0.5089110000000  0.4858330000000  0.5616030000000 1.0
C      1  0.4445650000000  0.4671810000000  0.5527960000000 1.0
C      1  0.4435680000000  0.5369900000000  0.4437650000000 1.0
C      1  0.5468550000000  0.4620650000000  0.4447440000000 1.0
C      1  0.5481480000000  0.5379660000000  0.5564880000000 1.0
C      1  0.5260270000000  0.4652220000000  0.5182410000000 1.0
C      1  0.5275970000000  0.5566740000000  0.4911050000000 1.0
C      1  0.5235870000000  0.4940870000000  0.4783810000000 1.0
C      1  0.5426700000000  0.5096510000000  0.5115100000000 1.0
C      1  0.4497890000000  0.4644400000000  0.4997150000000 1.0
C      1  0.4466230000000  0.5329170000000  0.4954380000000 1.0
C      1  0.5120550000000  0.4948890000000  0.5105460000000 1.0
C      1  0.5234520000000  0.5261520000000  0.4888210000000 1.0
C      1  0.4322540000000  0.4472320000000  0.4637850000000 1.0
C      1  0.4433500000000  0.5539760000000  0.5291090000000 1.0
C      1  0.5729350000000  0.5370600000000  0.5068960000000 1.0
C      1  0.5743300000000  0.4712070000000  0.4925610000000 1.0
C      1  0.4568130000000  0.4781850000000  0.4700100000000 1.0
C      1  0.4607760000000  0.5189860000000  0.5208500000000 1.0
C      1  0.4829680000000  0.5887550000000  0.5068680000000 1.0
C      1  0.4825640000000  0.4122200000000  0.5012220000000 1.0
C      1  0.5252130000000  0.4094200000000  0.5269300000000 1.0
C      1  0.5238820000000  0.5849590000000  0.4772590000000 1.0
C      1  0.5129320000000  0.4598640000000  0.5461140000000 1.0
C      1  0.5132900000000  0.5357090000000  0.4400230000000 1.0
C      1  0.4586990000000  0.5040850000000  0.5578130000000 1.0
C      1  0.4583160000000  0.5000190000000  0.4439730000000 1.0
C      1  0.5702300000000  0.5046930000000  0.4968380000000 1.0
END
