TITL C-2622957-9142-501 0.000522184126930429 125000 -940.254782029692 0 0 170 (C1) n - 1
REM
REM in /nfs/bkarasulu/CARBON/AIRSS/Generating-Clusters/AIREBO/with-SteepDescent/Higher-Symm/SD-CG/HFTN-CG
REM
REM
REM
REM
REM
REM ./C.cell (b20cbc046b6831c77cfcea5457e17084)
REM
REM compiler GCC version 9.2.1 20190827 (Red Hat 9.2.1-1)
REM options -cpp -mtune=generic -march=x86-64 -g -O0 -fpre-include=/usr/include/finclude/math-vector-fortran.h
REM seed 2063732 1738566103 205958169 762126119 496509799 -1990011449 -1383408380 -1073250213 -887244905 -1039097389 -527274527 1356258707 -1243961633 -323196006 1042685738 -210162313 -1259524424 -1178312070 814043120 272399027 -667237517 37418664 -957514464 852457649 -1631712013 -1545351523 -1142119247 1376221339 1698220021 1888694254 1316736184 660132810 -314093132
REM
CELL 1.54180   50.00000   50.00000   50.00000   90.00000   90.00000   90.00000
LATT -1
SFAC C  
C      1  0.5013710000000  0.5285080000000  0.4281050000000 1.0
C      1  0.4774860000000  0.5049600000000  0.4279210000000 1.0
C      1  0.4931480000000  0.4744650000000  0.4310030000000 1.0
C      1  0.5220420000000  0.4798160000000  0.4360910000000 1.0
C      1  0.5305260000000  0.5121480000000  0.4349230000000 1.0
C      1  0.5005490000000  0.5259730000000  0.5590950000000 1.0
C      1  0.5165850000000  0.4958780000000  0.5557790000000 1.0
C      1  0.5050800000000  0.4737950000000  0.5745770000000 1.0
C      1  0.4758260000000  0.4795810000000  0.5706690000000 1.0
C      1  0.4710950000000  0.5097500000000  0.5642480000000 1.0
C      1  0.5092060000000  0.4776370000000  0.6138980000000 1.0
C      1  0.5305180000000  0.4955340000000  0.6013460000000 1.0
C      1  0.5198140000000  0.5223810000000  0.6004820000000 1.0
C      1  0.4870710000000  0.5213180000000  0.6096950000000 1.0
C      1  0.4830280000000  0.4894320000000  0.6097320000000 1.0
C      1  0.5146220000000  0.4724660000000  0.3961590000000 1.0
C      1  0.4889600000000  0.4879960000000  0.3937250000000 1.0
C      1  0.4954770000000  0.5156290000000  0.3908390000000 1.0
C      1  0.5241790000000  0.5194280000000  0.3916940000000 1.0
C      1  0.5429950000000  0.4910760000000  0.3927610000000 1.0
C      1  0.4976410000000  0.5652150000000  0.5318850000000 1.0
C      1  0.4422890000000  0.5357850000000  0.5307310000000 1.0
C      1  0.4681660000000  0.4628290000000  0.5435520000000 1.0
C      1  0.5342190000000  0.4466100000000  0.5292120000000 1.0
C      1  0.5396370000000  0.5156290000000  0.5300450000000 1.0
C      1  0.5054290000000  0.5514530000000  0.4733450000000 1.0
C      1  0.5532970000000  0.5170270000000  0.4673560000000 1.0
C      1  0.5367700000000  0.4592150000000  0.4703060000000 1.0
C      1  0.4649890000000  0.4486420000000  0.4655390000000 1.0
C      1  0.4537610000000  0.5121610000000  0.4732660000000 1.0
C      1  0.5684890000000  0.5733520000000  0.5679920000000 1.0
C      1  0.4649060000000  0.5723310000000  0.5833090000000 1.0
C      1  0.4095970000000  0.4866830000000  0.5738070000000 1.0
C      1  0.4674160000000  0.4116440000000  0.5713720000000 1.0
C      1  0.5828890000000  0.4516770000000  0.5732280000000 1.0
C      1  0.4370720000000  0.5575610000000  0.4283420000000 1.0
C      1  0.5430070000000  0.5906260000000  0.4200580000000 1.0
C      1  0.5920150000000  0.4911470000000  0.4154910000000 1.0
C      1  0.5196080000000  0.4218850000000  0.4353040000000 1.0
C      1  0.4129440000000  0.4559260000000  0.4311900000000 1.0
C      1  0.5841760000000  0.4569910000000  0.5401690000000 1.0
C      1  0.5672780000000  0.5655690000000  0.5360930000000 1.0
C      1  0.4566500000000  0.5730500000000  0.5442410000000 1.0
C      1  0.4178220000000  0.4907900000000  0.5440360000000 1.0
C      1  0.4727150000000  0.4095070000000  0.5380440000000 1.0
C      1  0.4082320000000  0.4565230000000  0.4600440000000 1.0
C      1  0.4398280000000  0.5511510000000  0.4599030000000 1.0
C      1  0.5366100000000  0.5782880000000  0.4510880000000 1.0
C      1  0.5944980000000  0.4939360000000  0.4492860000000 1.0
C      1  0.5230270000000  0.4018190000000  0.4579400000000 1.0
C      1  0.5264750000000  0.4854000000000  0.5249630000000 1.0
C      1  0.5032690000000  0.5320180000000  0.5271180000000 1.0
C      1  0.4714450000000  0.5210250000000  0.5223810000000 1.0
C      1  0.4678150000000  0.4899290000000  0.5229940000000 1.0
C      1  0.4963540000000  0.4740060000000  0.5177840000000 1.0
C      1  0.4801850000000  0.4911640000000  0.4799470000000 1.0
C      1  0.4925500000000  0.5199630000000  0.4752290000000 1.0
C      1  0.5231420000000  0.5163760000000  0.4773720000000 1.0
C      1  0.5300430000000  0.4876260000000  0.4812830000000 1.0
C      1  0.5030260000000  0.4704210000000  0.4881180000000 1.0
C      1  0.5494250000000  0.4300310000000  0.4107140000000 1.0
C      1  0.5706960000000  0.5321230000000  0.4109390000000 1.0
C      1  0.4878940000000  0.5689620000000  0.4183420000000 1.0
C      1  0.4287920000000  0.5129400000000  0.4199320000000 1.0
C      1  0.4540840000000  0.4344110000000  0.4219870000000 1.0
C      1  0.4397900000000  0.4508420000000  0.5826130000000 1.0
C      1  0.4319340000000  0.5278690000000  0.5849690000000 1.0
C      1  0.5005940000000  0.5799310000000  0.5827300000000 1.0
C      1  0.5819570000000  0.5367690000000  0.5766510000000 1.0
C      1  0.5371280000000  0.4301560000000  0.5785310000000 1.0
C      1  0.4882160000000  0.5531200000000  0.5985950000000 1.0
C      1  0.4286160000000  0.4976530000000  0.5913720000000 1.0
C      1  0.4488940000000  0.4205140000000  0.5888560000000 1.0
C      1  0.5572010000000  0.4561160000000  0.5865150000000 1.0
C      1  0.5567620000000  0.5530440000000  0.5861740000000 1.0
C      1  0.5217790000000  0.5686600000000  0.4152900000000 1.0
C      1  0.5726260000000  0.5053850000000  0.4015670000000 1.0
C      1  0.5171770000000  0.4402620000000  0.4067850000000 1.0
C      1  0.4376480000000  0.4564380000000  0.4158600000000 1.0
C      1  0.4448350000000  0.5364880000000  0.4114570000000 1.0
C      1  0.4217040000000  0.4306130000000  0.5613490000000 1.0
C      1  0.5506300000000  0.4137680000000  0.5518740000000 1.0
C      1  0.5862200000000  0.5219000000000  0.5521440000000 1.0
C      1  0.5105240000000  0.6065930000000  0.5699410000000 1.0
C      1  0.4108220000000  0.5384140000000  0.5598560000000 1.0
C      1  0.5617040000000  0.4321190000000  0.4357930000000 1.0
C      1  0.4466690000000  0.4176970000000  0.4482440000000 1.0
C      1  0.4149270000000  0.5171940000000  0.4491070000000 1.0
C      1  0.4932240000000  0.5940270000000  0.4424350000000 1.0
C      1  0.5847750000000  0.5363520000000  0.4396790000000 1.0
C      1  0.5016000000000  0.4189790000000  0.5247650000000 1.0
C      1  0.5845330000000  0.4872470000000  0.5323420000000 1.0
C      1  0.5368720000000  0.5714140000000  0.5302340000000 1.0
C      1  0.4460800000000  0.5708640000000  0.5119920000000 1.0
C      1  0.4207750000000  0.4642650000000  0.5249840000000 1.0
C      1  0.4999260000000  0.4165410000000  0.4694870000000 1.0
C      1  0.4214720000000  0.4805030000000  0.4712250000000 1.0
C      1  0.4591300000000  0.5707140000000  0.4799230000000 1.0
C      1  0.5544880000000  0.5603750000000  0.4729960000000 1.0
C      1  0.5790040000000  0.4733770000000  0.4671470000000 1.0
C      1  0.4161110000000  0.5462340000000  0.4810220000000 1.0
C      1  0.4117490000000  0.4355610000000  0.4796470000000 1.0
C      1  0.5438150000000  0.4087780000000  0.4775820000000 1.0
C      1  0.6032910000000  0.5120810000000  0.4749480000000 1.0
C      1  0.5085780000000  0.5962040000000  0.4914530000000 1.0
C      1  0.5841620000000  0.5523820000000  0.5141080000000 1.0
C      1  0.5779500000000  0.4367070000000  0.5172710000000 1.0
C      1  0.4499120000000  0.4180460000000  0.5210320000000 1.0
C      1  0.4010430000000  0.5075210000000  0.5242690000000 1.0
C      1  0.4545110000000  0.6018400000000  0.5539270000000 1.0
C      1  0.5326940000000  0.5451210000000  0.4877460000000 1.0
C      1  0.4694980000000  0.5387950000000  0.4854120000000 1.0
C      1  0.4525970000000  0.4733880000000  0.4813750000000 1.0
C      1  0.5136930000000  0.4397620000000  0.4846150000000 1.0
C      1  0.5627990000000  0.4917140000000  0.4894650000000 1.0
C      1  0.4730770000000  0.5538470000000  0.5132910000000 1.0
C      1  0.5299980000000  0.5447040000000  0.5159270000000 1.0
C      1  0.5496670000000  0.4667170000000  0.5084220000000 1.0
C      1  0.4804250000000  0.4438310000000  0.5181300000000 1.0
C      1  0.4382050000000  0.4842000000000  0.5072840000000 1.0
C      1  0.4242860000000  0.4247710000000  0.5302490000000 1.0
C      1  0.5592330000000  0.4158980000000  0.5243460000000 1.0
C      1  0.5932140000000  0.5276980000000  0.5248200000000 1.0
C      1  0.5106290000000  0.6131370000000  0.5455120000000 1.0
C      1  0.4024810000000  0.5348440000000  0.5322440000000 1.0
C      1  0.5633900000000  0.4262920000000  0.4671680000000 1.0
C      1  0.4362180000000  0.4224010000000  0.4741020000000 1.0
C      1  0.4043250000000  0.5214690000000  0.4738520000000 1.0
C      1  0.5144260000000  0.5977500000000  0.4617630000000 1.0
C      1  0.5971390000000  0.5390110000000  0.4663270000000 1.0
C      1  0.4873280000000  0.4419190000000  0.4230610000000 1.0
C      1  0.5500420000000  0.4798140000000  0.4221400000000 1.0
C      1  0.5377620000000  0.5392760000000  0.4157310000000 1.0
C      1  0.4769050000000  0.5387550000000  0.4068200000000 1.0
C      1  0.4600980000000  0.4814460000000  0.4105290000000 1.0
C      1  0.5238640000000  0.4565150000000  0.5936870000000 1.0
C      1  0.4539900000000  0.4783240000000  0.5958630000000 1.0
C      1  0.4647710000000  0.5310480000000  0.5875520000000 1.0
C      1  0.5281340000000  0.5398730000000  0.5733700000000 1.0
C      1  0.5436850000000  0.4840500000000  0.5725740000000 1.0
C      1  0.4828850000000  0.4353380000000  0.5571050000000 1.0
C      1  0.5530680000000  0.4628900000000  0.5476540000000 1.0
C      1  0.5505130000000  0.5392540000000  0.5493260000000 1.0
C      1  0.4807440000000  0.5543520000000  0.5593220000000 1.0
C      1  0.4437010000000  0.5089890000000  0.5482710000000 1.0
C      1  0.5206380000000  0.4494700000000  0.4451840000000 1.0
C      1  0.4626640000000  0.4713160000000  0.4428950000000 1.0
C      1  0.4617330000000  0.5286810000000  0.4466070000000 1.0
C      1  0.5138440000000  0.5536270000000  0.4443550000000 1.0
C      1  0.5629500000000  0.5028570000000  0.4402670000000 1.0
C      1  0.4589170000000  0.4341980000000  0.4950750000000 1.0
C      1  0.5711370000000  0.4494710000000  0.4882620000000 1.0
C      1  0.5819790000000  0.5548570000000  0.4858220000000 1.0
C      1  0.4911580000000  0.5743250000000  0.4842310000000 1.0
C      1  0.4103620000000  0.5000980000000  0.4953330000000 1.0
C      1  0.5304300000000  0.4201230000000  0.5067610000000 1.0
C      1  0.4084020000000  0.4399840000000  0.5083080000000 1.0
C      1  0.4210250000000  0.5513440000000  0.5102320000000 1.0
C      1  0.5132900000000  0.5934120000000  0.5210720000000 1.0
C      1  0.5901030000000  0.5032050000000  0.5042340000000 1.0
C      1  0.5624870000000  0.5015970000000  0.5503240000000 1.0
C      1  0.5180130000000  0.5688940000000  0.5588680000000 1.0
C      1  0.4415550000000  0.5492900000000  0.5607320000000 1.0
C      1  0.4380940000000  0.4568350000000  0.5496470000000 1.0
C      1  0.5194450000000  0.4260600000000  0.5509830000000 1.0
C      1  0.4405670000000  0.4949490000000  0.4470740000000 1.0
C      1  0.4730020000000  0.5705970000000  0.4488680000000 1.0
C      1  0.5539180000000  0.5428430000000  0.4454380000000 1.0
C      1  0.5589100000000  0.4605110000000  0.4469750000000 1.0
C      1  0.4787840000000  0.4235140000000  0.4506380000000 1.0
END
