TITL C-2622967-6265-616 0.000273816363525594 125000 -77.7581624078777 0 0 15 (C1) n - 1
REM
REM in /nfs/bkarasulu/CARBON/AIRSS/Generating-Clusters/AIREBO/with-SteepDescent/Higher-Symm/SD-CG/HFTN-CG
REM
REM
REM
REM
REM
REM ./C.cell (b20cbc046b6831c77cfcea5457e17084)
REM
REM compiler GCC version 9.2.1 20190827 (Red Hat 9.2.1-1)
REM options -cpp -mtune=generic -march=x86-64 -g -O0 -fpre-include=/usr/include/finclude/math-vector-fortran.h
REM seed 605253501 1736175496 -1594920751 -1982729592 -329659374 -1541868974 -5867443 -520649496 -1053049973 -1553275622 -100976465 -1941169211 793661479 150587303 1295243288 -1346187774 1256162570 -1429150808 324714251 1070672203 -527680383 -1846813445 -559050059 -1365164952 -2056493392 1622824955 -819371250 -904431464 403562331 -298507842 1314303936 965667816 -253281274
REM
CELL 1.54180   50.00000   50.00000   50.00000   90.00000   90.00000   90.00000
LATT -1
SFAC C  
C      1  0.4916770000000  0.5080800000000  0.4619790000000 1.0
C      1  0.4595090000000  0.4809810000000  0.5043260000000 1.0
C      1  0.4991790000000  0.5147660000000  0.5442610000000 1.0
C      1  0.5252940000000  0.4940370000000  0.4959710000000 1.0
C      1  0.5142920000000  0.4637940000000  0.4861000000000 1.0
C      1  0.4878870000000  0.5310040000000  0.4851370000000 1.0
C      1  0.4794230000000  0.4626640000000  0.5207120000000 1.0
C      1  0.5149210000000  0.5308560000000  0.5258590000000 1.0
C      1  0.5366810000000  0.5158670000000  0.5138720000000 1.0
C      1  0.5116720000000  0.4890660000000  0.4654400000000 1.0
C      1  0.4651030000000  0.5062660000000  0.4832350000000 1.0
C      1  0.4886600000000  0.4915020000000  0.5323190000000 1.0
C      1  0.4985230000000  0.4489860000000  0.5040810000000 1.0
C      1  0.4997760000000  0.5450560000000  0.5058210000000 1.0
C      1  0.4921600000000  0.4940900000000  0.4998470000000 1.0
END
