TITL C-2622958-629-219 0.00288282766569788 125000 -623.251661357962 0 0 121 (C1) n - 1
REM
REM in /nfs/bkarasulu/CARBON/AIRSS/Generating-Clusters/AIREBO/with-SteepDescent/Higher-Symm/SD-CG/HFTN-CG
REM
REM
REM
REM
REM
REM ./C.cell (b20cbc046b6831c77cfcea5457e17084)
REM
REM compiler GCC version 9.2.1 20190827 (Red Hat 9.2.1-1)
REM options -cpp -mtune=generic -march=x86-64 -g -O0 -fpre-include=/usr/include/finclude/math-vector-fortran.h
REM seed -1528006302 184862883 73202777 -1978774873 -1113021426 -953252527 1028114408 1772155258 1424105836 1733568607 -1292889531 2041509570 -929460160 -669459394 -1048402317 239632171 1735317611 -510967600 305497997 1141584917 -1118008301 -760934713 -502491981 -1973203528 1592672424 157719406 -805191398 -2134191687 2103711122 -925301641 -502853463 650691329 309879072
REM
CELL 1.54180   50.00000   50.00000   50.00000   90.00000   90.00000   90.00000
LATT -1
SFAC C  
C      1  0.4276590000000  0.5579380000000  0.5395600000000 1.0
C      1  0.4271460000000  0.5649550000000  0.4786830000000 1.0
C      1  0.4310470000000  0.5224240000000  0.4381490000000 1.0
C      1  0.4319760000000  0.4647680000000  0.4424540000000 1.0
C      1  0.4259720000000  0.4320310000000  0.4921580000000 1.0
C      1  0.4261800000000  0.4487440000000  0.5479470000000 1.0
C      1  0.4318490000000  0.5070090000000  0.5671880000000 1.0
C      1  0.5287950000000  0.5493500000000  0.5139260000000 1.0
C      1  0.5309970000000  0.5413480000000  0.4625420000000 1.0
C      1  0.5361210000000  0.4986460000000  0.4427050000000 1.0
C      1  0.5313150000000  0.4522560000000  0.4628370000000 1.0
C      1  0.5341320000000  0.4534280000000  0.5072260000000 1.0
C      1  0.5289000000000  0.4721030000000  0.5473570000000 1.0
C      1  0.5323070000000  0.5326290000000  0.5540530000000 1.0
C      1  0.4819020000000  0.4509510000000  0.5567120000000 1.0
C      1  0.4841860000000  0.5235750000000  0.5747090000000 1.0
C      1  0.4798680000000  0.5593320000000  0.5311290000000 1.0
C      1  0.4811970000000  0.5585120000000  0.4682930000000 1.0
C      1  0.4856980000000  0.5215740000000  0.4254170000000 1.0
C      1  0.4833220000000  0.4467750000000  0.4418270000000 1.0
C      1  0.4800420000000  0.4367540000000  0.5034100000000 1.0
C      1  0.5229060000000  0.5579240000000  0.4346980000000 1.0
C      1  0.5196510000000  0.4827850000000  0.4181270000000 1.0
C      1  0.5144120000000  0.4227370000000  0.4633050000000 1.0
C      1  0.5223810000000  0.4404980000000  0.5364010000000 1.0
C      1  0.5198280000000  0.4782320000000  0.5795490000000 1.0
C      1  0.5157050000000  0.5562990000000  0.5707650000000 1.0
C      1  0.5193810000000  0.5797220000000  0.5018390000000 1.0
C      1  0.5583120000000  0.4651900000000  0.4775510000000 1.0
C      1  0.5623210000000  0.4700390000000  0.5108730000000 1.0
C      1  0.5550560000000  0.4888400000000  0.5366640000000 1.0
C      1  0.5550690000000  0.5224260000000  0.5309410000000 1.0
C      1  0.5549510000000  0.5337520000000  0.4987970000000 1.0
C      1  0.5577670000000  0.5209400000000  0.4673910000000 1.0
C      1  0.5643780000000  0.4886620000000  0.4588010000000 1.0
C      1  0.5062910000000  0.4937570000000  0.5453620000000 1.0
C      1  0.5153240000000  0.5211650000000  0.5273620000000 1.0
C      1  0.5105950000000  0.5429850000000  0.4893890000000 1.0
C      1  0.5190810000000  0.5109850000000  0.4671150000000 1.0
C      1  0.5096030000000  0.4784340000000  0.4644920000000 1.0
C      1  0.5074510000000  0.4630810000000  0.4921470000000 1.0
C      1  0.5094450000000  0.4837500000000  0.5144230000000 1.0
C      1  0.4847830000000  0.4628080000000  0.5249210000000 1.0
C      1  0.4754180000000  0.4953280000000  0.5311980000000 1.0
C      1  0.4846430000000  0.5270540000000  0.5407870000000 1.0
C      1  0.4789000000000  0.5459840000000  0.4998540000000 1.0
C      1  0.4899580000000  0.5270390000000  0.4587210000000 1.0
C      1  0.4821820000000  0.4972980000000  0.4714520000000 1.0
C      1  0.4794700000000  0.4549140000000  0.4746250000000 1.0
C      1  0.5111140000000  0.4483630000000  0.5739560000000 1.0
C      1  0.5139910000000  0.5310590000000  0.5893300000000 1.0
C      1  0.5079800000000  0.5784790000000  0.5314720000000 1.0
C      1  0.5093890000000  0.5745300000000  0.4579660000000 1.0
C      1  0.5158550000000  0.5130110000000  0.4116170000000 1.0
C      1  0.5131420000000  0.4330940000000  0.4328350000000 1.0
C      1  0.5098270000000  0.4220460000000  0.5107500000000 1.0
C      1  0.4662390000000  0.5824170000000  0.5101950000000 1.0
C      1  0.4703680000000  0.5568690000000  0.4361000000000 1.0
C      1  0.4720420000000  0.4909580000000  0.4188580000000 1.0
C      1  0.4655140000000  0.4219510000000  0.4567790000000 1.0
C      1  0.4698900000000  0.4218180000000  0.5322260000000 1.0
C      1  0.4702340000000  0.4744530000000  0.5783840000000 1.0
C      1  0.4650610000000  0.5514310000000  0.5785550000000 1.0
C      1  0.5471010000000  0.4205620000000  0.5485700000000 1.0
C      1  0.5428390000000  0.4907600000000  0.5929030000000 1.0
C      1  0.5438560000000  0.5693170000000  0.5647790000000 1.0
C      1  0.5463120000000  0.5920300000000  0.4923340000000 1.0
C      1  0.5455310000000  0.5527730000000  0.4158880000000 1.0
C      1  0.5458920000000  0.4666160000000  0.4161990000000 1.0
C      1  0.5395700000000  0.4086460000000  0.4738780000000 1.0
C      1  0.4151810000000  0.5356190000000  0.4882200000000 1.0
C      1  0.4172960000000  0.5102000000000  0.4656930000000 1.0
C      1  0.4203920000000  0.4773220000000  0.4704050000000 1.0
C      1  0.4084280000000  0.4606450000000  0.4976060000000 1.0
C      1  0.4113310000000  0.4729050000000  0.5291870000000 1.0
C      1  0.4148030000000  0.5055070000000  0.5384850000000 1.0
C      1  0.4152100000000  0.5345660000000  0.5207590000000 1.0
C      1  0.5616030000000  0.4494180000000  0.5379000000000 1.0
C      1  0.5635390000000  0.4979250000000  0.5674150000000 1.0
C      1  0.5648890000000  0.5522480000000  0.5440100000000 1.0
C      1  0.5648650000000  0.5636510000000  0.4895130000000 1.0
C      1  0.5654100000000  0.5363250000000  0.4380320000000 1.0
C      1  0.5680890000000  0.4829590000000  0.4255080000000 1.0
C      1  0.5619000000000  0.4324370000000  0.4835500000000 1.0
C      1  0.5580730000000  0.4341610000000  0.4498680000000 1.0
C      1  0.5625390000000  0.4242100000000  0.5153870000000 1.0
C      1  0.5631820000000  0.4646220000000  0.5673620000000 1.0
C      1  0.5651410000000  0.5307450000000  0.5703510000000 1.0
C      1  0.5647610000000  0.5760490000000  0.5200790000000 1.0
C      1  0.5640950000000  0.5629180000000  0.4563350000000 1.0
C      1  0.5678830000000  0.5101060000000  0.4159750000000 1.0
C      1  0.4469520000000  0.5134850000000  0.5308110000000 1.0
C      1  0.4478760000000  0.5375500000000  0.5110360000000 1.0
C      1  0.4478330000000  0.5309440000000  0.4799740000000 1.0
C      1  0.4505500000000  0.5030900000000  0.4680690000000 1.0
C      1  0.4532670000000  0.4704800000000  0.4757810000000 1.0
C      1  0.4404970000000  0.4674320000000  0.5032130000000 1.0
C      1  0.4445590000000  0.4800340000000  0.5314420000000 1.0
C      1  0.4933840000000  0.4690700000000  0.4181950000000 1.0
C      1  0.4886990000000  0.4164760000000  0.4775000000000 1.0
C      1  0.4967940000000  0.4215410000000  0.5483610000000 1.0
C      1  0.4941520000000  0.4923190000000  0.5836440000000 1.0
C      1  0.4889020000000  0.5644310000000  0.5635140000000 1.0
C      1  0.4903230000000  0.5828600000000  0.4902310000000 1.0
C      1  0.4960690000000  0.5535220000000  0.4201130000000 1.0
C      1  0.5397180000000  0.5802110000000  0.4633440000000 1.0
C      1  0.5418750000000  0.5243270000000  0.4080920000000 1.0
C      1  0.5408210000000  0.4405320000000  0.4260050000000 1.0
C      1  0.5352230000000  0.4107270000000  0.5034180000000 1.0
C      1  0.5410890000000  0.4428740000000  0.5715560000000 1.0
C      1  0.5403160000000  0.5201730000000  0.5910330000000 1.0
C      1  0.5375270000000  0.5804070000000  0.5374750000000 1.0
C      1  0.4515570000000  0.5608390000000  0.5512530000000 1.0
C      1  0.4529310000000  0.5718740000000  0.4828710000000 1.0
C      1  0.4532110000000  0.5332600000000  0.4283580000000 1.0
C      1  0.4561750000000  0.4652700000000  0.4309150000000 1.0
C      1  0.4518130000000  0.4277310000000  0.4857570000000 1.0
C      1  0.4506050000000  0.4380550000000  0.5494750000000 1.0
C      1  0.4564880000000  0.5031250000000  0.5773120000000 1.0
C      1  0.4738890000000  0.4964980000000  0.4997860000000 1.0
C      1  0.5240960000000  0.5067060000000  0.4981950000000 1.0
END
