TITL C-2622962-9663-602 -0.043256140012324 125000 -276.224264074106 0 0 49 (C1) n - 1
REM
REM in /nfs/bkarasulu/CARBON/AIRSS/Generating-Clusters/AIREBO/with-SteepDescent/Higher-Symm/SD-CG/HFTN-CG
REM
REM
REM
REM
REM
REM ./C.cell (b20cbc046b6831c77cfcea5457e17084)
REM
REM compiler GCC version 9.2.1 20190827 (Red Hat 9.2.1-1)
REM options -cpp -mtune=generic -march=x86-64 -g -O0 -fpre-include=/usr/include/finclude/math-vector-fortran.h
REM seed -1192882269 -329191848 -2007510994 -142867461 -431519546 100005631 265732380 624161308 -1060746863 -1887772258 1321610300 863114790 -1217533136 154630738 2084016373 -649051280 -1584769017 1427720970 -128054086 -1088531467 -8204134 -927779578 -1373765079 858167318 -27336030 -1605254683 1624298405 -1418506611 -540754504 -1606383544 -437413673 -728365259 963892999
REM
CELL 1.54180   50.00000   50.00000   50.00000   90.00000   90.00000   90.00000
LATT -1
SFAC C  
C      1  0.4799180000000  0.4835540000000  0.4751170000000 1.0
C      1  0.5175840000000  0.4807190000000  0.5268410000000 1.0
C      1  0.4860390000000  0.5222150000000  0.4897540000000 1.0
C      1  0.5172900000000  0.5182120000000  0.5136430000000 1.0
C      1  0.4715790000000  0.4926900000000  0.5436900000000 1.0
C      1  0.5304250000000  0.4848370000000  0.4588410000000 1.0
C      1  0.4788030000000  0.5188380000000  0.5231630000000 1.0
C      1  0.5286320000000  0.5149490000000  0.4578740000000 1.0
C      1  0.4503280000000  0.4877910000000  0.4914300000000 1.0
C      1  0.5443870000000  0.4899960000000  0.5080820000000 1.0
C      1  0.4395330000000  0.5146530000000  0.4966190000000 1.0
C      1  0.5478500000000  0.5216490000000  0.5062330000000 1.0
C      1  0.5541250000000  0.5357240000000  0.4477750000000 1.0
C      1  0.4330010000000  0.5327990000000  0.5433020000000 1.0
C      1  0.5585390000000  0.4702350000000  0.4511640000000 1.0
C      1  0.4457910000000  0.4767080000000  0.5385560000000 1.0
C      1  0.5409240000000  0.5079060000000  0.5612680000000 1.0
C      1  0.4565590000000  0.5084100000000  0.4392120000000 1.0
C      1  0.5431790000000  0.4837810000000  0.5472790000000 1.0
C      1  0.4547050000000  0.4832260000000  0.4522650000000 1.0
C      1  0.5047510000000  0.5330840000000  0.5386970000000 1.0
C      1  0.5000260000000  0.5246980000000  0.4584620000000 1.0
C      1  0.4959530000000  0.4705710000000  0.5476070000000 1.0
C      1  0.5033560000000  0.4723760000000  0.4531570000000 1.0
C      1  0.4843160000000  0.5126230000000  0.4346210000000 1.0
C      1  0.5135380000000  0.5165110000000  0.5631720000000 1.0
C      1  0.4964650000000  0.4887540000000  0.4270800000000 1.0
C      1  0.4939490000000  0.4963720000000  0.5685220000000 1.0
C      1  0.5067900000000  0.4430280000000  0.5344490000000 1.0
C      1  0.4914880000000  0.4460200000000  0.4677210000000 1.0
C      1  0.5152360000000  0.5622140000000  0.5376300000000 1.0
C      1  0.4903860000000  0.5543130000000  0.4665430000000 1.0
C      1  0.4455750000000  0.4513930000000  0.4866970000000 1.0
C      1  0.5497440000000  0.4541700000000  0.5102710000000 1.0
C      1  0.4425750000000  0.5349170000000  0.4767690000000 1.0
C      1  0.5568470000000  0.5404010000000  0.5289740000000 1.0
C      1  0.5496500000000  0.5292540000000  0.4782160000000 1.0
C      1  0.4476490000000  0.5234430000000  0.5224040000000 1.0
C      1  0.5496820000000  0.4707590000000  0.4821590000000 1.0
C      1  0.4426390000000  0.4676450000000  0.5137670000000 1.0
C      1  0.5604530000000  0.5272670000000  0.5538790000000 1.0
C      1  0.4391630000000  0.5282270000000  0.4494480000000 1.0
C      1  0.5620870000000  0.4669310000000  0.5362750000000 1.0
C      1  0.4360680000000  0.4648990000000  0.4607570000000 1.0
C      1  0.5419440000000  0.5645880000000  0.5305250000000 1.0
C      1  0.4667920000000  0.5494250000000  0.4829970000000 1.0
C      1  0.5251670000000  0.4380690000000  0.5181160000000 1.0
C      1  0.4717620000000  0.4380090000000  0.4812040000000 1.0
C      1  0.4997160000000  0.4931590000000  0.5009350000000 1.0
END
