TITL C-2622968-4806-106 -2.34061002459882e-07 125000 -117.102299110437 0 0 20 (Ih) n - 1
REM
REM in /nfs/bkarasulu/CARBON/AIRSS/Generating-Clusters/AIREBO/with-SteepDescent/Higher-Symm/SD-CG/HFTN-CG
REM
REM
REM
REM
REM
REM ./C.cell (b20cbc046b6831c77cfcea5457e17084)
REM
REM compiler GCC version 9.2.1 20190827 (Red Hat 9.2.1-1)
REM options -cpp -mtune=generic -march=x86-64 -g -O0 -fpre-include=/usr/include/finclude/math-vector-fortran.h
REM seed -512472957 -34425901 -1292068825 -1792867886 -503853188 862564151 -758425406 -1532854668 -521026341 -195730505 1052619563 2085456494 1548424103 -1862504376 1338911901 -742665456 785657940 1122605275 327674979 -1577006486 -138612762 -109131156 -1803972468 882194123 501330782 146386978 -1863025841 -1293458141 -872881089 -376775663 -1682420365 -1283001529 685260669
REM
CELL 1.54180   50.00000   50.00000   50.00000   90.00000   90.00000   90.00000
LATT -1
SFAC C  
C      1  0.5165680000000  0.4614790000000  0.4989370000000 1.0
C      1  0.5008860000000  0.5161440000000  0.4611810000000 1.0
C      1  0.4867710000000  0.4604160000000  0.4979890000000 1.0
C      1  0.5137040000000  0.5394860000000  0.5014390000000 1.0
C      1  0.4839070000000  0.5384230000000  0.5004900000000 1.0
C      1  0.4995890000000  0.4837580000000  0.5382460000000 1.0
C      1  0.4607760000000  0.4980650000000  0.5133730000000 1.0
C      1  0.4984950000000  0.5135540000000  0.5392010000000 1.0
C      1  0.5019800000000  0.4863480000000  0.4602260000000 1.0
C      1  0.5396990000000  0.5018380000000  0.4860540000000 1.0
C      1  0.4616890000000  0.4990540000000  0.4835720000000 1.0
C      1  0.5387860000000  0.5008490000000  0.5158560000000 1.0
C      1  0.5241980000000  0.5257170000000  0.4771440000000 1.0
C      1  0.4745070000000  0.5223960000000  0.5238290000000 1.0
C      1  0.5244900000000  0.4759060000000  0.5238170000000 1.0
C      1  0.4762770000000  0.4741850000000  0.5222830000000 1.0
C      1  0.4759850000000  0.5239970000000  0.4756100000000 1.0
C      1  0.5259680000000  0.4775060000000  0.4755980000000 1.0
C      1  0.4777550000000  0.4757860000000  0.4740640000000 1.0
C      1  0.5227200000000  0.5241170000000  0.5253630000000 1.0
END
