TITL C-2622962-9663-169 0.000467175963841069 125000 -468.567612020778 0 0 87 (C1) n - 1
REM
REM in /nfs/bkarasulu/CARBON/AIRSS/Generating-Clusters/AIREBO/with-SteepDescent/Higher-Symm/SD-CG/HFTN-CG
REM
REM
REM
REM
REM
REM ./C.cell (b20cbc046b6831c77cfcea5457e17084)
REM
REM compiler GCC version 9.2.1 20190827 (Red Hat 9.2.1-1)
REM options -cpp -mtune=generic -march=x86-64 -g -O0 -fpre-include=/usr/include/finclude/math-vector-fortran.h
REM seed -1854964643 -227169181 1893946113 1341199298 704999622 -997882180 -566402632 2031525342 -906047505 1923309415 -960696951 879908957 1528559321 1150589428 92305369 -155506718 2023666275 -246012787 1215435658 -1176312155 1925048541 -1502459332 2076814886 1038206429 767433131 148169631 -1700823973 1558443615 960422517 33348328 -2117587860 -340706536 191448919
REM
CELL 1.54180   50.00000   50.00000   50.00000   90.00000   90.00000   90.00000
LATT -1
SFAC C  
C      1  0.4786010000000  0.4421550000000  0.4585030000000 1.0
C      1  0.5314940000000  0.4443290000000  0.4591280000000 1.0
C      1  0.5535110000000  0.4345110000000  0.5248280000000 1.0
C      1  0.4846240000000  0.4431620000000  0.5539530000000 1.0
C      1  0.4413680000000  0.4379610000000  0.5030610000000 1.0
C      1  0.4633490000000  0.5116640000000  0.5668970000000 1.0
C      1  0.4196880000000  0.5103460000000  0.4881550000000 1.0
C      1  0.4858150000000  0.5160120000000  0.4224540000000 1.0
C      1  0.5666710000000  0.5208270000000  0.4622440000000 1.0
C      1  0.5614740000000  0.5079390000000  0.5554160000000 1.0
C      1  0.4177380000000  0.4844240000000  0.5402560000000 1.0
C      1  0.4401750000000  0.4805220000000  0.4445330000000 1.0
C      1  0.5378510000000  0.4917050000000  0.4256740000000 1.0
C      1  0.5807790000000  0.4833660000000  0.5094370000000 1.0
C      1  0.5157000000000  0.4806520000000  0.5754110000000 1.0
C      1  0.4254340000000  0.5478340000000  0.5221860000000 1.0
C      1  0.4537690000000  0.5448060000000  0.4437790000000 1.0
C      1  0.5509080000000  0.5620060000000  0.4434580000000 1.0
C      1  0.5804960000000  0.5444570000000  0.5264460000000 1.0
C      1  0.5043040000000  0.5446180000000  0.5687300000000 1.0
C      1  0.5088220000000  0.5308790000000  0.4359250000000 1.0
C      1  0.5686620000000  0.5320880000000  0.4904790000000 1.0
C      1  0.5341560000000  0.5248410000000  0.5442510000000 1.0
C      1  0.4520970000000  0.5251190000000  0.5414190000000 1.0
C      1  0.4379830000000  0.5185730000000  0.4692860000000 1.0
C      1  0.5450150000000  0.5564330000000  0.4925730000000 1.0
C      1  0.5228100000000  0.5506130000000  0.5251430000000 1.0
C      1  0.4703080000000  0.5526950000000  0.5364740000000 1.0
C      1  0.4598330000000  0.5567790000000  0.4891740000000 1.0
C      1  0.5017210000000  0.5525070000000  0.4612200000000 1.0
C      1  0.5261950000000  0.4541700000000  0.5315350000000 1.0
C      1  0.4675430000000  0.4552010000000  0.5266400000000 1.0
C      1  0.4661490000000  0.4587590000000  0.4925750000000 1.0
C      1  0.4984380000000  0.4571230000000  0.4819670000000 1.0
C      1  0.5264600000000  0.4654630000000  0.4994550000000 1.0
C      1  0.5003150000000  0.4323800000000  0.5281460000000 1.0
C      1  0.4713100000000  0.4246540000000  0.5121680000000 1.0
C      1  0.4837300000000  0.4200670000000  0.4826230000000 1.0
C      1  0.5156270000000  0.4278080000000  0.4832250000000 1.0
C      1  0.5270450000000  0.4198340000000  0.5112880000000 1.0
C      1  0.4199840000000  0.4614040000000  0.5153170000000 1.0
C      1  0.4670160000000  0.4611450000000  0.4367730000000 1.0
C      1  0.5495530000000  0.4707490000000  0.4479130000000 1.0
C      1  0.5673470000000  0.4627120000000  0.5328760000000 1.0
C      1  0.4868950000000  0.4679250000000  0.5714720000000 1.0
C      1  0.5128480000000  0.4771560000000  0.4338730000000 1.0
C      1  0.5600540000000  0.4661330000000  0.4939670000000 1.0
C      1  0.5353810000000  0.4641820000000  0.5627160000000 1.0
C      1  0.4436920000000  0.4692630000000  0.5465610000000 1.0
C      1  0.4404670000000  0.4619110000000  0.4700200000000 1.0
C      1  0.5629000000000  0.4753710000000  0.5634260000000 1.0
C      1  0.4565330000000  0.4798760000000  0.5703580000000 1.0
C      1  0.4158640000000  0.4602320000000  0.4826170000000 1.0
C      1  0.4938340000000  0.4642760000000  0.4190950000000 1.0
C      1  0.5678500000000  0.4571430000000  0.4693990000000 1.0
C      1  0.4997320000000  0.4858540000000  0.4640270000000 1.0
C      1  0.5336440000000  0.4959980000000  0.4930970000000 1.0
C      1  0.5177040000000  0.4857660000000  0.5341360000000 1.0
C      1  0.4783070000000  0.4860510000000  0.5191310000000 1.0
C      1  0.4845010000000  0.5004490000000  0.4909010000000 1.0
C      1  0.5331370000000  0.5652460000000  0.4640580000000 1.0
C      1  0.5561350000000  0.5570620000000  0.5228150000000 1.0
C      1  0.4973420000000  0.5542180000000  0.5433900000000 1.0
C      1  0.4504600000000  0.5586310000000  0.5156520000000 1.0
C      1  0.4701260000000  0.5573470000000  0.4628790000000 1.0
C      1  0.4069410000000  0.5276490000000  0.5070130000000 1.0
C      1  0.4612880000000  0.5298740000000  0.4174850000000 1.0
C      1  0.5584340000000  0.5348840000000  0.4386320000000 1.0
C      1  0.5868820000000  0.5208950000000  0.5458870000000 1.0
C      1  0.4869410000000  0.5230390000000  0.5832230000000 1.0
C      1  0.4878010000000  0.4947570000000  0.5506030000000 1.0
C      1  0.4317160000000  0.4903330000000  0.5036100000000 1.0
C      1  0.4769270000000  0.4934650000000  0.4404700000000 1.0
C      1  0.5464980000000  0.4985440000000  0.4640780000000 1.0
C      1  0.5475440000000  0.4900410000000  0.5300790000000 1.0
C      1  0.4395650000000  0.5138630000000  0.4375900000000 1.0
C      1  0.5374620000000  0.5197650000000  0.4260770000000 1.0
C      1  0.5866370000000  0.5136130000000  0.5127070000000 1.0
C      1  0.5170000000000  0.5128170000000  0.5710580000000 1.0
C      1  0.4194690000000  0.5167060000000  0.5366680000000 1.0
C      1  0.5182780000000  0.5118620000000  0.4601310000000 1.0
C      1  0.5471650000000  0.5186170000000  0.5131040000000 1.0
C      1  0.5051120000000  0.5150620000000  0.5295220000000 1.0
C      1  0.4521240000000  0.5016260000000  0.5194430000000 1.0
C      1  0.4651340000000  0.5056120000000  0.4672030000000 1.0
C      1  0.5137260000000  0.5453370000000  0.4922370000000 1.0
C      1  0.5096360000000  0.5159770000000  0.4995340000000 1.0
END
