TITL C-2622964-2985-475 -0.000958408271948418 125000 -1033.48565404051 0 0 182 (C1) n - 1
REM
REM in /nfs/bkarasulu/CARBON/AIRSS/Generating-Clusters/AIREBO/with-SteepDescent/Higher-Symm/SD-CG/HFTN-CG
REM
REM
REM
REM
REM
REM ./C.cell (b20cbc046b6831c77cfcea5457e17084)
REM
REM compiler GCC version 9.2.1 20190827 (Red Hat 9.2.1-1)
REM options -cpp -mtune=generic -march=x86-64 -g -O0 -fpre-include=/usr/include/finclude/math-vector-fortran.h
REM seed -752158119 951902663 -710586835 1576108121 -1106663465 216521772 -1430936586 574161368 -294257048 -419528182 -494853283 -1084189461 -1040930537 900344413 -1218288525 -1088772867 1764179157 -535674139 -1084661501 321544683 1891362990 -406718708 1165485785 967248673 -1698300290 369042453 387526187 891710433 -285578737 2060457846 -739454002 -392491007 31406640
REM
CELL 1.54180   50.00000   50.00000   50.00000   90.00000   90.00000   90.00000
LATT -1
SFAC C  
C      1  0.5709620000000  0.4823650000000  0.5224480000000 1.0
C      1  0.5180540000000  0.4781950000000  0.5599590000000 1.0
C      1  0.4564230000000  0.4772900000000  0.5632150000000 1.0
C      1  0.4218320000000  0.4851870000000  0.5076480000000 1.0
C      1  0.4559760000000  0.4777750000000  0.4519360000000 1.0
C      1  0.5165770000000  0.4782860000000  0.4333870000000 1.0
C      1  0.5635210000000  0.4844170000000  0.4605660000000 1.0
C      1  0.5534190000000  0.4325770000000  0.5279860000000 1.0
C      1  0.5141690000000  0.4348820000000  0.5622030000000 1.0
C      1  0.4566210000000  0.4260060000000  0.5402580000000 1.0
C      1  0.4343320000000  0.4361920000000  0.4942870000000 1.0
C      1  0.4753030000000  0.4287270000000  0.4527180000000 1.0
C      1  0.5133160000000  0.4355070000000  0.4424990000000 1.0
C      1  0.5551000000000  0.4367850000000  0.4732450000000 1.0
C      1  0.4745040000000  0.5088010000000  0.6119010000000 1.0
C      1  0.3966430000000  0.5037060000000  0.5493400000000 1.0
C      1  0.3993460000000  0.5115040000000  0.4531640000000 1.0
C      1  0.4808210000000  0.5022480000000  0.3990020000000 1.0
C      1  0.5745990000000  0.5047770000000  0.4061440000000 1.0
C      1  0.6077740000000  0.5083780000000  0.4969040000000 1.0
C      1  0.5611520000000  0.5092800000000  0.5916330000000 1.0
C      1  0.4333160000000  0.5231380000000  0.5113930000000 1.0
C      1  0.4553200000000  0.5176350000000  0.4491810000000 1.0
C      1  0.5086550000000  0.5263400000000  0.4303360000000 1.0
C      1  0.5611380000000  0.5340990000000  0.4555980000000 1.0
C      1  0.5625570000000  0.5328840000000  0.5217840000000 1.0
C      1  0.5196700000000  0.5212380000000  0.5639940000000 1.0
C      1  0.4636280000000  0.5291020000000  0.5640110000000 1.0
C      1  0.4666740000000  0.4780140000000  0.5216540000000 1.0
C      1  0.4669240000000  0.4873830000000  0.4935060000000 1.0
C      1  0.4900730000000  0.4946430000000  0.4777560000000 1.0
C      1  0.5157860000000  0.4809760000000  0.4750690000000 1.0
C      1  0.5375140000000  0.4955870000000  0.4934720000000 1.0
C      1  0.5261760000000  0.4851210000000  0.5189070000000 1.0
C      1  0.4958900000000  0.4881290000000  0.5282040000000 1.0
C      1  0.5426220000000  0.5193910000000  0.5428260000000 1.0
C      1  0.4897520000000  0.5153060000000  0.5570770000000 1.0
C      1  0.4410090000000  0.5219040000000  0.5442670000000 1.0
C      1  0.4428640000000  0.5238360000000  0.4794010000000 1.0
C      1  0.4844480000000  0.5125740000000  0.4425110000000 1.0
C      1  0.5330380000000  0.5214850000000  0.4490160000000 1.0
C      1  0.5671110000000  0.5273300000000  0.4885400000000 1.0
C      1  0.4245830000000  0.4348170000000  0.5329920000000 1.0
C      1  0.4262290000000  0.4332570000000  0.4631150000000 1.0
C      1  0.4787900000000  0.4367930000000  0.4226170000000 1.0
C      1  0.5432470000000  0.4338780000000  0.4305840000000 1.0
C      1  0.5760390000000  0.4300580000000  0.4953230000000 1.0
C      1  0.5525760000000  0.4248530000000  0.5592050000000 1.0
C      1  0.4895330000000  0.4296030000000  0.5786240000000 1.0
C      1  0.5659570000000  0.4853250000000  0.5696280000000 1.0
C      1  0.4862090000000  0.4837730000000  0.5999040000000 1.0
C      1  0.4135360000000  0.4771530000000  0.5563300000000 1.0
C      1  0.4096100000000  0.4841890000000  0.4618470000000 1.0
C      1  0.4751950000000  0.4721100000000  0.4044120000000 1.0
C      1  0.5617590000000  0.4797710000000  0.4088480000000 1.0
C      1  0.6021160000000  0.4785680000000  0.4911670000000 1.0
C      1  0.5354210000000  0.4924190000000  0.4536620000000 1.0
C      1  0.5713500000000  0.4930750000000  0.4912100000000 1.0
C      1  0.5462180000000  0.4882990000000  0.5438050000000 1.0
C      1  0.4856440000000  0.4860130000000  0.5667650000000 1.0
C      1  0.4386000000000  0.4895490000000  0.5369810000000 1.0
C      1  0.4386580000000  0.4900980000000  0.4785060000000 1.0
C      1  0.4846940000000  0.4822940000000  0.4342780000000 1.0
C      1  0.4762850000000  0.4541060000000  0.5889980000000 1.0
C      1  0.3943920000000  0.4354180000000  0.5725880000000 1.0
C      1  0.4018230000000  0.4512390000000  0.4602770000000 1.0
C      1  0.4753660000000  0.4415340000000  0.3891210000000 1.0
C      1  0.5682070000000  0.4559030000000  0.4236530000000 1.0
C      1  0.6286360000000  0.4595250000000  0.4813060000000 1.0
C      1  0.5699090000000  0.4526260000000  0.5694590000000 1.0
C      1  0.4725970000000  0.4114310000000  0.5664990000000 1.0
C      1  0.4332320000000  0.4099010000000  0.5121690000000 1.0
C      1  0.4387950000000  0.4032160000000  0.4723240000000 1.0
C      1  0.5058080000000  0.4065030000000  0.4409120000000 1.0
C      1  0.5420080000000  0.4122070000000  0.4569200000000 1.0
C      1  0.5567230000000  0.4064840000000  0.5082870000000 1.0
C      1  0.5258500000000  0.4084000000000  0.5468120000000 1.0
C      1  0.5246600000000  0.5436440000000  0.3986020000000 1.0
C      1  0.5924940000000  0.5509220000000  0.4374480000000 1.0
C      1  0.5968880000000  0.5514970000000  0.5281710000000 1.0
C      1  0.5236260000000  0.5462210000000  0.5943670000000 1.0
C      1  0.4386850000000  0.5482660000000  0.5884700000000 1.0
C      1  0.4043720000000  0.5502360000000  0.5149400000000 1.0
C      1  0.4327400000000  0.5479450000000  0.4303230000000 1.0
C      1  0.4798620000000  0.6036410000000  0.4685050000000 1.0
C      1  0.5094770000000  0.5973540000000  0.4631890000000 1.0
C      1  0.5278820000000  0.5916060000000  0.4912660000000 1.0
C      1  0.5307020000000  0.6069960000000  0.5193520000000 1.0
C      1  0.5096280000000  0.6008840000000  0.5370350000000 1.0
C      1  0.4801670000000  0.5954970000000  0.5283400000000 1.0
C      1  0.4701650000000  0.5905090000000  0.4959990000000 1.0
C      1  0.5154940000000  0.5892050000000  0.4306220000000 1.0
C      1  0.5488730000000  0.5915640000000  0.4666910000000 1.0
C      1  0.5566920000000  0.5988090000000  0.5281580000000 1.0
C      1  0.5178490000000  0.5917550000000  0.5617310000000 1.0
C      1  0.4603960000000  0.5919310000000  0.5559160000000 1.0
C      1  0.4406600000000  0.5926480000000  0.5090100000000 1.0
C      1  0.4586880000000  0.5977400000000  0.4502410000000 1.0
C      1  0.6025580000000  0.5489770000000  0.4647070000000 1.0
C      1  0.5849530000000  0.5452640000000  0.5590340000000 1.0
C      1  0.5006520000000  0.5506440000000  0.6090340000000 1.0
C      1  0.4157240000000  0.5410030000000  0.5731180000000 1.0
C      1  0.4004900000000  0.5464820000000  0.4849140000000 1.0
C      1  0.4533540000000  0.5434140000000  0.4112880000000 1.0
C      1  0.5527590000000  0.5463870000000  0.4001040000000 1.0
C      1  0.4183490000000  0.5235820000000  0.4359950000000 1.0
C      1  0.5126100000000  0.5115180000000  0.4006510000000 1.0
C      1  0.5801360000000  0.5206220000000  0.4307890000000 1.0
C      1  0.5933640000000  0.5185320000000  0.5206210000000 1.0
C      1  0.5317780000000  0.5153260000000  0.5934820000000 1.0
C      1  0.4530320000000  0.5187770000000  0.5942900000000 1.0
C      1  0.4024420000000  0.5172990000000  0.5234190000000 1.0
C      1  0.5837290000000  0.5150720000000  0.5676140000000 1.0
C      1  0.4896310000000  0.5284350000000  0.6231900000000 1.0
C      1  0.4102610000000  0.5130500000000  0.5735530000000 1.0
C      1  0.3888630000000  0.5220820000000  0.4773430000000 1.0
C      1  0.4587590000000  0.5161520000000  0.4093910000000 1.0
C      1  0.5671990000000  0.5250460000000  0.3873760000000 1.0
C      1  0.6037020000000  0.5195690000000  0.4719420000000 1.0
C      1  0.5282870000000  0.4453890000000  0.5151900000000 1.0
C      1  0.5056830000000  0.4562300000000  0.5371320000000 1.0
C      1  0.4754170000000  0.4467440000000  0.5248740000000 1.0
C      1  0.4620800000000  0.4478140000000  0.4961770000000 1.0
C      1  0.4742000000000  0.4557020000000  0.4703160000000 1.0
C      1  0.5067210000000  0.4516400000000  0.4671450000000 1.0
C      1  0.5284620000000  0.4456990000000  0.4888250000000 1.0
C      1  0.4096570000000  0.4488300000000  0.5557490000000 1.0
C      1  0.3921320000000  0.4686430000000  0.4869860000000 1.0
C      1  0.4499530000000  0.4501710000000  0.4105540000000 1.0
C      1  0.5368630000000  0.4488580000000  0.4006670000000 1.0
C      1  0.6016040000000  0.4455230000000  0.4895950000000 1.0
C      1  0.5927510000000  0.4635310000000  0.5496230000000 1.0
C      1  0.5313070000000  0.4634970000000  0.6018650000000 1.0
C      1  0.5162750000000  0.3925400000000  0.5263880000000 1.0
C      1  0.4891950000000  0.3854320000000  0.5267830000000 1.0
C      1  0.4623980000000  0.3991610000000  0.5192680000000 1.0
C      1  0.4624150000000  0.3960200000000  0.4856570000000 1.0
C      1  0.4887710000000  0.4023450000000  0.4694310000000 1.0
C      1  0.5219170000000  0.3986980000000  0.4762370000000 1.0
C      1  0.5320400000000  0.3939970000000  0.5025560000000 1.0
C      1  0.5353540000000  0.5680060000000  0.5145810000000 1.0
C      1  0.5181410000000  0.5578580000000  0.5408130000000 1.0
C      1  0.4894370000000  0.5619750000000  0.5478120000000 1.0
C      1  0.4641930000000  0.5655290000000  0.5265320000000 1.0
C      1  0.4680090000000  0.5658800000000  0.4724880000000 1.0
C      1  0.4888080000000  0.5657660000000  0.4506110000000 1.0
C      1  0.5195930000000  0.5649190000000  0.4618230000000 1.0
C      1  0.4125730000000  0.4542110000000  0.5084770000000 1.0
C      1  0.4460300000000  0.4464760000000  0.4431010000000 1.0
C      1  0.5074710000000  0.4513070000000  0.4153570000000 1.0
C      1  0.5669420000000  0.4565360000000  0.4533730000000 1.0
C      1  0.5792540000000  0.4506470000000  0.5222220000000 1.0
C      1  0.5397640000000  0.4463180000000  0.5814730000000 1.0
C      1  0.4533740000000  0.4464770000000  0.5672270000000 1.0
C      1  0.4765900000000  0.5408510000000  0.5134230000000 1.0
C      1  0.4702270000000  0.5390050000000  0.4852090000000 1.0
C      1  0.4910220000000  0.5241390000000  0.4710900000000 1.0
C      1  0.5178500000000  0.5362170000000  0.4718390000000 1.0
C      1  0.5336770000000  0.5269820000000  0.4947510000000 1.0
C      1  0.5226320000000  0.5316140000000  0.5219570000000 1.0
C      1  0.4947800000000  0.5208240000000  0.5261850000000 1.0
C      1  0.5655370000000  0.5570760000000  0.4232770000000 1.0
C      1  0.5915970000000  0.5501620000000  0.4944910000000 1.0
C      1  0.5656790000000  0.5625980000000  0.5692720000000 1.0
C      1  0.4824460000000  0.5693360000000  0.5985100000000 1.0
C      1  0.4195700000000  0.5469230000000  0.5439000000000 1.0
C      1  0.4248710000000  0.5494650000000  0.4712970000000 1.0
C      1  0.4750200000000  0.5604240000000  0.4044350000000 1.0
C      1  0.5873720000000  0.5040540000000  0.4552850000000 1.0
C      1  0.5939100000000  0.4962420000000  0.5434330000000 1.0
C      1  0.5167980000000  0.4869560000000  0.5917120000000 1.0
C      1  0.4352130000000  0.4963680000000  0.5794800000000 1.0
C      1  0.3925490000000  0.5002190000000  0.4988130000000 1.0
C      1  0.4391190000000  0.4973790000000  0.4298070000000 1.0
C      1  0.5298340000000  0.4823490000000  0.4038140000000 1.0
C      1  0.4321550000000  0.5684320000000  0.5241510000000 1.0
C      1  0.4411270000000  0.5690290000000  0.4528690000000 1.0
C      1  0.5039470000000  0.5586990000000  0.4209910000000 1.0
C      1  0.5488330000000  0.5648590000000  0.4490700000000 1.0
C      1  0.5667580000000  0.5666050000000  0.5236300000000 1.0
C      1  0.5340400000000  0.5631410000000  0.5704030000000 1.0
C      1  0.4652260000000  0.5621930000000  0.5716910000000 1.0
END
