TITL C-2622968-4806-839 -0.00268048679250141 125000 -437.721022549628 0 0 77 (C1) n - 1
REM
REM in /nfs/bkarasulu/CARBON/AIRSS/Generating-Clusters/AIREBO/with-SteepDescent/Higher-Symm/SD-CG/HFTN-CG
REM
REM
REM
REM
REM
REM ./C.cell (b20cbc046b6831c77cfcea5457e17084)
REM
REM compiler GCC version 9.2.1 20190827 (Red Hat 9.2.1-1)
REM options -cpp -mtune=generic -march=x86-64 -g -O0 -fpre-include=/usr/include/finclude/math-vector-fortran.h
REM seed -1672487661 -1739974189 -98483801 1125984143 97068053 -1944215143 -655465560 821569170 -1514875766 -557742968 -2032839222 410502333 1341009070 1436374519 -849093712 -1197603350 1981583458 39121040 -551116845 8977978 -734554633 269395571 -867819874 -738430788 -1520439177 99365079 1491094761 219417427 217646598 -1723969163 994485073 -755563286 -1418255083
REM
CELL 1.54180   50.00000   50.00000   50.00000   90.00000   90.00000   90.00000
LATT -1
SFAC C  
C      1  0.5223560000000  0.4855030000000  0.5758560000000 1.0
C      1  0.4733550000000  0.4748110000000  0.4407380000000 1.0
C      1  0.5351390000000  0.5272180000000  0.5587690000000 1.0
C      1  0.4685080000000  0.5390480000000  0.4289670000000 1.0
C      1  0.4791420000000  0.4642570000000  0.5619700000000 1.0
C      1  0.5321830000000  0.4652400000000  0.4238000000000 1.0
C      1  0.4872270000000  0.5241310000000  0.5644000000000 1.0
C      1  0.5113460000000  0.5117260000000  0.4345710000000 1.0
C      1  0.5479610000000  0.4895200000000  0.5594970000000 1.0
C      1  0.4564330000000  0.4909550000000  0.4273980000000 1.0
C      1  0.5623340000000  0.5157420000000  0.5676680000000 1.0
C      1  0.4546810000000  0.5165670000000  0.4387130000000 1.0
C      1  0.4610360000000  0.4827310000000  0.5790820000000 1.0
C      1  0.5546920000000  0.4835580000000  0.4363630000000 1.0
C      1  0.4588950000000  0.5084340000000  0.5687720000000 1.0
C      1  0.5416340000000  0.5091620000000  0.4474350000000 1.0
C      1  0.4853740000000  0.4387450000000  0.4874300000000 1.0
C      1  0.5111050000000  0.4219420000000  0.5121870000000 1.0
C      1  0.4864970000000  0.5663190000000  0.4903940000000 1.0
C      1  0.5147890000000  0.5801120000000  0.5143220000000 1.0
C      1  0.5144710000000  0.4243170000000  0.4807070000000 1.0
C      1  0.4794630000000  0.4286000000000  0.5187990000000 1.0
C      1  0.5174490000000  0.5735300000000  0.4838050000000 1.0
C      1  0.4835010000000  0.5790510000000  0.5207400000000 1.0
C      1  0.5401150000000  0.4433050000000  0.4735710000000 1.0
C      1  0.4540590000000  0.4513570000000  0.5155010000000 1.0
C      1  0.5417010000000  0.5538380000000  0.4761650000000 1.0
C      1  0.4483180000000  0.5434540000000  0.5285990000000 1.0
C      1  0.4612490000000  0.4379260000000  0.4696960000000 1.0
C      1  0.5305500000000  0.4416630000000  0.5247240000000 1.0
C      1  0.4594000000000  0.5520020000000  0.4810830000000 1.0
C      1  0.5382780000000  0.5630150000000  0.5269520000000 1.0
C      1  0.4570290000000  0.5151000000000  0.4664920000000 1.0
C      1  0.5460300000000  0.5101890000000  0.5060390000000 1.0
C      1  0.4561220000000  0.4914410000000  0.4895220000000 1.0
C      1  0.5396510000000  0.4895480000000  0.5322980000000 1.0
C      1  0.5407280000000  0.5220010000000  0.4778370000000 1.0
C      1  0.4449460000000  0.5111290000000  0.5386100000000 1.0
C      1  0.5416820000000  0.4720250000000  0.4617810000000 1.0
C      1  0.4562120000000  0.4843570000000  0.5204160000000 1.0
C      1  0.4684350000000  0.4354620000000  0.4434380000000 1.0
C      1  0.5240250000000  0.4432350000000  0.5565430000000 1.0
C      1  0.4738060000000  0.5592450000000  0.4525180000000 1.0
C      1  0.5149840000000  0.5624700000000  0.5517400000000 1.0
C      1  0.5253300000000  0.4411650000000  0.4428910000000 1.0
C      1  0.4656300000000  0.4415830000000  0.5459440000000 1.0
C      1  0.5267280000000  0.5603400000000  0.4472070000000 1.0
C      1  0.4691450000000  0.5623790000000  0.5393930000000 1.0
C      1  0.4815860000000  0.4837740000000  0.4683030000000 1.0
C      1  0.5138940000000  0.4705840000000  0.5291910000000 1.0
C      1  0.4837660000000  0.5284610000000  0.4781980000000 1.0
C      1  0.5330260000000  0.5316210000000  0.5287500000000 1.0
C      1  0.5154660000000  0.4866100000000  0.4678630000000 1.0
C      1  0.4862120000000  0.4826200000000  0.5363250000000 1.0
C      1  0.5087500000000  0.5180870000000  0.4678750000000 1.0
C      1  0.4771700000000  0.5153770000000  0.5341060000000 1.0
C      1  0.5592100000000  0.5490610000000  0.5040660000000 1.0
C      1  0.4388970000000  0.5458360000000  0.5016420000000 1.0
C      1  0.5538690000000  0.4468940000000  0.5029780000000 1.0
C      1  0.4413150000000  0.4489960000000  0.4872930000000 1.0
C      1  0.4835850000000  0.5390430000000  0.5105100000000 1.0
C      1  0.5255110000000  0.4745990000000  0.4980650000000 1.0
C      1  0.5085310000000  0.5220940000000  0.5106600000000 1.0
C      1  0.4929770000000  0.4670080000000  0.4940300000000 1.0
C      1  0.4196870000000  0.5265120000000  0.4928900000000 1.0
C      1  0.5801660000000  0.5303400000000  0.5058870000000 1.0
C      1  0.4232610000000  0.4701280000000  0.4815300000000 1.0
C      1  0.5720710000000  0.4680570000000  0.5054880000000 1.0
C      1  0.5090740000000  0.4616510000000  0.5699830000000 1.0
C      1  0.5008170000000  0.5438390000000  0.4384230000000 1.0
C      1  0.4952680000000  0.4527580000000  0.4319930000000 1.0
C      1  0.4893640000000  0.5535200000000  0.5574990000000 1.0
C      1  0.5071440000000  0.4830240000000  0.4217350000000 1.0
C      1  0.5139380000000  0.5134060000000  0.5713360000000 1.0
C      1  0.4248170000000  0.5002200000000  0.4847930000000 1.0
C      1  0.5752520000000  0.4967110000000  0.5071180000000 1.0
C      1  0.5022040000000  0.4984970000000  0.5033930000000 1.0
END
