TITL C-2622955-8511-79 -0.000567069887837731 125000 -958.089838666161 0 0 185 (C1) n - 1
REM
REM in /nfs/bkarasulu/CARBON/AIRSS/Generating-Clusters/AIREBO/with-SteepDescent/Higher-Symm/SD-CG/HFTN-CG
REM
REM
REM
REM
REM
REM ./C.cell (b20cbc046b6831c77cfcea5457e17084)
REM
REM compiler GCC version 9.2.1 20190827 (Red Hat 9.2.1-1)
REM options -cpp -mtune=generic -march=x86-64 -g -O0 -fpre-include=/usr/include/finclude/math-vector-fortran.h
REM seed -1986523080 -1548919718 -55088118 562829940 -411543596 -1485337923 -1331449125 -989477577 -1871911023 -1459576365 1131614106 1459306897 1334618917 1233540108 -781781648 1302191640 899193668 574987700 1182203507 -73395891 -1491168380 180388855 1196520666 1692758545 -925642831 -856334037 -1921576727 -53255987 960170498 2056439990 -910620095 -1587263446 -1944138462
REM
CELL 1.54180   50.00000   50.00000   50.00000   90.00000   90.00000   90.00000
LATT -1
SFAC C  
C      1  0.4803610000000  0.5487980000000  0.4517110000000 1.0
C      1  0.5251340000000  0.4644490000000  0.5433440000000 1.0
C      1  0.4429810000000  0.4771520000000  0.5837700000000 1.0
C      1  0.5685650000000  0.5179270000000  0.4173530000000 1.0
C      1  0.4033830000000  0.4372970000000  0.4841840000000 1.0
C      1  0.5981640000000  0.5637650000000  0.4997390000000 1.0
C      1  0.4900190000000  0.6226990000000  0.4730200000000 1.0
C      1  0.5032500000000  0.3851870000000  0.5271850000000 1.0
C      1  0.5891010000000  0.5007750000000  0.4366970000000 1.0
C      1  0.4252380000000  0.4996350000000  0.5658130000000 1.0
C      1  0.5704900000000  0.5235060000000  0.5789990000000 1.0
C      1  0.4277220000000  0.4886620000000  0.4248020000000 1.0
C      1  0.4760010000000  0.5107880000000  0.5260740000000 1.0
C      1  0.5188080000000  0.4917810000000  0.4772460000000 1.0
C      1  0.5757290000000  0.5442020000000  0.4161220000000 1.0
C      1  0.4329980000000  0.4522260000000  0.5844080000000 1.0
C      1  0.4613540000000  0.4901660000000  0.4256140000000 1.0
C      1  0.5370470000000  0.5203950000000  0.5743210000000 1.0
C      1  0.5060710000000  0.4905030000000  0.6175780000000 1.0
C      1  0.4985010000000  0.5145490000000  0.3869610000000 1.0
C      1  0.4396180000000  0.6123340000000  0.4789900000000 1.0
C      1  0.6019630000000  0.3881540000000  0.5026090000000 1.0
C      1  0.4440110000000  0.5476430000000  0.5254610000000 1.0
C      1  0.5614830000000  0.4517120000000  0.4815550000000 1.0
C      1  0.4861940000000  0.4189570000000  0.4430660000000 1.0
C      1  0.5123410000000  0.5887040000000  0.5559120000000 1.0
C      1  0.4679840000000  0.6015850000000  0.4697470000000 1.0
C      1  0.5141820000000  0.4148680000000  0.5199730000000 1.0
C      1  0.4202550000000  0.4700210000000  0.5497060000000 1.0
C      1  0.5711840000000  0.5221940000000  0.4567340000000 1.0
C      1  0.6088240000000  0.4692830000000  0.5018180000000 1.0
C      1  0.3928820000000  0.5284860000000  0.5089880000000 1.0
C      1  0.4278600000000  0.5991830000000  0.4970250000000 1.0
C      1  0.5848150000000  0.4070520000000  0.5027180000000 1.0
C      1  0.4431880000000  0.3922390000000  0.4862720000000 1.0
C      1  0.5539960000000  0.6007860000000  0.5065890000000 1.0
C      1  0.4167250000000  0.5277400000000  0.5294120000000 1.0
C      1  0.5880470000000  0.4728950000000  0.4801870000000 1.0
C      1  0.5317570000000  0.5645450000000  0.5520790000000 1.0
C      1  0.4645660000000  0.4423360000000  0.4474280000000 1.0
C      1  0.3682850000000  0.5128480000000  0.5119380000000 1.0
C      1  0.6343720000000  0.4837280000000  0.5012370000000 1.0
C      1  0.4131480000000  0.4897990000000  0.4489430000000 1.0
C      1  0.5834620000000  0.5146480000000  0.5561030000000 1.0
C      1  0.4680550000000  0.5499500000000  0.5477940000000 1.0
C      1  0.5331390000000  0.4537580000000  0.4628880000000 1.0
C      1  0.5323470000000  0.4884480000000  0.5744710000000 1.0
C      1  0.4743180000000  0.5208570000000  0.4332630000000 1.0
C      1  0.4490400000000  0.4137580000000  0.5280500000000 1.0
C      1  0.5536340000000  0.5841810000000  0.4704960000000 1.0
C      1  0.4446840000000  0.5354590000000  0.4251580000000 1.0
C      1  0.5634370000000  0.4451830000000  0.5701590000000 1.0
C      1  0.4909090000000  0.4405980000000  0.5696170000000 1.0
C      1  0.5033550000000  0.5561950000000  0.4277760000000 1.0
C      1  0.4649620000000  0.4540530000000  0.5522150000000 1.0
C      1  0.5291080000000  0.5494460000000  0.4489720000000 1.0
C      1  0.4301670000000  0.4498340000000  0.5009700000000 1.0
C      1  0.5682380000000  0.5476270000000  0.4990750000000 1.0
C      1  0.4046030000000  0.5258820000000  0.5593740000000 1.0
C      1  0.5965240000000  0.4731720000000  0.4497390000000 1.0
C      1  0.5231470000000  0.5382860000000  0.4075580000000 1.0
C      1  0.4889560000000  0.4647270000000  0.5922830000000 1.0
C      1  0.6050650000000  0.5200670000000  0.4587060000000 1.0
C      1  0.3895940000000  0.4678200000000  0.5438410000000 1.0
C      1  0.4359660000000  0.5200970000000  0.4816910000000 1.0
C      1  0.5617530000000  0.4804310000000  0.5237790000000 1.0
C      1  0.5729770000000  0.4494310000000  0.5275530000000 1.0
C      1  0.4237990000000  0.5502380000000  0.4812630000000 1.0
C      1  0.5430570000000  0.4765970000000  0.4956380000000 1.0
C      1  0.4613060000000  0.5299460000000  0.5021190000000 1.0
C      1  0.5441810000000  0.4296690000000  0.5826650000000 1.0
C      1  0.4496690000000  0.5572110000000  0.4092850000000 1.0
C      1  0.5135180000000  0.6154700000000  0.4821560000000 1.0
C      1  0.4801490000000  0.3784310000000  0.5146150000000 1.0
C      1  0.5631250000000  0.4286930000000  0.5054820000000 1.0
C      1  0.4373660000000  0.5692490000000  0.5009690000000 1.0
C      1  0.4685820000000  0.4617990000000  0.4083000000000 1.0
C      1  0.5306450000000  0.5502190000000  0.5893730000000 1.0
C      1  0.4711290000000  0.5828430000000  0.5557960000000 1.0
C      1  0.5261380000000  0.4192700000000  0.4439660000000 1.0
C      1  0.5140600000000  0.4328560000000  0.5459350000000 1.0
C      1  0.4744880000000  0.5821140000000  0.4478470000000 1.0
C      1  0.4916030000000  0.5734870000000  0.4855580000000 1.0
C      1  0.4865820000000  0.4196790000000  0.5031400000000 1.0
C      1  0.4470840000000  0.5156120000000  0.4529470000000 1.0
C      1  0.5530850000000  0.4703620000000  0.5551260000000 1.0
C      1  0.5506870000000  0.4784370000000  0.4539380000000 1.0
C      1  0.4452250000000  0.5106630000000  0.5406040000000 1.0
C      1  0.4759600000000  0.4723140000000  0.4505980000000 1.0
C      1  0.5212850000000  0.5354440000000  0.5482210000000 1.0
C      1  0.4903780000000  0.5073530000000  0.6026010000000 1.0
C      1  0.5140920000000  0.4963660000000  0.4010330000000 1.0
C      1  0.5356830000000  0.5111200000000  0.4227870000000 1.0
C      1  0.4735540000000  0.4896720000000  0.5788990000000 1.0
C      1  0.4514950000000  0.3895470000000  0.5153160000000 1.0
C      1  0.5422770000000  0.6139080000000  0.4802010000000 1.0
C      1  0.4295780000000  0.4159640000000  0.4803220000000 1.0
C      1  0.5777010000000  0.5860040000000  0.4939870000000 1.0
C      1  0.5209430000000  0.5924970000000  0.5061300000000 1.0
C      1  0.4772230000000  0.3947890000000  0.4854350000000 1.0
C      1  0.4130320000000  0.4440800000000  0.4539650000000 1.0
C      1  0.5951110000000  0.5532460000000  0.5317760000000 1.0
C      1  0.5986990000000  0.4663370000000  0.5286660000000 1.0
C      1  0.3986520000000  0.5339620000000  0.4816120000000 1.0
C      1  0.5832900000000  0.5008230000000  0.5156200000000 1.0
C      1  0.4162990000000  0.4971740000000  0.4906290000000 1.0
C      1  0.4967580000000  0.4662430000000  0.4751280000000 1.0
C      1  0.4974710000000  0.5370940000000  0.5240080000000 1.0
C      1  0.5643290000000  0.4972290000000  0.4787860000000 1.0
C      1  0.4359030000000  0.4833580000000  0.5226170000000 1.0
C      1  0.4871760000000  0.5934190000000  0.4263170000000 1.0
C      1  0.5069100000000  0.4046300000000  0.5639980000000 1.0
C      1  0.3822940000000  0.4965050000000  0.4874850000000 1.0
C      1  0.6170980000000  0.5036510000000  0.5201870000000 1.0
C      1  0.4456620000000  0.4414930000000  0.4231110000000 1.0
C      1  0.5576310000000  0.5621610000000  0.5724400000000 1.0
C      1  0.4913160000000  0.4610730000000  0.5231210000000 1.0
C      1  0.5197640000000  0.5323990000000  0.4838330000000 1.0
C      1  0.4972250000000  0.4978470000000  0.4433630000000 1.0
C      1  0.5065550000000  0.4998830000000  0.5587650000000 1.0
C      1  0.4976590000000  0.3986530000000  0.4637030000000 1.0
C      1  0.5042800000000  0.6031560000000  0.5295070000000 1.0
C      1  0.5221930000000  0.4583330000000  0.5117670000000 1.0
C      1  0.4870130000000  0.5414960000000  0.4829040000000 1.0
C      1  0.4748580000000  0.4506990000000  0.4952360000000 1.0
C      1  0.5153610000000  0.5589510000000  0.5050690000000 1.0
C      1  0.4506490000000  0.4089880000000  0.5730270000000 1.0
C      1  0.5404620000000  0.5750620000000  0.4268220000000 1.0
C      1  0.5700380000000  0.5654800000000  0.5437200000000 1.0
C      1  0.4204550000000  0.4362730000000  0.4299110000000 1.0
C      1  0.4869430000000  0.4335490000000  0.4129180000000 1.0
C      1  0.5133200000000  0.5788040000000  0.5870610000000 1.0
C      1  0.4379040000000  0.4735960000000  0.3986620000000 1.0
C      1  0.5568310000000  0.5348700000000  0.6053150000000 1.0
C      1  0.5211510000000  0.5753550000000  0.4695020000000 1.0
C      1  0.4749580000000  0.4321960000000  0.5305130000000 1.0
C      1  0.4840150000000  0.5314890000000  0.4030110000000 1.0
C      1  0.5216390000000  0.4711670000000  0.5977860000000 1.0
C      1  0.4792420000000  0.5611170000000  0.4042930000000 1.0
C      1  0.5198490000000  0.4405440000000  0.5877550000000 1.0
C      1  0.4362190000000  0.5220720000000  0.5895430000000 1.0
C      1  0.5587430000000  0.4693590000000  0.4040330000000 1.0
C      1  0.5000340000000  0.4744410000000  0.4111430000000 1.0
C      1  0.5020200000000  0.5323270000000  0.5935180000000 1.0
C      1  0.4910560000000  0.5298920000000  0.5628190000000 1.0
C      1  0.5140250000000  0.4685570000000  0.4391860000000 1.0
C      1  0.5146240000000  0.4395940000000  0.4243450000000 1.0
C      1  0.4843040000000  0.5869250000000  0.5843250000000 1.0
C      1  0.4750110000000  0.5984970000000  0.5265220000000 1.0
C      1  0.5262200000000  0.4057240000000  0.4733730000000 1.0
C      1  0.4603490000000  0.5179150000000  0.5701880000000 1.0
C      1  0.5495980000000  0.4826290000000  0.4263960000000 1.0
C      1  0.5232990000000  0.5163050000000  0.4540720000000 1.0
C      1  0.4806740000000  0.4837200000000  0.5461500000000 1.0
C      1  0.5049570000000  0.4378550000000  0.4630120000000 1.0
C      1  0.4944480000000  0.5656740000000  0.5384330000000 1.0
C      1  0.6027600000000  0.4931810000000  0.5491890000000 1.0
C      1  0.3945260000000  0.5096240000000  0.4597880000000 1.0
C      1  0.5429950000000  0.5170200000000  0.4963810000000 1.0
C      1  0.4585100000000  0.4773990000000  0.5048720000000 1.0
C      1  0.4081470000000  0.5537690000000  0.5637780000000 1.0
C      1  0.5944940000000  0.4469910000000  0.4415310000000 1.0
C      1  0.4373650000000  0.4451230000000  0.5340750000000 1.0
C      1  0.5588630000000  0.5508730000000  0.4660600000000 1.0
C      1  0.5654920000000  0.5624860000000  0.4347860000000 1.0
C      1  0.4346780000000  0.4314260000000  0.5650970000000 1.0
C      1  0.6068570000000  0.5322660000000  0.5091600000000 1.0
C      1  0.3871760000000  0.4630650000000  0.4912440000000 1.0
C      1  0.4244570000000  0.4695630000000  0.4738450000000 1.0
C      1  0.5716340000000  0.5289900000000  0.5276180000000 1.0
C      1  0.4521050000000  0.4867630000000  0.4666230000000 1.0
C      1  0.5400880000000  0.5173790000000  0.5273340000000 1.0
C      1  0.4787480000000  0.4096730000000  0.5752920000000 1.0
C      1  0.5152230000000  0.5869300000000  0.4193460000000 1.0
C      1  0.5452540000000  0.5592400000000  0.5212830000000 1.0
C      1  0.4508570000000  0.4397380000000  0.4758560000000 1.0
C      1  0.5173760000000  0.4941860000000  0.5287470000000 1.0
C      1  0.4702330000000  0.5005050000000  0.4880560000000 1.0
C      1  0.5352370000000  0.4157650000000  0.4982150000000 1.0
C      1  0.4658480000000  0.5869230000000  0.4994450000000 1.0
C      1  0.5938990000000  0.5119530000000  0.4873640000000 1.0
C      1  0.4034080000000  0.4770690000000  0.5148310000000 1.0
C      1  0.4253480000000  0.5670120000000  0.5462780000000 1.0
C      1  0.5754300000000  0.4332060000000  0.4566630000000 1.0
C      1  0.4982970000000  0.4970190000000  0.5039110000000 1.0
END
