TITL C-2622965-4321-657 0.00443908851650084 125000 -454.780177115548 0 0 77 (C1) n - 1
REM
REM in /nfs/bkarasulu/CARBON/AIRSS/Generating-Clusters/AIREBO/with-SteepDescent/Higher-Symm/SD-CG/HFTN-CG
REM
REM
REM
REM
REM
REM ./C.cell (b20cbc046b6831c77cfcea5457e17084)
REM
REM compiler GCC version 9.2.1 20190827 (Red Hat 9.2.1-1)
REM options -cpp -mtune=generic -march=x86-64 -g -O0 -fpre-include=/usr/include/finclude/math-vector-fortran.h
REM seed 690914418 -640416668 406976170 -1259163621 1573943258 1558933020 -288152706 599429254 -749311502 -2121378922 1382751995 -2061813710 -24399810 269748881 376458384 1005908479 343128038 -641734735 -740154196 -1479543490 569931088 417633947 -715368148 -612849342 -1279660480 1321012002 -546130971 526821247 2038828156 -1322248994 441203990 -1795617873 -1683552159
REM
CELL 1.54180   50.00000   50.00000   50.00000   90.00000   90.00000   90.00000
LATT -1
SFAC C  
C      1  0.4529370000000  0.4687200000000  0.5601870000000 1.0
C      1  0.4583460000000  0.5331910000000  0.5648930000000 1.0
C      1  0.4610960000000  0.5670230000000  0.5098340000000 1.0
C      1  0.4449600000000  0.5550820000000  0.4653740000000 1.0
C      1  0.4460530000000  0.4987810000000  0.4377450000000 1.0
C      1  0.4484950000000  0.4532420000000  0.4490750000000 1.0
C      1  0.4584600000000  0.4267030000000  0.5095880000000 1.0
C      1  0.5674870000000  0.5326780000000  0.4890060000000 1.0
C      1  0.5634300000000  0.5103790000000  0.4641440000000 1.0
C      1  0.5708030000000  0.4772330000000  0.4660040000000 1.0
C      1  0.5672740000000  0.4629990000000  0.4966900000000 1.0
C      1  0.5633150000000  0.4724430000000  0.5291160000000 1.0
C      1  0.5640770000000  0.5046630000000  0.5393960000000 1.0
C      1  0.5673090000000  0.5337590000000  0.5231560000000 1.0
C      1  0.5262480000000  0.5516970000000  0.4438180000000 1.0
C      1  0.5253920000000  0.4846330000000  0.4218440000000 1.0
C      1  0.5259130000000  0.4348600000000  0.4577760000000 1.0
C      1  0.5233460000000  0.4279750000000  0.5256720000000 1.0
C      1  0.5204310000000  0.4772680000000  0.5728600000000 1.0
C      1  0.5253980000000  0.5442210000000  0.5668470000000 1.0
C      1  0.5232040000000  0.5678910000000  0.5070590000000 1.0
C      1  0.4793220000000  0.5343630000000  0.5833750000000 1.0
C      1  0.4783860000000  0.5826830000000  0.5262820000000 1.0
C      1  0.4779130000000  0.5626360000000  0.4613130000000 1.0
C      1  0.4685180000000  0.5039610000000  0.4273920000000 1.0
C      1  0.4796990000000  0.4506450000000  0.4460930000000 1.0
C      1  0.4800050000000  0.4092800000000  0.5068520000000 1.0
C      1  0.4747590000000  0.4596980000000  0.5721540000000 1.0
C      1  0.4378180000000  0.5442690000000  0.5197590000000 1.0
C      1  0.4305970000000  0.5340950000000  0.4880400000000 1.0
C      1  0.4352500000000  0.5051100000000  0.4694210000000 1.0
C      1  0.4325490000000  0.4714540000000  0.4735740000000 1.0
C      1  0.4340480000000  0.4490550000000  0.5010190000000 1.0
C      1  0.4338100000000  0.4613830000000  0.5327470000000 1.0
C      1  0.4320360000000  0.5227380000000  0.5460130000000 1.0
C      1  0.4917680000000  0.5297380000000  0.4985740000000 1.0
C      1  0.4834780000000  0.5205370000000  0.4702680000000 1.0
C      1  0.4973860000000  0.4998290000000  0.4547260000000 1.0
C      1  0.4832670000000  0.4712480000000  0.4902720000000 1.0
C      1  0.4789190000000  0.4707170000000  0.5174110000000 1.0
C      1  0.4704760000000  0.4944620000000  0.5280580000000 1.0
C      1  0.4800420000000  0.5188880000000  0.5229200000000 1.0
C      1  0.5080220000000  0.4154390000000  0.5049140000000 1.0
C      1  0.5028410000000  0.4553180000000  0.5686240000000 1.0
C      1  0.5071270000000  0.5277290000000  0.5813980000000 1.0
C      1  0.5061030000000  0.5767000000000  0.5312590000000 1.0
C      1  0.5069860000000  0.5688100000000  0.4573750000000 1.0
C      1  0.5022060000000  0.5069380000000  0.4237790000000 1.0
C      1  0.5067300000000  0.4418940000000  0.4367890000000 1.0
C      1  0.5334240000000  0.4775720000000  0.4798520000000 1.0
C      1  0.5300040000000  0.4739870000000  0.5057500000000 1.0
C      1  0.5288710000000  0.4922270000000  0.5251090000000 1.0
C      1  0.5303400000000  0.5188440000000  0.5233810000000 1.0
C      1  0.5202660000000  0.5363740000000  0.5020360000000 1.0
C      1  0.5304380000000  0.5287730000000  0.4756570000000 1.0
C      1  0.5244800000000  0.5022720000000  0.4650920000000 1.0
C      1  0.4638730000000  0.4494380000000  0.5271570000000 1.0
C      1  0.4409160000000  0.4936860000000  0.5406380000000 1.0
C      1  0.4667450000000  0.5384370000000  0.5366640000000 1.0
C      1  0.4760790000000  0.5545450000000  0.4899350000000 1.0
C      1  0.4587940000000  0.5275590000000  0.4619610000000 1.0
C      1  0.4885910000000  0.4731950000000  0.4620260000000 1.0
C      1  0.4593190000000  0.4535150000000  0.4803680000000 1.0
C      1  0.5148750000000  0.5009660000000  0.5868220000000 1.0
C      1  0.5165220000000  0.5690470000000  0.5563890000000 1.0
C      1  0.5174060000000  0.5831460000000  0.4800370000000 1.0
C      1  0.5163510000000  0.5354420000000  0.4240790000000 1.0
C      1  0.5179390000000  0.4588950000000  0.4166690000000 1.0
C      1  0.5191680000000  0.4170780000000  0.4787690000000 1.0
C      1  0.5136320000000  0.4343980000000  0.5518460000000 1.0
C      1  0.5444150000000  0.5308510000000  0.5485620000000 1.0
C      1  0.5533560000000  0.5584620000000  0.5060650000000 1.0
C      1  0.5556270000000  0.5436560000000  0.4590800000000 1.0
C      1  0.5467080000000  0.4894290000000  0.4441720000000 1.0
C      1  0.5450560000000  0.4550700000000  0.4642530000000 1.0
C      1  0.5433920000000  0.4474990000000  0.5152900000000 1.0
C      1  0.5393780000000  0.4805770000000  0.5518560000000 1.0
END
