TITL C-2622954-8726-823 0.00444082740732455 125000 -547.055555546473 0 0 96 (C1) n - 1
REM
REM in /nfs/bkarasulu/CARBON/AIRSS/Generating-Clusters/AIREBO/with-SteepDescent/Higher-Symm/SD-CG/HFTN-CG
REM
REM
REM
REM
REM
REM ./C.cell (b20cbc046b6831c77cfcea5457e17084)
REM
REM compiler GCC version 9.2.1 20190827 (Red Hat 9.2.1-1)
REM options -cpp -mtune=generic -march=x86-64 -g -O0 -fpre-include=/usr/include/finclude/math-vector-fortran.h
REM seed 384347693 -2081448172 149432671 127188646 -1888675022 -2103720219 -716663867 1527163487 -1005422484 1203908159 868567112 1297150147 -691075101 599562935 -1684342767 51264394 1492117266 954411279 1116780244 1876311299 707223801 -1082750091 -645081966 -1750809650 -1010499027 1005160078 1567607426 1954959354 -172171610 551148829 -519091970 822823711 407439092
REM
CELL 1.54180   50.00000   50.00000   50.00000   90.00000   90.00000   90.00000
LATT -1
SFAC C  
C      1  0.4027040000000  0.4938410000000  0.5475640000000 1.0
C      1  0.5556570000000  0.4447940000000  0.5561410000000 1.0
C      1  0.5273240000000  0.5789920000000  0.5527240000000 1.0
C      1  0.4007340000000  0.5213760000000  0.5471500000000 1.0
C      1  0.5543590000000  0.5737920000000  0.5537070000000 1.0
C      1  0.5266350000000  0.4353210000000  0.5566820000000 1.0
C      1  0.5251530000000  0.5073820000000  0.4161470000000 1.0
C      1  0.4763000000000  0.5095820000000  0.4193200000000 1.0
C      1  0.4989920000000  0.4634400000000  0.4131200000000 1.0
C      1  0.5247820000000  0.4773310000000  0.4164710000000 1.0
C      1  0.4748870000000  0.4793110000000  0.4188870000000 1.0
C      1  0.5005310000000  0.5216240000000  0.4068230000000 1.0
C      1  0.4877950000000  0.4565000000000  0.4959910000000 1.0
C      1  0.5337300000000  0.5266450000000  0.4964810000000 1.0
C      1  0.4647040000000  0.5146330000000  0.5035450000000 1.0
C      1  0.5048820000000  0.5412580000000  0.4917320000000 1.0
C      1  0.5493270000000  0.4795740000000  0.5022600000000 1.0
C      1  0.4652870000000  0.4805730000000  0.5047720000000 1.0
C      1  0.5318970000000  0.5171300000000  0.4464460000000 1.0
C      1  0.4734240000000  0.5182670000000  0.4516760000000 1.0
C      1  0.5010720000000  0.4712240000000  0.4479400000000 1.0
C      1  0.5294140000000  0.4854280000000  0.4491740000000 1.0
C      1  0.4725490000000  0.4866510000000  0.4516000000000 1.0
C      1  0.5032020000000  0.5295720000000  0.4409690000000 1.0
C      1  0.4610710000000  0.4173860000000  0.4962520000000 1.0
C      1  0.5834910000000  0.5369290000000  0.4997700000000 1.0
C      1  0.4352740000000  0.5689530000000  0.4989550000000 1.0
C      1  0.4670320000000  0.5810350000000  0.5004040000000 1.0
C      1  0.5960860000000  0.4673850000000  0.5003990000000 1.0
C      1  0.4339660000000  0.4378290000000  0.4983640000000 1.0
C      1  0.4098010000000  0.4770400000000  0.5224650000000 1.0
C      1  0.5736960000000  0.4418260000000  0.5349750000000 1.0
C      1  0.5096850000000  0.5804470000000  0.5271290000000 1.0
C      1  0.4072150000000  0.5371010000000  0.5244540000000 1.0
C      1  0.5695060000000  0.5662930000000  0.5310800000000 1.0
C      1  0.5149480000000  0.4311910000000  0.5287380000000 1.0
C      1  0.5785460000000  0.5164040000000  0.4656780000000 1.0
C      1  0.4513260000000  0.5510520000000  0.4573230000000 1.0
C      1  0.4741870000000  0.4307020000000  0.4609780000000 1.0
C      1  0.5771610000000  0.4883190000000  0.4610640000000 1.0
C      1  0.4516470000000  0.4448380000000  0.4633730000000 1.0
C      1  0.4733360000000  0.5664890000000  0.4545210000000 1.0
C      1  0.5002250000000  0.5512710000000  0.4618820000000 1.0
C      1  0.4540120000000  0.4762310000000  0.4729820000000 1.0
C      1  0.5474590000000  0.4758880000000  0.4703050000000 1.0
C      1  0.5002500000000  0.4492780000000  0.4679480000000 1.0
C      1  0.4541490000000  0.5231260000000  0.4765220000000 1.0
C      1  0.5478400000000  0.5294650000000  0.4675430000000 1.0
C      1  0.5579730000000  0.5751660000000  0.5070360000000 1.0
C      1  0.4022990000000  0.5239450000000  0.5004700000000 1.0
C      1  0.5347270000000  0.4219310000000  0.5080240000000 1.0
C      1  0.5627540000000  0.4319960000000  0.5108310000000 1.0
C      1  0.4040410000000  0.4939300000000  0.4978840000000 1.0
C      1  0.5296610000000  0.5839210000000  0.5033800000000 1.0
C      1  0.5891780000000  0.5455150000000  0.5270810000000 1.0
C      1  0.4255600000000  0.5589190000000  0.5241790000000 1.0
C      1  0.4548160000000  0.3937710000000  0.5202750000000 1.0
C      1  0.5946380000000  0.4615600000000  0.5316080000000 1.0
C      1  0.4094930000000  0.4427390000000  0.5223270000000 1.0
C      1  0.4778640000000  0.5919820000000  0.5303690000000 1.0
C      1  0.5183350000000  0.5751010000000  0.4753720000000 1.0
C      1  0.4222940000000  0.4860930000000  0.4734230000000 1.0
C      1  0.5530270000000  0.4441410000000  0.4805650000000 1.0
C      1  0.5230000000000  0.4273070000000  0.4786210000000 1.0
C      1  0.4212720000000  0.5202300000000  0.4734740000000 1.0
C      1  0.5499180000000  0.5622370000000  0.4766270000000 1.0
C      1  0.4675530000000  0.5415590000000  0.5241120000000 1.0
C      1  0.4843990000000  0.4302260000000  0.5174020000000 1.0
C      1  0.5637860000000  0.5168570000000  0.5028170000000 1.0
C      1  0.4405060000000  0.4651460000000  0.5175250000000 1.0
C      1  0.4898770000000  0.5587780000000  0.5123420000000 1.0
C      1  0.5764020000000  0.4906610000000  0.5118350000000 1.0
C      1  0.5813230000000  0.5497060000000  0.4720040000000 1.0
C      1  0.4284800000000  0.5534950000000  0.4768060000000 1.0
C      1  0.4917450000000  0.4135200000000  0.4819840000000 1.0
C      1  0.5831580000000  0.4600570000000  0.4760180000000 1.0
C      1  0.4221510000000  0.4527320000000  0.4702970000000 1.0
C      1  0.4860590000000  0.5860460000000  0.4748960000000 1.0
C      1  0.4810240000000  0.4731290000000  0.5339860000000 1.0
C      1  0.5303770000000  0.4799840000000  0.5256330000000 1.0
C      1  0.5011400000000  0.5209150000000  0.5179180000000 1.0
C      1  0.4780430000000  0.5053840000000  0.5334230000000 1.0
C      1  0.5302180000000  0.5121330000000  0.5264330000000 1.0
C      1  0.5077930000000  0.4620710000000  0.5212910000000 1.0
C      1  0.4592410000000  0.4196330000000  0.5358190000000 1.0
C      1  0.5987870000000  0.5229000000000  0.5428690000000 1.0
C      1  0.4493870000000  0.5560910000000  0.5400870000000 1.0
C      1  0.4616070000000  0.5802680000000  0.5496740000000 1.0
C      1  0.5945850000000  0.4950300000000  0.5379490000000 1.0
C      1  0.4390520000000  0.4380030000000  0.5379520000000 1.0
C      1  0.4871360000000  0.4688720000000  0.5660100000000 1.0
C      1  0.5387460000000  0.4732300000000  0.5569010000000 1.0
C      1  0.5099020000000  0.5115770000000  0.5719360000000 1.0
C      1  0.4857850000000  0.4989250000000  0.5638890000000 1.0
C      1  0.5317750000000  0.5044700000000  0.5570890000000 1.0
C      1  0.5118640000000  0.4574060000000  0.5711310000000 1.0
END
