TITL C-2622956-4641-122 0.000781304421876309 125000 -214.296700321733 0 0 38 (C1) n - 1
REM
REM in /nfs/bkarasulu/CARBON/AIRSS/Generating-Clusters/AIREBO/with-SteepDescent/Higher-Symm/SD-CG/HFTN-CG
REM
REM
REM
REM
REM
REM ./C.cell (b20cbc046b6831c77cfcea5457e17084)
REM
REM compiler GCC version 9.2.1 20190827 (Red Hat 9.2.1-1)
REM options -cpp -mtune=generic -march=x86-64 -g -O0 -fpre-include=/usr/include/finclude/math-vector-fortran.h
REM seed -1408478983 288799386 -952710703 1888898837 95933434 2120396453 -1441816586 1456098907 678168759 -274843664 -1055378697 1080237028 -68469213 406594917 -485120886 607012775 2069759901 761536114 1008075209 1489956402 1344423976 -1140047432 -1503567856 -136791808 556345543 -1171825777 -1825872912 -92837789 2086783743 2090937024 -1607086607 -1097604534 -579196124
REM
CELL 1.54180   50.00000   50.00000   50.00000   90.00000   90.00000   90.00000
LATT -1
SFAC C  
C      1  0.4683480000000  0.5544240000000  0.4965960000000 1.0
C      1  0.4908860000000  0.5589730000000  0.5214930000000 1.0
C      1  0.5306450000000  0.5556640000000  0.5229410000000 1.0
C      1  0.5281360000000  0.5588900000000  0.4833510000000 1.0
C      1  0.4839170000000  0.5534410000000  0.4668490000000 1.0
C      1  0.4608070000000  0.4481020000000  0.5006410000000 1.0
C      1  0.4925660000000  0.4453980000000  0.4765320000000 1.0
C      1  0.5257320000000  0.4490360000000  0.4830840000000 1.0
C      1  0.5319260000000  0.4518260000000  0.5161680000000 1.0
C      1  0.4869680000000  0.4467350000000  0.5305910000000 1.0
C      1  0.4612950000000  0.4561690000000  0.4718450000000 1.0
C      1  0.4603420000000  0.4629950000000  0.5286470000000 1.0
C      1  0.5123910000000  0.4584330000000  0.5351590000000 1.0
C      1  0.5548970000000  0.4601860000000  0.4950030000000 1.0
C      1  0.5134190000000  0.4630330000000  0.4561150000000 1.0
C      1  0.4596940000000  0.5467700000000  0.5276180000000 1.0
C      1  0.4562430000000  0.5388150000000  0.4688730000000 1.0
C      1  0.5108770000000  0.5477250000000  0.4637570000000 1.0
C      1  0.5495080000000  0.5430610000000  0.4996680000000 1.0
C      1  0.5113730000000  0.5437170000000  0.5436230000000 1.0
C      1  0.5182580000000  0.5226800000000  0.4472660000000 1.0
C      1  0.4535360000000  0.5126540000000  0.4645710000000 1.0
C      1  0.4543570000000  0.5205810000000  0.5328000000000 1.0
C      1  0.5125910000000  0.5170920000000  0.5468240000000 1.0
C      1  0.5693420000000  0.5198840000000  0.4958520000000 1.0
C      1  0.5143220000000  0.4845150000000  0.5496530000000 1.0
C      1  0.4485540000000  0.4888200000000  0.5384880000000 1.0
C      1  0.4509290000000  0.4808980000000  0.4596940000000 1.0
C      1  0.5155650000000  0.4895940000000  0.4518140000000 1.0
C      1  0.5610080000000  0.4869630000000  0.4932110000000 1.0
C      1  0.5454130000000  0.5052810000000  0.5118010000000 1.0
C      1  0.5070610000000  0.5093490000000  0.4743430000000 1.0
C      1  0.5191960000000  0.5007480000000  0.5209740000000 1.0
C      1  0.4682410000000  0.4991910000000  0.5137480000000 1.0
C      1  0.4716030000000  0.4931080000000  0.4829030000000 1.0
C      1  0.5138920000000  0.5766600000000  0.5050050000000 1.0
C      1  0.4858740000000  0.4283770000000  0.5052380000000 1.0
C      1  0.4979580000000  0.5012070000000  0.5017650000000 1.0
END
