TITL C-2622967-6265-668 0.00966111305050798 125000 -726.102300303388 0 0 139 (C1) n - 1
REM
REM in /nfs/bkarasulu/CARBON/AIRSS/Generating-Clusters/AIREBO/with-SteepDescent/Higher-Symm/SD-CG/HFTN-CG
REM
REM
REM
REM
REM
REM ./C.cell (b20cbc046b6831c77cfcea5457e17084)
REM
REM compiler GCC version 9.2.1 20190827 (Red Hat 9.2.1-1)
REM options -cpp -mtune=generic -march=x86-64 -g -O0 -fpre-include=/usr/include/finclude/math-vector-fortran.h
REM seed 950070420 -2077605565 -1214734888 -1134380484 -590434877 -1991792644 -131771162 391970684 1588269707 1461229308 235701158 138948698 1516601343 -1886458507 475529370 2127775260 -1605837735 -611241110 107010881 -1934305197 1837464567 967432091 465803812 646776084 -359352098 697043199 50976425 1089585122 -1494306969 1560510253 645392841 1212907419 1376730412
REM
CELL 1.54180   50.00000   50.00000   50.00000   90.00000   90.00000   90.00000
LATT -1
SFAC C  
C      1  0.5279670000000  0.5069290000000  0.4856550000000 1.0
C      1  0.5228830000000  0.5065830000000  0.5192790000000 1.0
C      1  0.4887400000000  0.5094940000000  0.5234600000000 1.0
C      1  0.4739420000000  0.4992250000000  0.4946080000000 1.0
C      1  0.4971090000000  0.5091780000000  0.4715340000000 1.0
C      1  0.5587740000000  0.4513200000000  0.5142460000000 1.0
C      1  0.5091980000000  0.4528860000000  0.5569100000000 1.0
C      1  0.4496470000000  0.4443360000000  0.5219500000000 1.0
C      1  0.4613660000000  0.4525830000000  0.4563280000000 1.0
C      1  0.5291040000000  0.4441490000000  0.4503220000000 1.0
C      1  0.4215670000000  0.5418780000000  0.5449720000000 1.0
C      1  0.4350610000000  0.5421740000000  0.4398130000000 1.0
C      1  0.5363010000000  0.5412410000000  0.4148530000000 1.0
C      1  0.5855980000000  0.5406560000000  0.5116060000000 1.0
C      1  0.5162270000000  0.5416780000000  0.5902700000000 1.0
C      1  0.4827880000000  0.4061580000000  0.5182530000000 1.0
C      1  0.4785120000000  0.4076140000000  0.4895970000000 1.0
C      1  0.5044680000000  0.4063190000000  0.4768740000000 1.0
C      1  0.5249800000000  0.4068170000000  0.4975310000000 1.0
C      1  0.5112080000000  0.4049960000000  0.5232820000000 1.0
C      1  0.4355900000000  0.5730310000000  0.5209740000000 1.0
C      1  0.4677160000000  0.5781730000000  0.4491690000000 1.0
C      1  0.5401270000000  0.5685370000000  0.4592170000000 1.0
C      1  0.5546690000000  0.5610650000000  0.5268480000000 1.0
C      1  0.4966710000000  0.5777730000000  0.5610080000000 1.0
C      1  0.5306220000000  0.5563010000000  0.4956520000000 1.0
C      1  0.5152120000000  0.5581650000000  0.5319930000000 1.0
C      1  0.4758710000000  0.5560330000000  0.5346630000000 1.0
C      1  0.4643270000000  0.5488060000000  0.4895830000000 1.0
C      1  0.5019050000000  0.5574640000000  0.4578260000000 1.0
C      1  0.5745920000000  0.4729840000000  0.5311040000000 1.0
C      1  0.4921360000000  0.4778830000000  0.5700200000000 1.0
C      1  0.4248230000000  0.4897990000000  0.5048750000000 1.0
C      1  0.4675620000000  0.4796880000000  0.4395960000000 1.0
C      1  0.5551950000000  0.4900770000000  0.4501630000000 1.0
C      1  0.3988330000000  0.4990050000000  0.4740320000000 1.0
C      1  0.4795470000000  0.4920920000000  0.4036200000000 1.0
C      1  0.5974280000000  0.4970610000000  0.4579340000000 1.0
C      1  0.5716280000000  0.4930930000000  0.5764210000000 1.0
C      1  0.4584610000000  0.4933110000000  0.5850490000000 1.0
C      1  0.4776640000000  0.5627720000000  0.4268650000000 1.0
C      1  0.5726580000000  0.5594210000000  0.4624550000000 1.0
C      1  0.5588390000000  0.5541590000000  0.5577280000000 1.0
C      1  0.4736830000000  0.5633350000000  0.5735120000000 1.0
C      1  0.4258210000000  0.5586950000000  0.4910480000000 1.0
C      1  0.5083500000000  0.4191470000000  0.4474060000000 1.0
C      1  0.5539520000000  0.4233800000000  0.4954590000000 1.0
C      1  0.5206250000000  0.4218330000000  0.5490380000000 1.0
C      1  0.4650130000000  0.4226590000000  0.5401570000000 1.0
C      1  0.4540650000000  0.4237430000000  0.4728030000000 1.0
C      1  0.5331620000000  0.4818860000000  0.4029920000000 1.0
C      1  0.6036960000000  0.4874140000000  0.5080580000000 1.0
C      1  0.5197010000000  0.4867340000000  0.5975450000000 1.0
C      1  0.4169240000000  0.4891980000000  0.5549460000000 1.0
C      1  0.4248570000000  0.4888050000000  0.4352610000000 1.0
C      1  0.5144840000000  0.5796170000000  0.4786250000000 1.0
C      1  0.5317700000000  0.5833800000000  0.5163320000000 1.0
C      1  0.4935010000000  0.5839550000000  0.5275290000000 1.0
C      1  0.4631810000000  0.5777240000000  0.5026770000000 1.0
C      1  0.4782580000000  0.5978230000000  0.4652540000000 1.0
C      1  0.4538920000000  0.5146630000000  0.4723130000000 1.0
C      1  0.5101630000000  0.5140430000000  0.4405080000000 1.0
C      1  0.5595270000000  0.5117540000000  0.4925610000000 1.0
C      1  0.5258930000000  0.5138040000000  0.5523710000000 1.0
C      1  0.4582700000000  0.5160140000000  0.5370960000000 1.0
C      1  0.5760390000000  0.4709000000000  0.4369610000000 1.0
C      1  0.5824690000000  0.4696100000000  0.5578170000000 1.0
C      1  0.4725100000000  0.4643080000000  0.5920330000000 1.0
C      1  0.3981540000000  0.4733170000000  0.5045930000000 1.0
C      1  0.4639970000000  0.4634480000000  0.4105180000000 1.0
C      1  0.4171920000000  0.4617570000000  0.4436070000000 1.0
C      1  0.5248600000000  0.4521870000000  0.4015080000000 1.0
C      1  0.6012210000000  0.4618340000000  0.4956480000000 1.0
C      1  0.5307890000000  0.4614930000000  0.5917010000000 1.0
C      1  0.4173260000000  0.4585990000000  0.5629650000000 1.0
C      1  0.5356060000000  0.4683880000000  0.5501510000000 1.0
C      1  0.4558950000000  0.4692490000000  0.5393450000000 1.0
C      1  0.4396760000000  0.4664220000000  0.4760510000000 1.0
C      1  0.5134310000000  0.4688700000000  0.4381980000000 1.0
C      1  0.5628350000000  0.4682980000000  0.4871430000000 1.0
C      1  0.4378250000000  0.4927520000000  0.5324650000000 1.0
C      1  0.4530460000000  0.5066270000000  0.4419290000000 1.0
C      1  0.5308800000000  0.4932210000000  0.4330120000000 1.0
C      1  0.5754140000000  0.5028450000000  0.5189280000000 1.0
C      1  0.5037660000000  0.5069100000000  0.5752800000000 1.0
C      1  0.5256580000000  0.4746640000000  0.5206650000000 1.0
C      1  0.4855650000000  0.4789030000000  0.5380470000000 1.0
C      1  0.4552920000000  0.4770010000000  0.5001240000000 1.0
C      1  0.4926580000000  0.4766800000000  0.4624460000000 1.0
C      1  0.5351290000000  0.4759130000000  0.4736970000000 1.0
C      1  0.4118360000000  0.5421570000000  0.4646450000000 1.0
C      1  0.5096480000000  0.5290980000000  0.3988300000000 1.0
C      1  0.5935540000000  0.5381460000000  0.4781590000000 1.0
C      1  0.5494450000000  0.5373490000000  0.5860220000000 1.0
C      1  0.4337550000000  0.5328500000000  0.5744930000000 1.0
C      1  0.5272450000000  0.4302550000000  0.4207940000000 1.0
C      1  0.5860440000000  0.4345640000000  0.5027420000000 1.0
C      1  0.5205810000000  0.4328970000000  0.5819590000000 1.0
C      1  0.4341160000000  0.4350780000000  0.5494240000000 1.0
C      1  0.4339800000000  0.4349600000000  0.4465370000000 1.0
C      1  0.4508900000000  0.5428010000000  0.5178110000000 1.0
C      1  0.4785210000000  0.5367690000000  0.4644880000000 1.0
C      1  0.5264320000000  0.5375320000000  0.4531490000000 1.0
C      1  0.5447820000000  0.5321060000000  0.5133940000000 1.0
C      1  0.4991400000000  0.5335200000000  0.5451740000000 1.0
C      1  0.4858250000000  0.5348720000000  0.5827290000000 1.0
C      1  0.4178820000000  0.5353510000000  0.5144400000000 1.0
C      1  0.4626640000000  0.5347360000000  0.4252810000000 1.0
C      1  0.5574970000000  0.5385650000000  0.4402920000000 1.0
C      1  0.5742230000000  0.5292800000000  0.5403070000000 1.0
C      1  0.4665560000000  0.4451310000000  0.4960990000000 1.0
C      1  0.4924970000000  0.4428500000000  0.4659270000000 1.0
C      1  0.5301410000000  0.4433150000000  0.4820260000000 1.0
C      1  0.5271680000000  0.4415190000000  0.5220960000000 1.0
C      1  0.4883960000000  0.4456320000000  0.5310100000000 1.0
C      1  0.4098630000000  0.5151570000000  0.5631320000000 1.0
C      1  0.4144540000000  0.5168830000000  0.4419140000000 1.0
C      1  0.5361480000000  0.5113580000000  0.3977730000000 1.0
C      1  0.6078490000000  0.5172980000000  0.5008580000000 1.0
C      1  0.5308270000000  0.5146310000000  0.6035620000000 1.0
C      1  0.5723540000000  0.5169660000000  0.4619480000000 1.0
C      1  0.5560910000000  0.5150330000000  0.5633830000000 1.0
C      1  0.4608730000000  0.5190870000000  0.5708640000000 1.0
C      1  0.4227790000000  0.5178190000000  0.4857210000000 1.0
C      1  0.4876910000000  0.5172800000000  0.4168760000000 1.0
C      1  0.4474000000000  0.5629130000000  0.5519430000000 1.0
C      1  0.4467820000000  0.5610520000000  0.4642430000000 1.0
C      1  0.5088830000000  0.5589160000000  0.4245710000000 1.0
C      1  0.5643290000000  0.5603780000000  0.4937340000000 1.0
C      1  0.5256500000000  0.5602020000000  0.5638580000000 1.0
C      1  0.5550920000000  0.4657540000000  0.5740110000000 1.0
C      1  0.4477450000000  0.4668280000000  0.5693270000000 1.0
C      1  0.4089670000000  0.4685140000000  0.4735450000000 1.0
C      1  0.4974640000000  0.4656520000000  0.4106830000000 1.0
C      1  0.5879850000000  0.4673270000000  0.4676810000000 1.0
C      1  0.5002590000000  0.4418400000000  0.4993600000000 1.0
C      1  0.5072250000000  0.4741090000000  0.4930640000000 1.0
C      1  0.4983910000000  0.5301910000000  0.4982580000000 1.0
C      1  0.4916210000000  0.5928030000000  0.4961130000000 1.0
END
