TITL C-2622957-9142-446 -0.00276549194512772 125000 -891.260605539282 0 0 168 (C1) n - 1
REM
REM in /nfs/bkarasulu/CARBON/AIRSS/Generating-Clusters/AIREBO/with-SteepDescent/Higher-Symm/SD-CG/HFTN-CG
REM
REM
REM
REM
REM
REM ./C.cell (b20cbc046b6831c77cfcea5457e17084)
REM
REM compiler GCC version 9.2.1 20190827 (Red Hat 9.2.1-1)
REM options -cpp -mtune=generic -march=x86-64 -g -O0 -fpre-include=/usr/include/finclude/math-vector-fortran.h
REM seed -1529543807 -734584869 1433165461 -1711941660 -1213066885 -214918307 -411151314 654266067 -637298553 -444522936 927314909 -37768662 -1807264611 -395019331 2114826861 -164917570 -1680342711 -493465776 1325191356 -71175065 31584598 416323202 -322889351 -615969524 1066289848 967081298 2133822928 1812721881 -1983417412 -1174157856 1887739976 895356976 -1937275495
REM
CELL 1.54180   50.00000   50.00000   50.00000   90.00000   90.00000   90.00000
LATT -1
SFAC C  
C      1  0.4324880000000  0.4426100000000  0.5503660000000 1.0
C      1  0.5750390000000  0.5489380000000  0.5247730000000 1.0
C      1  0.5035160000000  0.4034150000000  0.5429520000000 1.0
C      1  0.4041030000000  0.5482730000000  0.4803950000000 1.0
C      1  0.4826700000000  0.5744960000000  0.4800120000000 1.0
C      1  0.4868970000000  0.3928530000000  0.5152330000000 1.0
C      1  0.4529500000000  0.4156540000000  0.4442980000000 1.0
C      1  0.5118270000000  0.5585740000000  0.4741620000000 1.0
C      1  0.5473690000000  0.5829220000000  0.5531370000000 1.0
C      1  0.4684210000000  0.4581320000000  0.5906900000000 1.0
C      1  0.5131140000000  0.5137890000000  0.5325270000000 1.0
C      1  0.5630170000000  0.4660820000000  0.4568280000000 1.0
C      1  0.4479260000000  0.4347750000000  0.4226450000000 1.0
C      1  0.5075350000000  0.5120090000000  0.4665380000000 1.0
C      1  0.4072360000000  0.4585520000000  0.5359810000000 1.0
C      1  0.4453520000000  0.5645790000000  0.4441070000000 1.0
C      1  0.5288110000000  0.5019290000000  0.5561080000000 1.0
C      1  0.4969700000000  0.5499880000000  0.4448030000000 1.0
C      1  0.4952830000000  0.5443070000000  0.5142930000000 1.0
C      1  0.4826710000000  0.5738380000000  0.5652250000000 1.0
C      1  0.5784300000000  0.5300470000000  0.4285370000000 1.0
C      1  0.5493910000000  0.4484650000000  0.4107850000000 1.0
C      1  0.4032050000000  0.5283840000000  0.5285050000000 1.0
C      1  0.6189400000000  0.4853970000000  0.5193000000000 1.0
C      1  0.4850420000000  0.6073220000000  0.4794220000000 1.0
C      1  0.4971140000000  0.5384170000000  0.5477380000000 1.0
C      1  0.4352800000000  0.4565930000000  0.5816240000000 1.0
C      1  0.5831850000000  0.5015700000000  0.5129380000000 1.0
C      1  0.4820410000000  0.4420240000000  0.5054030000000 1.0
C      1  0.5059420000000  0.5700800000000  0.5867560000000 1.0
C      1  0.4181130000000  0.5535130000000  0.5109360000000 1.0
C      1  0.4703880000000  0.4783670000000  0.4149180000000 1.0
C      1  0.5574590000000  0.4200200000000  0.5399920000000 1.0
C      1  0.5603510000000  0.5244470000000  0.4092080000000 1.0
C      1  0.5040240000000  0.5747810000000  0.4226210000000 1.0
C      1  0.4929710000000  0.4376110000000  0.4305940000000 1.0
C      1  0.5790230000000  0.5341890000000  0.5869560000000 1.0
C      1  0.4728210000000  0.5075840000000  0.5620090000000 1.0
C      1  0.5797470000000  0.4331790000000  0.5100560000000 1.0
C      1  0.5336630000000  0.5089510000000  0.4472330000000 1.0
C      1  0.4790240000000  0.4746580000000  0.5282220000000 1.0
C      1  0.5269390000000  0.5503520000000  0.5244910000000 1.0
C      1  0.5570000000000  0.4644540000000  0.5662000000000 1.0
C      1  0.4818780000000  0.5205800000000  0.4465020000000 1.0
C      1  0.4695720000000  0.5071150000000  0.4837540000000 1.0
C      1  0.5435280000000  0.5048130000000  0.6001890000000 1.0
C      1  0.4801070000000  0.4440930000000  0.4613940000000 1.0
C      1  0.5275190000000  0.4663760000000  0.5741620000000 1.0
C      1  0.5149100000000  0.4052640000000  0.5048460000000 1.0
C      1  0.4832150000000  0.5035700000000  0.5341020000000 1.0
C      1  0.5756930000000  0.5202900000000  0.4597180000000 1.0
C      1  0.5160020000000  0.4803830000000  0.4409330000000 1.0
C      1  0.5582850000000  0.4550240000000  0.5356970000000 1.0
C      1  0.4879540000000  0.5996270000000  0.5307390000000 1.0
C      1  0.5252450000000  0.5226400000000  0.5810230000000 1.0
C      1  0.4268760000000  0.4347740000000  0.4976920000000 1.0
C      1  0.5398960000000  0.5442940000000  0.4871850000000 1.0
C      1  0.5580100000000  0.4858950000000  0.5214120000000 1.0
C      1  0.4445810000000  0.5748870000000  0.5111850000000 1.0
C      1  0.6125000000000  0.5095150000000  0.5388020000000 1.0
C      1  0.5415710000000  0.5003290000000  0.4153050000000 1.0
C      1  0.4758960000000  0.4457310000000  0.5458330000000 1.0
C      1  0.3936680000000  0.5009370000000  0.5088280000000 1.0
C      1  0.5412870000000  0.5924660000000  0.5256310000000 1.0
C      1  0.4867130000000  0.4179700000000  0.5622160000000 1.0
C      1  0.5613400000000  0.4476490000000  0.4853800000000 1.0
C      1  0.4327630000000  0.5185650000000  0.4399300000000 1.0
C      1  0.4162090000000  0.5569350000000  0.4497230000000 1.0
C      1  0.5160320000000  0.4754050000000  0.5430490000000 1.0
C      1  0.5650780000000  0.5686190000000  0.4594450000000 1.0
C      1  0.4280140000000  0.5158270000000  0.5480740000000 1.0
C      1  0.4229840000000  0.4671840000000  0.4580980000000 1.0
C      1  0.5292400000000  0.5877290000000  0.5775720000000 1.0
C      1  0.4569060000000  0.5301040000000  0.4275440000000 1.0
C      1  0.5706800000000  0.5063710000000  0.5921100000000 1.0
C      1  0.4653090000000  0.5181250000000  0.5144190000000 1.0
C      1  0.4483650000000  0.4167920000000  0.5458250000000 1.0
C      1  0.5070970000000  0.4639620000000  0.5122930000000 1.0
C      1  0.5898370000000  0.5636210000000  0.4753770000000 1.0
C      1  0.5053520000000  0.4717600000000  0.5968830000000 1.0
C      1  0.5090100000000  0.4841380000000  0.4849880000000 1.0
C      1  0.4052600000000  0.5252530000000  0.4554240000000 1.0
C      1  0.4711150000000  0.4189890000000  0.5255110000000 1.0
C      1  0.5539970000000  0.5314290000000  0.5650110000000 1.0
C      1  0.4623800000000  0.5518730000000  0.4692020000000 1.0
C      1  0.5075530000000  0.5231080000000  0.4055760000000 1.0
C      1  0.4213290000000  0.5661330000000  0.5423470000000 1.0
C      1  0.3997850000000  0.4974030000000  0.5420880000000 1.0
C      1  0.4370300000000  0.4767870000000  0.4084160000000 1.0
C      1  0.5330450000000  0.5594340000000  0.4314680000000 1.0
C      1  0.4592120000000  0.5931600000000  0.5347110000000 1.0
C      1  0.4709170000000  0.5327520000000  0.5909220000000 1.0
C      1  0.5914590000000  0.4544430000000  0.5289760000000 1.0
C      1  0.5149540000000  0.4444940000000  0.5534000000000 1.0
C      1  0.4587700000000  0.5922480000000  0.4537580000000 1.0
C      1  0.4375150000000  0.5076940000000  0.5180280000000 1.0
C      1  0.4171620000000  0.5179330000000  0.4927850000000 1.0
C      1  0.4783520000000  0.4761450000000  0.4726410000000 1.0
C      1  0.4237340000000  0.4179070000000  0.4693830000000 1.0
C      1  0.4387630000000  0.4031020000000  0.4936460000000 1.0
C      1  0.5163130000000  0.4225770000000  0.4312960000000 1.0
C      1  0.6016140000000  0.4875100000000  0.4916130000000 1.0
C      1  0.4461840000000  0.4429220000000  0.4636400000000 1.0
C      1  0.5460320000000  0.5946510000000  0.4695310000000 1.0
C      1  0.4050190000000  0.4532410000000  0.5071940000000 1.0
C      1  0.5334690000000  0.5212070000000  0.5082410000000 1.0
C      1  0.4262340000000  0.4533130000000  0.4271580000000 1.0
C      1  0.5083840000000  0.5936360000000  0.5550220000000 1.0
C      1  0.5567810000000  0.4118320000000  0.5075770000000 1.0
C      1  0.5518140000000  0.5529350000000  0.5444550000000 1.0
C      1  0.5933020000000  0.4592250000000  0.4841210000000 1.0
C      1  0.4992930000000  0.5401050000000  0.5788140000000 1.0
C      1  0.5192110000000  0.4953830000000  0.3903710000000 1.0
C      1  0.5461670000000  0.4713140000000  0.4306910000000 1.0
C      1  0.4548000000000  0.4522180000000  0.4951900000000 1.0
C      1  0.4421000000000  0.5409230000000  0.4903750000000 1.0
C      1  0.4459550000000  0.4671500000000  0.5310430000000 1.0
C      1  0.5346250000000  0.5391310000000  0.4085310000000 1.0
C      1  0.5221180000000  0.5872280000000  0.4482410000000 1.0
C      1  0.4584890000000  0.4701830000000  0.5618090000000 1.0
C      1  0.5481400000000  0.5395400000000  0.4545410000000 1.0
C      1  0.4401290000000  0.4883830000000  0.4390490000000 1.0
C      1  0.4961940000000  0.4427030000000  0.5817610000000 1.0
C      1  0.5090480000000  0.4333570000000  0.4866140000000 1.0
C      1  0.4852820000000  0.5426930000000  0.4136650000000 1.0
C      1  0.5391550000000  0.4929980000000  0.4960350000000 1.0
C      1  0.5191500000000  0.5887600000000  0.4880130000000 1.0
C      1  0.4186370000000  0.4782040000000  0.5613050000000 1.0
C      1  0.4990860000000  0.4917460000000  0.4173030000000 1.0
C      1  0.6010170000000  0.5035940000000  0.4652990000000 1.0
C      1  0.6077190000000  0.4440070000000  0.4628890000000 1.0
C      1  0.4888650000000  0.5351190000000  0.4830750000000 1.0
C      1  0.4786730000000  0.4900100000000  0.5899540000000 1.0
C      1  0.5373660000000  0.4496700000000  0.5094330000000 1.0
C      1  0.4649870000000  0.5497290000000  0.5215190000000 1.0
C      1  0.5396430000000  0.4202170000000  0.4453910000000 1.0
C      1  0.5913040000000  0.5267900000000  0.5269470000000 1.0
C      1  0.4783110000000  0.4103100000000  0.4649250000000 1.0
C      1  0.4513360000000  0.5069160000000  0.5954140000000 1.0
C      1  0.4494650000000  0.5321750000000  0.5645410000000 1.0
C      1  0.4281770000000  0.4954060000000  0.5879210000000 1.0
C      1  0.4663450000000  0.3990200000000  0.4912460000000 1.0
C      1  0.6065560000000  0.4877570000000  0.4434010000000 1.0
C      1  0.5798980000000  0.4859780000000  0.5692100000000 1.0
C      1  0.5661050000000  0.5599410000000  0.4983640000000 1.0
C      1  0.4074350000000  0.4797510000000  0.4860360000000 1.0
C      1  0.6034710000000  0.4781040000000  0.5486930000000 1.0
C      1  0.5264740000000  0.4249650000000  0.5301130000000 1.0
C      1  0.4419220000000  0.5136540000000  0.4698800000000 1.0
C      1  0.4712570000000  0.4911740000000  0.4462970000000 1.0
C      1  0.5406060000000  0.4214480000000  0.4790220000000 1.0
C      1  0.5127620000000  0.5797600000000  0.5186250000000 1.0
C      1  0.5553890000000  0.4945670000000  0.4687930000000 1.0
C      1  0.5566310000000  0.5892670000000  0.5015410000000 1.0
C      1  0.4542070000000  0.5626420000000  0.5502810000000 1.0
C      1  0.4513860000000  0.5870880000000  0.4843690000000 1.0
C      1  0.5928430000000  0.4629140000000  0.4444890000000 1.0
C      1  0.5235170000000  0.3921770000000  0.4762980000000 1.0
C      1  0.3911760000000  0.4989900000000  0.4631880000000 1.0
C      1  0.5289410000000  0.4858120000000  0.6128830000000 1.0
C      1  0.5028110000000  0.3925090000000  0.4576850000000 1.0
C      1  0.4358960000000  0.4791390000000  0.5037280000000 1.0
C      1  0.5592570000000  0.5013810000000  0.5501490000000 1.0
C      1  0.4719880000000  0.4472520000000  0.4143950000000 1.0
C      1  0.5003870000000  0.6138990000000  0.5035130000000 1.0
C      1  0.5117340000000  0.4564690000000  0.4633330000000 1.0
C      1  0.4902310000000  0.5990270000000  0.4494470000000 1.0
C      1  0.4564340000000  0.5605380000000  0.4138470000000 1.0
END
