TITL C-2622967-6265-232 -0.00138047574253513 125000 -74.8543281326931 0 0 16 (C1) n - 1
REM
REM in /nfs/bkarasulu/CARBON/AIRSS/Generating-Clusters/AIREBO/with-SteepDescent/Higher-Symm/SD-CG/HFTN-CG
REM
REM
REM
REM
REM
REM ./C.cell (b20cbc046b6831c77cfcea5457e17084)
REM
REM compiler GCC version 9.2.1 20190827 (Red Hat 9.2.1-1)
REM options -cpp -mtune=generic -march=x86-64 -g -O0 -fpre-include=/usr/include/finclude/math-vector-fortran.h
REM seed 2026618722 -335101207 -97341310 1831092993 -485078352 1454371792 -1021337362 94121436 -644768060 1120832679 -900681018 1281361774 -148240811 -1344578661 -577574191 -1571787526 190178000 -961904354 1158763203 1331880434 517748540 1612616697 513230152 -1189882119 -744679830 -1244111553 -441152284 1175474724 -529712151 1139022974 -1376806210 1546686206 1127743474
REM
CELL 1.54180   50.00000   50.00000   50.00000   90.00000   90.00000   90.00000
LATT -1
SFAC C  
C      1  0.5011300000000  0.4925300000000  0.5347190000000 1.0
C      1  0.4991340000000  0.5083720000000  0.4651390000000 1.0
C      1  0.4779610000000  0.5040710000000  0.4881280000000 1.0
C      1  0.5222090000000  0.4971340000000  0.5118020000000 1.0
C      1  0.5000910000000  0.5402250000000  0.5066670000000 1.0
C      1  0.4950980000000  0.4587320000000  0.4942050000000 1.0
C      1  0.5200900000000  0.5317990000000  0.4560440000000 1.0
C      1  0.4835260000000  0.4664940000000  0.5425460000000 1.0
C      1  0.4619760000000  0.4625990000000  0.5265120000000 1.0
C      1  0.5401510000000  0.5335700000000  0.4751810000000 1.0
C      1  0.4854050000000  0.4826320000000  0.5062330000000 1.0
C      1  0.5144000000000  0.5195340000000  0.4934150000000 1.0
C      1  0.4561260000000  0.5185200000000  0.4897160000000 1.0
C      1  0.5440990000000  0.4830940000000  0.5097000000000 1.0
C      1  0.5023130000000  0.5110120000000  0.5553320000000 1.0
C      1  0.4962930000000  0.4896840000000  0.4446620000000 1.0
END
