TITL C-2622962-9663-283 -0.00127472577166617 125000 -846.234657421595 0 0 162 (C1) n - 1
REM
REM in /nfs/bkarasulu/CARBON/AIRSS/Generating-Clusters/AIREBO/with-SteepDescent/Higher-Symm/SD-CG/HFTN-CG
REM
REM
REM
REM
REM
REM ./C.cell (b20cbc046b6831c77cfcea5457e17084)
REM
REM compiler GCC version 9.2.1 20190827 (Red Hat 9.2.1-1)
REM options -cpp -mtune=generic -march=x86-64 -g -O0 -fpre-include=/usr/include/finclude/math-vector-fortran.h
REM seed 788336276 374022280 -1185444247 1681939093 1430347797 1520965635 2053447890 1984442227 -1838368618 -2132563843 128051179 1661896161 693689307 275072752 2130125468 -1153486430 -1582793734 -1106847185 -615820849 -1157913185 -1814658598 -2054678214 -11666993 -2093880659 655288761 -1513158972 1150411427 -30452198 -2007903434 -1683174896 1000303114 1861125072 -591238847
REM
CELL 1.54180   50.00000   50.00000   50.00000   90.00000   90.00000   90.00000
LATT -1
SFAC C  
C      1  0.5217400000000  0.3787880000000  0.4541880000000 1.0
C      1  0.5234130000000  0.5947660000000  0.5563610000000 1.0
C      1  0.5362760000000  0.3993720000000  0.5396700000000 1.0
C      1  0.5118820000000  0.5974440000000  0.4383450000000 1.0
C      1  0.4933250000000  0.4194460000000  0.5233780000000 1.0
C      1  0.4808000000000  0.5920190000000  0.4787970000000 1.0
C      1  0.4883340000000  0.4078330000000  0.4693050000000 1.0
C      1  0.4904500000000  0.5998310000000  0.5346100000000 1.0
C      1  0.4495020000000  0.4277050000000  0.4476100000000 1.0
C      1  0.4496060000000  0.5750190000000  0.5464190000000 1.0
C      1  0.4587770000000  0.4256310000000  0.5424500000000 1.0
C      1  0.4375770000000  0.5756020000000  0.4516270000000 1.0
C      1  0.4098690000000  0.4655670000000  0.4641720000000 1.0
C      1  0.4135310000000  0.5318720000000  0.5276010000000 1.0
C      1  0.4181690000000  0.4672730000000  0.5326960000000 1.0
C      1  0.4143990000000  0.5304860000000  0.4757110000000 1.0
C      1  0.4797170000000  0.5659610000000  0.4289090000000 1.0
C      1  0.4682450000000  0.4277690000000  0.5809970000000 1.0
C      1  0.4652940000000  0.5705340000000  0.5726140000000 1.0
C      1  0.4854800000000  0.4330750000000  0.4138720000000 1.0
C      1  0.4646680000000  0.4558580000000  0.5838040000000 1.0
C      1  0.4685750000000  0.5404800000000  0.4197410000000 1.0
C      1  0.4611200000000  0.4537480000000  0.4167390000000 1.0
C      1  0.4623830000000  0.5455210000000  0.5846230000000 1.0
C      1  0.4992160000000  0.4791330000000  0.4781960000000 1.0
C      1  0.4966830000000  0.5272580000000  0.5248550000000 1.0
C      1  0.4997180000000  0.4782740000000  0.5293000000000 1.0
C      1  0.4949310000000  0.5267560000000  0.4744410000000 1.0
C      1  0.5493980000000  0.4767470000000  0.5707570000000 1.0
C      1  0.5583740000000  0.5200230000000  0.4297990000000 1.0
C      1  0.5678680000000  0.4693190000000  0.4299450000000 1.0
C      1  0.5504780000000  0.5249510000000  0.5696650000000 1.0
C      1  0.4397390000000  0.5297770000000  0.4203200000000 1.0
C      1  0.4390080000000  0.4708360000000  0.5812270000000 1.0
C      1  0.4362730000000  0.5279230000000  0.5821380000000 1.0
C      1  0.4380740000000  0.4727440000000  0.4200740000000 1.0
C      1  0.4823730000000  0.4652270000000  0.4364310000000 1.0
C      1  0.4867620000000  0.5333360000000  0.5857800000000 1.0
C      1  0.4887830000000  0.4687500000000  0.5792820000000 1.0
C      1  0.4931540000000  0.5283840000000  0.4310600000000 1.0
C      1  0.5013110000000  0.6149380000000  0.5591280000000 1.0
C      1  0.4970900000000  0.3848280000000  0.4511290000000 1.0
C      1  0.4887680000000  0.6080580000000  0.4501960000000 1.0
C      1  0.5077960000000  0.3942460000000  0.5410490000000 1.0
C      1  0.5121580000000  0.5792850000000  0.5183880000000 1.0
C      1  0.5095020000000  0.4287650000000  0.4822910000000 1.0
C      1  0.5070410000000  0.5748850000000  0.4708350000000 1.0
C      1  0.5232100000000  0.4193550000000  0.5077430000000 1.0
C      1  0.5228720000000  0.5283500000000  0.4046480000000 1.0
C      1  0.5119760000000  0.4706090000000  0.6118010000000 1.0
C      1  0.5209040000000  0.5211930000000  0.6027010000000 1.0
C      1  0.5193850000000  0.4754470000000  0.4117060000000 1.0
C      1  0.4481510000000  0.5274880000000  0.4531900000000 1.0
C      1  0.4529950000000  0.4746530000000  0.5504690000000 1.0
C      1  0.4482620000000  0.5267470000000  0.5503410000000 1.0
C      1  0.4469010000000  0.4745230000000  0.4528750000000 1.0
C      1  0.4860540000000  0.4506930000000  0.5148270000000 1.0
C      1  0.4759990000000  0.5521850000000  0.4811840000000 1.0
C      1  0.4797290000000  0.4552930000000  0.4832840000000 1.0
C      1  0.4753940000000  0.5519850000000  0.5151890000000 1.0
C      1  0.5381960000000  0.4278550000000  0.4547060000000 1.0
C      1  0.5447640000000  0.5685040000000  0.5423300000000 1.0
C      1  0.5415770000000  0.4301800000000  0.5489490000000 1.0
C      1  0.5485320000000  0.5674910000000  0.4580740000000 1.0
C      1  0.5784360000000  0.4373170000000  0.5354360000000 1.0
C      1  0.5765740000000  0.5581290000000  0.4734210000000 1.0
C      1  0.5669470000000  0.4309240000000  0.4726210000000 1.0
C      1  0.5782750000000  0.5689610000000  0.5365490000000 1.0
C      1  0.4302760000000  0.4472640000000  0.4493390000000 1.0
C      1  0.4341510000000  0.5535380000000  0.5398250000000 1.0
C      1  0.4408040000000  0.4453440000000  0.5441880000000 1.0
C      1  0.4255490000000  0.5508400000000  0.4508580000000 1.0
C      1  0.5371360000000  0.4828560000000  0.4352750000000 1.0
C      1  0.5169400000000  0.5307510000000  0.5703080000000 1.0
C      1  0.5182570000000  0.4770550000000  0.5644970000000 1.0
C      1  0.5252930000000  0.5147530000000  0.4357410000000 1.0
C      1  0.5123960000000  0.4493810000000  0.4099780000000 1.0
C      1  0.5368020000000  0.5348430000000  0.6200480000000 1.0
C      1  0.5211130000000  0.4512240000000  0.5948830000000 1.0
C      1  0.5195180000000  0.5566130000000  0.4044570000000 1.0
C      1  0.5871060000000  0.4655220000000  0.5494270000000 1.0
C      1  0.5932570000000  0.5320000000000  0.4594570000000 1.0
C      1  0.5963970000000  0.4466790000000  0.4662500000000 1.0
C      1  0.5894060000000  0.5394700000000  0.5379830000000 1.0
C      1  0.5755370000000  0.4832650000000  0.5253510000000 1.0
C      1  0.5627210000000  0.5208660000000  0.4694620000000 1.0
C      1  0.5722850000000  0.4704200000000  0.4696650000000 1.0
C      1  0.5657920000000  0.5224400000000  0.5296710000000 1.0
C      1  0.4897510000000  0.4262560000000  0.5565070000000 1.0
C      1  0.4685220000000  0.5732550000000  0.4555300000000 1.0
C      1  0.4814630000000  0.4367500000000  0.4549880000000 1.0
C      1  0.4832170000000  0.5687160000000  0.5437610000000 1.0
C      1  0.5144700000000  0.5619490000000  0.5563460000000 1.0
C      1  0.5104630000000  0.4315960000000  0.4379850000000 1.0
C      1  0.5055340000000  0.5747500000000  0.4219400000000 1.0
C      1  0.5155450000000  0.4431460000000  0.5635240000000 1.0
C      1  0.5325920000000  0.5930530000000  0.4633630000000 1.0
C      1  0.5410760000000  0.3920620000000  0.5067620000000 1.0
C      1  0.5388200000000  0.5988410000000  0.5263160000000 1.0
C      1  0.5362870000000  0.3998950000000  0.4740180000000 1.0
C      1  0.4555830000000  0.5252250000000  0.5214650000000 1.0
C      1  0.4533630000000  0.4709680000000  0.4815210000000 1.0
C      1  0.4557890000000  0.5264480000000  0.4812240000000 1.0
C      1  0.4613850000000  0.4707780000000  0.5213140000000 1.0
C      1  0.5248480000000  0.4643390000000  0.5116010000000 1.0
C      1  0.5157190000000  0.5483730000000  0.4803890000000 1.0
C      1  0.5203800000000  0.4574820000000  0.4809920000000 1.0
C      1  0.5173590000000  0.5500850000000  0.5104210000000 1.0
C      1  0.5332920000000  0.5126020000000  0.5314160000000 1.0
C      1  0.5435700000000  0.4609570000000  0.4605260000000 1.0
C      1  0.5372170000000  0.5354780000000  0.4599390000000 1.0
C      1  0.5455330000000  0.4844540000000  0.5229220000000 1.0
C      1  0.5699410000000  0.5475740000000  0.4406360000000 1.0
C      1  0.5627730000000  0.4484270000000  0.5643720000000 1.0
C      1  0.5636480000000  0.5523440000000  0.5655310000000 1.0
C      1  0.5745750000000  0.4428450000000  0.4411050000000 1.0
C      1  0.4598820000000  0.5009450000000  0.5656770000000 1.0
C      1  0.4591990000000  0.5007260000000  0.4385800000000 1.0
C      1  0.5682650000000  0.4973790000000  0.4106530000000 1.0
C      1  0.5574520000000  0.5001290000000  0.5919690000000 1.0
C      1  0.4599010000000  0.6012740000000  0.5108150000000 1.0
C      1  0.4509170000000  0.4002830000000  0.5029190000000 1.0
C      1  0.4259550000000  0.4988350000000  0.5669010000000 1.0
C      1  0.4255540000000  0.5015610000000  0.4336350000000 1.0
C      1  0.5082330000000  0.5010520000000  0.4023100000000 1.0
C      1  0.5057790000000  0.4970830000000  0.6058340000000 1.0
C      1  0.5721250000000  0.4964140000000  0.4500430000000 1.0
C      1  0.5660850000000  0.4991730000000  0.5538800000000 1.0
C      1  0.5704630000000  0.4398510000000  0.5030920000000 1.0
C      1  0.5759520000000  0.5569130000000  0.5047150000000 1.0
C      1  0.4075470000000  0.4271120000000  0.5013390000000 1.0
C      1  0.4211170000000  0.5778000000000  0.4898200000000 1.0
C      1  0.4883140000000  0.5020320000000  0.5770840000000 1.0
C      1  0.4902970000000  0.4953090000000  0.4306240000000 1.0
C      1  0.5421830000000  0.4397540000000  0.5190380000000 1.0
C      1  0.5464820000000  0.5478890000000  0.5180300000000 1.0
C      1  0.5068510000000  0.5052570000000  0.5487550000000 1.0
C      1  0.5050750000000  0.5021430000000  0.4600050000000 1.0
C      1  0.4185760000000  0.5000040000000  0.5335800000000 1.0
C      1  0.4176270000000  0.4985690000000  0.4668550000000 1.0
C      1  0.4486630000000  0.5715510000000  0.5067230000000 1.0
C      1  0.4365620000000  0.4215630000000  0.5094910000000 1.0
C      1  0.5243880000000  0.6011340000000  0.4953830000000 1.0
C      1  0.5112060000000  0.3847890000000  0.4922340000000 1.0
C      1  0.5870350000000  0.4687730000000  0.5001170000000 1.0
C      1  0.5941870000000  0.5323430000000  0.4991230000000 1.0
C      1  0.4038370000000  0.5609450000000  0.4828090000000 1.0
C      1  0.4057820000000  0.4545420000000  0.4891010000000 1.0
C      1  0.4332980000000  0.5416310000000  0.5017100000000 1.0
C      1  0.4352930000000  0.4554560000000  0.5057980000000 1.0
C      1  0.4813090000000  0.3991860000000  0.4996680000000 1.0
C      1  0.4918090000000  0.6095700000000  0.5024850000000 1.0
C      1  0.5591900000000  0.5122530000000  0.4980520000000 1.0
C      1  0.5263880000000  0.5026520000000  0.5003000000000 1.0
C      1  0.3912760000000  0.5032110000000  0.4963500000000 1.0
C      1  0.6425510000000  0.5146160000000  0.4772070000000 1.0
C      1  0.5886100000000  0.4996630000000  0.4913460000000 1.0
C      1  0.4249820000000  0.5006960000000  0.5000720000000 1.0
C      1  0.4589250000000  0.4984340000000  0.5007890000000 1.0
C      1  0.4924210000000  0.5044560000000  0.4999870000000 1.0
C      1  0.6177080000000  0.5152600000000  0.4866400000000 1.0
C      1  0.3657970000000  0.5027170000000  0.4939770000000 1.0
END
