TITL C-2622965-4321-627 -0.00297725822022897 125000 -1091.13388109508 0 0 195 (C1) n - 1
REM
REM in /nfs/bkarasulu/CARBON/AIRSS/Generating-Clusters/AIREBO/with-SteepDescent/Higher-Symm/SD-CG/HFTN-CG
REM
REM
REM
REM
REM
REM ./C.cell (b20cbc046b6831c77cfcea5457e17084)
REM
REM compiler GCC version 9.2.1 20190827 (Red Hat 9.2.1-1)
REM options -cpp -mtune=generic -march=x86-64 -g -O0 -fpre-include=/usr/include/finclude/math-vector-fortran.h
REM seed -867704150 270565576 754901637 1999508667 -792518653 928144452 -1062941279 -219205364 931122702 812303980 145857795 -1071940863 -2010099273 2006701014 -36679982 -1293341419 1754955659 -1223638138 1275789468 -1896674483 -590418213 2097999228 1754700919 38813068 -469955394 16691645 -1657891822 729226603 -1684587134 2056566900 -2057192097 -1348233606 871820264
REM
CELL 1.54180   50.00000   50.00000   50.00000   90.00000   90.00000   90.00000
LATT -1
SFAC C  
C      1  0.5530820000000  0.5307310000000  0.4435480000000 1.0
C      1  0.5344000000000  0.5314720000000  0.5866860000000 1.0
C      1  0.3998190000000  0.5326890000000  0.4908490000000 1.0
C      1  0.4054840000000  0.4836040000000  0.5445700000000 1.0
C      1  0.5082290000000  0.4817030000000  0.3905330000000 1.0
C      1  0.5978870000000  0.4803920000000  0.5600940000000 1.0
C      1  0.5255370000000  0.5129800000000  0.4344790000000 1.0
C      1  0.5272800000000  0.5127750000000  0.5619050000000 1.0
C      1  0.4258630000000  0.5128270000000  0.4960730000000 1.0
C      1  0.5205620000000  0.6105950000000  0.5217110000000 1.0
C      1  0.4667630000000  0.6146820000000  0.5040340000000 1.0
C      1  0.5118780000000  0.6199650000000  0.4680350000000 1.0
C      1  0.4523690000000  0.6118870000000  0.4738690000000 1.0
C      1  0.5420550000000  0.6070090000000  0.4751690000000 1.0
C      1  0.5083650000000  0.6142080000000  0.5521700000000 1.0
C      1  0.3718330000000  0.5125740000000  0.4970220000000 1.0
C      1  0.5582320000000  0.5183000000000  0.4123110000000 1.0
C      1  0.5554400000000  0.5132780000000  0.5976900000000 1.0
C      1  0.4039410000000  0.5490380000000  0.4613150000000 1.0
C      1  0.5819190000000  0.5476440000000  0.4498100000000 1.0
C      1  0.5082130000000  0.5470400000000  0.5987810000000 1.0
C      1  0.4798030000000  0.5746840000000  0.5254090000000 1.0
C      1  0.4904410000000  0.5743240000000  0.4748580000000 1.0
C      1  0.5039360000000  0.5674700000000  0.5024270000000 1.0
C      1  0.5545700000000  0.5789760000000  0.5653030000000 1.0
C      1  0.4218320000000  0.5870990000000  0.5094930000000 1.0
C      1  0.5293340000000  0.5833320000000  0.4245820000000 1.0
C      1  0.5080240000000  0.5233050000000  0.5168960000000 1.0
C      1  0.4813360000000  0.5188970000000  0.5003970000000 1.0
C      1  0.5152210000000  0.5165450000000  0.4747710000000 1.0
C      1  0.5330180000000  0.3926360000000  0.4933110000000 1.0
C      1  0.4969860000000  0.3931760000000  0.5276020000000 1.0
C      1  0.4810090000000  0.3910010000000  0.4815630000000 1.0
C      1  0.5989850000000  0.4984260000000  0.5859300000000 1.0
C      1  0.3905410000000  0.4970180000000  0.5207730000000 1.0
C      1  0.5372470000000  0.4936420000000  0.3891260000000 1.0
C      1  0.4001010000000  0.5251490000000  0.4373860000000 1.0
C      1  0.6066580000000  0.5255820000000  0.4502080000000 1.0
C      1  0.4914680000000  0.5252680000000  0.6168510000000 1.0
C      1  0.5325170000000  0.5504380000000  0.4953120000000 1.0
C      1  0.4720010000000  0.5493030000000  0.5409000000000 1.0
C      1  0.4764270000000  0.5506150000000  0.4612770000000 1.0
C      1  0.5115120000000  0.5894740000000  0.4528910000000 1.0
C      1  0.5289020000000  0.5798530000000  0.5219210000000 1.0
C      1  0.4507980000000  0.5921770000000  0.5219880000000 1.0
C      1  0.5400300000000  0.5261580000000  0.5178980000000 1.0
C      1  0.4600180000000  0.5285890000000  0.5227270000000 1.0
C      1  0.4940030000000  0.5258040000000  0.4552410000000 1.0
C      1  0.5671530000000  0.5694640000000  0.4998940000000 1.0
C      1  0.4747690000000  0.5787420000000  0.5677100000000 1.0
C      1  0.4609190000000  0.5745770000000  0.4337330000000 1.0
C      1  0.4713290000000  0.4617070000000  0.4738520000000 1.0
C      1  0.5336070000000  0.4667740000000  0.4867520000000 1.0
C      1  0.4914500000000  0.4703530000000  0.5337820000000 1.0
C      1  0.4426900000000  0.5611110000000  0.4876470000000 1.0
C      1  0.5282870000000  0.5601560000000  0.4568470000000 1.0
C      1  0.5220400000000  0.5617020000000  0.5498460000000 1.0
C      1  0.4865800000000  0.5557380000000  0.4096440000000 1.0
C      1  0.5796910000000  0.5487020000000  0.5316830000000 1.0
C      1  0.4282860000000  0.5614060000000  0.5565520000000 1.0
C      1  0.5758750000000  0.4208790000000  0.5466070000000 1.0
C      1  0.4290420000000  0.4192860000000  0.5488920000000 1.0
C      1  0.4923930000000  0.4173330000000  0.4100420000000 1.0
C      1  0.4142770000000  0.5390410000000  0.5389920000000 1.0
C      1  0.5091880000000  0.5339640000000  0.4030830000000 1.0
C      1  0.5770400000000  0.5299570000000  0.5565400000000 1.0
C      1  0.4582950000000  0.5162560000000  0.4084180000000 1.0
C      1  0.6082110000000  0.5097370000000  0.5103970000000 1.0
C      1  0.4387090000000  0.5176350000000  0.5820420000000 1.0
C      1  0.4874790000000  0.6069010000000  0.5269640000000 1.0
C      1  0.4844160000000  0.6066960000000  0.4765700000000 1.0
C      1  0.5280390000000  0.6250850000000  0.4974780000000 1.0
C      1  0.5704320000000  0.4792060000000  0.5400440000000 1.0
C      1  0.4394500000000  0.4846550000000  0.5432740000000 1.0
C      1  0.4910600000000  0.4770460000000  0.4182820000000 1.0
C      1  0.4164820000000  0.4502610000000  0.4286530000000 1.0
C      1  0.5993390000000  0.4483260000000  0.4562860000000 1.0
C      1  0.4873640000000  0.4509340000000  0.6025440000000 1.0
C      1  0.4333020000000  0.5386060000000  0.5118740000000 1.0
C      1  0.5133320000000  0.5422170000000  0.4358070000000 1.0
C      1  0.5449800000000  0.5367080000000  0.5474240000000 1.0
C      1  0.4708520000000  0.4294820000000  0.5504690000000 1.0
C      1  0.4690380000000  0.4236390000000  0.4449100000000 1.0
C      1  0.5676530000000  0.4341540000000  0.4981090000000 1.0
C      1  0.4436030000000  0.4855830000000  0.4083900000000 1.0
C      1  0.6024900000000  0.4796890000000  0.4955030000000 1.0
C      1  0.4484950000000  0.4876420000000  0.5925460000000 1.0
C      1  0.4221860000000  0.4842970000000  0.4682950000000 1.0
C      1  0.5669670000000  0.4875440000000  0.4422980000000 1.0
C      1  0.5144010000000  0.4851970000000  0.5876950000000 1.0
C      1  0.4940250000000  0.4404150000000  0.4338580000000 1.0
C      1  0.5607060000000  0.4392520000000  0.5251060000000 1.0
C      1  0.4469580000000  0.4426730000000  0.5342410000000 1.0
C      1  0.4327630000000  0.5271820000000  0.4451470000000 1.0
C      1  0.5876240000000  0.5197290000000  0.4777680000000 1.0
C      1  0.4816050000000  0.5215870000000  0.5834610000000 1.0
C      1  0.5089520000000  0.3935700000000  0.4691250000000 1.0
C      1  0.5268640000000  0.3917920000000  0.5211710000000 1.0
C      1  0.4733420000000  0.3901020000000  0.5104920000000 1.0
C      1  0.5781290000000  0.4523160000000  0.5594270000000 1.0
C      1  0.4174940000000  0.4517870000000  0.5451070000000 1.0
C      1  0.5005850000000  0.4499230000000  0.4018760000000 1.0
C      1  0.4637690000000  0.4360320000000  0.4081280000000 1.0
C      1  0.6002140000000  0.4375660000000  0.5297040000000 1.0
C      1  0.4406890000000  0.4397760000000  0.5734530000000 1.0
C      1  0.4748570000000  0.5023160000000  0.4539840000000 1.0
C      1  0.5562720000000  0.4984250000000  0.5157150000000 1.0
C      1  0.4669670000000  0.5016810000000  0.5376980000000 1.0
C      1  0.4938470000000  0.5075230000000  0.5583080000000 1.0
C      1  0.4447260000000  0.5097720000000  0.4679810000000 1.0
C      1  0.5630760000000  0.5056410000000  0.4857440000000 1.0
C      1  0.4448870000000  0.4046670000000  0.5224180000000 1.0
C      1  0.5096580000000  0.4038320000000  0.4361310000000 1.0
C      1  0.5471420000000  0.4042200000000  0.5388380000000 1.0
C      1  0.4732660000000  0.4496580000000  0.5747260000000 1.0
C      1  0.4442430000000  0.4407200000000  0.4355710000000 1.0
C      1  0.5805330000000  0.4568910000000  0.4828080000000 1.0
C      1  0.6092880000000  0.4761530000000  0.4634820000000 1.0
C      1  0.4708720000000  0.4777710000000  0.6076250000000 1.0
C      1  0.4184950000000  0.4777280000000  0.4197910000000 1.0
C      1  0.5620900000000  0.4851400000000  0.4094640000000 1.0
C      1  0.5446620000000  0.4880000000000  0.6009690000000 1.0
C      1  0.3947380000000  0.4892030000000  0.4877880000000 1.0
C      1  0.4573920000000  0.4274170000000  0.4912700000000 1.0
C      1  0.5274640000000  0.4220160000000  0.4669490000000 1.0
C      1  0.5178510000000  0.4301770000000  0.5467020000000 1.0
C      1  0.5339560000000  0.4769420000000  0.5169040000000 1.0
C      1  0.4668290000000  0.4762390000000  0.5157570000000 1.0
C      1  0.4946660000000  0.4767420000000  0.4579960000000 1.0
C      1  0.3987120000000  0.4439070000000  0.4494190000000 1.0
C      1  0.5878400000000  0.4415760000000  0.4326540000000 1.0
C      1  0.5151730000000  0.4473040000000  0.5996670000000 1.0
C      1  0.5295850000000  0.4607930000000  0.5694870000000 1.0
C      1  0.4231220000000  0.4617600000000  0.4937470000000 1.0
C      1  0.5420090000000  0.4649480000000  0.4375260000000 1.0
C      1  0.5978220000000  0.5080850000000  0.5412480000000 1.0
C      1  0.4164270000000  0.5125820000000  0.5587360000000 1.0
C      1  0.4891790000000  0.5094390000000  0.3958890000000 1.0
C      1  0.4633540000000  0.4660950000000  0.4097430000000 1.0
C      1  0.5926840000000  0.4627730000000  0.5202620000000 1.0
C      1  0.4395560000000  0.4707850000000  0.5720530000000 1.0
C      1  0.5375630000000  0.4544650000000  0.5370270000000 1.0
C      1  0.4494830000000  0.4537060000000  0.5075860000000 1.0
C      1  0.5155550000000  0.4502950000000  0.4523040000000 1.0
C      1  0.4106880000000  0.5648860000000  0.4919390000000 1.0
C      1  0.5546470000000  0.5640920000000  0.4370330000000 1.0
C      1  0.5326210000000  0.5639010000000  0.5819460000000 1.0
C      1  0.4776400000000  0.5550570000000  0.5879680000000 1.0
C      1  0.4341510000000  0.5590040000000  0.4485740000000 1.0
C      1  0.5889510000000  0.5533440000000  0.4827200000000 1.0
C      1  0.4512430000000  0.5816540000000  0.5524810000000 1.0
C      1  0.4934790000000  0.5820250000000  0.4250390000000 1.0
C      1  0.5598690000000  0.5729500000000  0.5329740000000 1.0
C      1  0.4769820000000  0.4897200000000  0.4914070000000 1.0
C      1  0.5102890000000  0.4884910000000  0.4858460000000 1.0
C      1  0.5068040000000  0.4919840000000  0.5193190000000 1.0
C      1  0.5743940000000  0.4574820000000  0.4075040000000 1.0
C      1  0.5440700000000  0.4587740000000  0.6064840000000 1.0
C      1  0.3881940000000  0.4621550000000  0.4740830000000 1.0
C      1  0.4666710000000  0.5412700000000  0.4300010000000 1.0
C      1  0.5938270000000  0.5395840000000  0.5117510000000 1.0
C      1  0.4534010000000  0.5449450000000  0.5680660000000 1.0
C      1  0.5962940000000  0.4953930000000  0.4473370000000 1.0
C      1  0.4945700000000  0.4942090000000  0.6092260000000 1.0
C      1  0.4094070000000  0.4943500000000  0.4402450000000 1.0
C      1  0.4656930000000  0.4102330000000  0.4687180000000 1.0
C      1  0.5539710000000  0.4138030000000  0.4856480000000 1.0
C      1  0.4927310000000  0.4138200000000  0.5456360000000 1.0
C      1  0.5442870000000  0.5785000000000  0.4801410000000 1.0
C      1  0.4998990000000  0.5859670000000  0.5586970000000 1.0
C      1  0.4485940000000  0.5834000000000  0.4641710000000 1.0
C      1  0.5434520000000  0.5263870000000  0.4748550000000 1.0
C      1  0.4999620000000  0.5374970000000  0.5434480000000 1.0
C      1  0.4609500000000  0.5351230000000  0.4832940000000 1.0
C      1  0.5173670000000  0.4859110000000  0.4344460000000 1.0
C      1  0.5444830000000  0.4880520000000  0.5588320000000 1.0
C      1  0.4281140000000  0.4872220000000  0.5120530000000 1.0
C      1  0.4456420000000  0.4614620000000  0.4590760000000 1.0
C      1  0.5589480000000  0.4763380000000  0.4726120000000 1.0
C      1  0.4924180000000  0.4740630000000  0.5642540000000 1.0
C      1  0.4250640000000  0.5210290000000  0.4138220000000 1.0
C      1  0.6211030000000  0.5139720000000  0.4792080000000 1.0
C      1  0.4585730000000  0.5237710000000  0.6083830000000 1.0
C      1  0.4273290000000  0.4211390000000  0.5007300000000 1.0
C      1  0.5384290000000  0.4159230000000  0.4357470000000 1.0
C      1  0.5409830000000  0.4198180000000  0.5661200000000 1.0
C      1  0.5564620000000  0.4429080000000  0.5801640000000 1.0
C      1  0.4080090000000  0.4358630000000  0.4813420000000 1.0
C      1  0.5552570000000  0.4372200000000  0.4257520000000 1.0
C      1  0.5020980000000  0.4445080000000  0.5219390000000 1.0
C      1  0.4850770000000  0.4423050000000  0.4935640000000 1.0
C      1  0.5168220000000  0.4408740000000  0.4916350000000 1.0
C      1  0.5799090000000  0.5180900000000  0.5853140000000 1.0
C      1  0.3876220000000  0.5308460000000  0.5225390000000 1.0
C      1  0.5359450000000  0.5248730000000  0.3918190000000 1.0
END
