TITL C-2622958-629-118 -0.00396945300173633 125000 -935.189257931322 0 0 176 (C1) n - 1
REM
REM in /nfs/bkarasulu/CARBON/AIRSS/Generating-Clusters/AIREBO/with-SteepDescent/Higher-Symm/SD-CG/HFTN-CG
REM
REM
REM
REM
REM
REM ./C.cell (b20cbc046b6831c77cfcea5457e17084)
REM
REM compiler GCC version 9.2.1 20190827 (Red Hat 9.2.1-1)
REM options -cpp -mtune=generic -march=x86-64 -g -O0 -fpre-include=/usr/include/finclude/math-vector-fortran.h
REM seed -889793431 673693099 -410458306 -1578710805 1488154104 -2130916301 -627386782 604846303 1475917723 -791927493 1440641503 776589181 107910716 -1795057315 507607664 809126614 1026716687 -1183841096 606268468 -771547978 -1637979651 464679686 1697355120 -523356003 7628647 -322997824 -1904902341 1214191706 425679886 383174036 1400735091 698230508 1501835014
REM
CELL 1.54180   50.00000   50.00000   50.00000   90.00000   90.00000   90.00000
LATT -1
SFAC C  
C      1  0.4880810000000  0.5351330000000  0.4930960000000 1.0
C      1  0.4670940000000  0.5202400000000  0.4759780000000 1.0
C      1  0.4677180000000  0.4890030000000  0.4839280000000 1.0
C      1  0.4929710000000  0.4668130000000  0.4788300000000 1.0
C      1  0.5219780000000  0.4817310000000  0.4868190000000 1.0
C      1  0.5362340000000  0.5052460000000  0.4782930000000 1.0
C      1  0.5162170000000  0.5294280000000  0.4792930000000 1.0
C      1  0.4604960000000  0.4887490000000  0.5175730000000 1.0
C      1  0.4813810000000  0.4628460000000  0.5105720000000 1.0
C      1  0.5094550000000  0.4696980000000  0.5160490000000 1.0
C      1  0.5313190000000  0.4923050000000  0.5242020000000 1.0
C      1  0.5198760000000  0.5198520000000  0.5118920000000 1.0
C      1  0.4934990000000  0.5291260000000  0.5261210000000 1.0
C      1  0.4637480000000  0.5201990000000  0.5206430000000 1.0
C      1  0.4170210000000  0.4561400000000  0.5231580000000 1.0
C      1  0.4812920000000  0.4081630000000  0.5240210000000 1.0
C      1  0.5626390000000  0.4210500000000  0.5241210000000 1.0
C      1  0.5740640000000  0.4925410000000  0.5056070000000 1.0
C      1  0.5585300000000  0.5663580000000  0.5136130000000 1.0
C      1  0.4861630000000  0.5945940000000  0.5262320000000 1.0
C      1  0.3962350000000  0.5331180000000  0.5353050000000 1.0
C      1  0.4582180000000  0.4768060000000  0.3903370000000 1.0
C      1  0.4840310000000  0.4338770000000  0.3975910000000 1.0
C      1  0.5363570000000  0.4441110000000  0.3938000000000 1.0
C      1  0.5573040000000  0.4950130000000  0.3986990000000 1.0
C      1  0.5424280000000  0.5413100000000  0.4004170000000 1.0
C      1  0.4955630000000  0.5612700000000  0.4016870000000 1.0
C      1  0.4489030000000  0.5373170000000  0.4011930000000 1.0
C      1  0.4875380000000  0.5649830000000  0.5095150000000 1.0
C      1  0.4353380000000  0.5124320000000  0.4850820000000 1.0
C      1  0.4443700000000  0.4518990000000  0.4859320000000 1.0
C      1  0.5099140000000  0.4372430000000  0.4790650000000 1.0
C      1  0.5407090000000  0.4572530000000  0.4947210000000 1.0
C      1  0.5567330000000  0.5132570000000  0.4985470000000 1.0
C      1  0.5248820000000  0.5582640000000  0.4846660000000 1.0
C      1  0.4579180000000  0.4323500000000  0.5655190000000 1.0
C      1  0.5267550000000  0.4283630000000  0.5638270000000 1.0
C      1  0.5747300000000  0.4794610000000  0.5543990000000 1.0
C      1  0.5717550000000  0.5554110000000  0.5654090000000 1.0
C      1  0.5099480000000  0.5824790000000  0.5643040000000 1.0
C      1  0.4358820000000  0.5530090000000  0.5621030000000 1.0
C      1  0.4185260000000  0.4892710000000  0.5662720000000 1.0
C      1  0.5839790000000  0.4577790000000  0.4596080000000 1.0
C      1  0.5863290000000  0.5419020000000  0.4562270000000 1.0
C      1  0.5227990000000  0.5999560000000  0.4572480000000 1.0
C      1  0.4369250000000  0.5765370000000  0.4616110000000 1.0
C      1  0.4110560000000  0.4964060000000  0.4580000000000 1.0
C      1  0.4509870000000  0.4218120000000  0.4591340000000 1.0
C      1  0.5286620000000  0.4060410000000  0.4571390000000 1.0
C      1  0.5167600000000  0.4391630000000  0.5936500000000 1.0
C      1  0.5573900000000  0.4766900000000  0.5831300000000 1.0
C      1  0.5570430000000  0.5337570000000  0.5871090000000 1.0
C      1  0.5100040000000  0.5642920000000  0.5909030000000 1.0
C      1  0.4569830000000  0.5525590000000  0.5881420000000 1.0
C      1  0.4327640000000  0.4969750000000  0.5961140000000 1.0
C      1  0.4605190000000  0.4468200000000  0.5952240000000 1.0
C      1  0.4573440000000  0.5091190000000  0.5583720000000 1.0
C      1  0.4690010000000  0.4814640000000  0.5496840000000 1.0
C      1  0.4956790000000  0.4761400000000  0.5651830000000 1.0
C      1  0.5167930000000  0.4635240000000  0.5476450000000 1.0
C      1  0.5287410000000  0.5022300000000  0.5532050000000 1.0
C      1  0.5221830000000  0.5321190000000  0.5535790000000 1.0
C      1  0.4909390000000  0.5383090000000  0.5565240000000 1.0
C      1  0.4614470000000  0.5515220000000  0.5178730000000 1.0
C      1  0.4292600000000  0.5015860000000  0.5135570000000 1.0
C      1  0.4570390000000  0.4443360000000  0.5130620000000 1.0
C      1  0.5222340000000  0.4314880000000  0.5070470000000 1.0
C      1  0.5572100000000  0.4709140000000  0.5188160000000 1.0
C      1  0.5472170000000  0.5370570000000  0.5181010000000 1.0
C      1  0.5183910000000  0.5643660000000  0.5134950000000 1.0
C      1  0.5698630000000  0.4976880000000  0.4580690000000 1.0
C      1  0.5442650000000  0.5663900000000  0.4597110000000 1.0
C      1  0.4775360000000  0.5785530000000  0.4576730000000 1.0
C      1  0.4271780000000  0.5326200000000  0.4588720000000 1.0
C      1  0.4307690000000  0.4572980000000  0.4547060000000 1.0
C      1  0.4910980000000  0.4195710000000  0.4572170000000 1.0
C      1  0.5643880000000  0.4317470000000  0.4515340000000 1.0
C      1  0.5425690000000  0.5142380000000  0.4471540000000 1.0
C      1  0.5060450000000  0.5297020000000  0.4491930000000 1.0
C      1  0.4801460000000  0.5464690000000  0.4491320000000 1.0
C      1  0.4699490000000  0.5143200000000  0.4428200000000 1.0
C      1  0.4973060000000  0.4997150000000  0.4411020000000 1.0
C      1  0.4992940000000  0.4717510000000  0.4457850000000 1.0
C      1  0.5299940000000  0.4644100000000  0.4445450000000 1.0
C      1  0.5974140000000  0.5399450000000  0.4883510000000 1.0
C      1  0.5244140000000  0.6037330000000  0.4910860000000 1.0
C      1  0.4383890000000  0.5859850000000  0.4942440000000 1.0
C      1  0.3981500000000  0.4975980000000  0.4879410000000 1.0
C      1  0.4389420000000  0.4125010000000  0.4882640000000 1.0
C      1  0.5289140000000  0.3966340000000  0.4878490000000 1.0
C      1  0.5966910000000  0.4477100000000  0.4890860000000 1.0
C      1  0.5374230000000  0.4090370000000  0.5400360000000 1.0
C      1  0.5941190000000  0.4648580000000  0.5392730000000 1.0
C      1  0.5808110000000  0.5597180000000  0.5350450000000 1.0
C      1  0.5116190000000  0.6018910000000  0.5405300000000 1.0
C      1  0.4141430000000  0.5575230000000  0.5400980000000 1.0
C      1  0.4027170000000  0.4811100000000  0.5398300000000 1.0
C      1  0.4540170000000  0.4148500000000  0.5398030000000 1.0
C      1  0.4170590000000  0.4364130000000  0.4777770000000 1.0
C      1  0.4957150000000  0.3999680000000  0.4808290000000 1.0
C      1  0.5775650000000  0.4221180000000  0.4778070000000 1.0
C      1  0.5947290000000  0.5086020000000  0.4754130000000 1.0
C      1  0.5523680000000  0.5890100000000  0.4816800000000 1.0
C      1  0.4688660000000  0.5931530000000  0.4823080000000 1.0
C      1  0.4009740000000  0.5308840000000  0.4804700000000 1.0
C      1  0.5545110000000  0.4706310000000  0.4666360000000 1.0
C      1  0.5558150000000  0.5373320000000  0.4648080000000 1.0
C      1  0.5065070000000  0.5762620000000  0.4686490000000 1.0
C      1  0.4522370000000  0.5490580000000  0.4678600000000 1.0
C      1  0.4413910000000  0.4859260000000  0.4658280000000 1.0
C      1  0.4716860000000  0.4445720000000  0.4684850000000 1.0
C      1  0.5339750000000  0.4376860000000  0.4585860000000 1.0
C      1  0.5298190000000  0.4943000000000  0.4043510000000 1.0
C      1  0.5228480000000  0.5221660000000  0.4205880000000 1.0
C      1  0.4958450000000  0.5341780000000  0.4045560000000 1.0
C      1  0.4714950000000  0.5222090000000  0.4036650000000 1.0
C      1  0.4662920000000  0.4943610000000  0.4164500000000 1.0
C      1  0.4899130000000  0.4587600000000  0.4157070000000 1.0
C      1  0.5214040000000  0.4669350000000  0.4130740000000 1.0
C      1  0.5734720000000  0.5062180000000  0.5753460000000 1.0
C      1  0.5420330000000  0.5642060000000  0.5793900000000 1.0
C      1  0.4797200000000  0.5752870000000  0.5770340000000 1.0
C      1  0.4332680000000  0.5275160000000  0.5844480000000 1.0
C      1  0.4409810000000  0.4679180000000  0.5798410000000 1.0
C      1  0.4877220000000  0.4309510000000  0.5818280000000 1.0
C      1  0.5493080000000  0.4438760000000  0.5840150000000 1.0
C      1  0.5528530000000  0.4405900000000  0.4222130000000 1.0
C      1  0.5734370000000  0.5027230000000  0.4249560000000 1.0
C      1  0.5423010000000  0.5586480000000  0.4287140000000 1.0
C      1  0.4817430000000  0.5777890000000  0.4252180000000 1.0
C      1  0.4296460000000  0.5393990000000  0.4268520000000 1.0
C      1  0.4301350000000  0.4786280000000  0.4281900000000 1.0
C      1  0.4955600000000  0.4206820000000  0.4261210000000 1.0
C      1  0.4393780000000  0.5736400000000  0.5259580000000 1.0
C      1  0.3976640000000  0.5068180000000  0.5205450000000 1.0
C      1  0.4300540000000  0.4248000000000  0.5189430000000 1.0
C      1  0.5139170000000  0.4004370000000  0.5181390000000 1.0
C      1  0.5817250000000  0.4473640000000  0.5181240000000 1.0
C      1  0.5997210000000  0.5392160000000  0.5223580000000 1.0
C      1  0.5371150000000  0.5919040000000  0.5203660000000 1.0
C      1  0.4502520000000  0.5663110000000  0.4319950000000 1.0
C      1  0.4171390000000  0.5078530000000  0.4296150000000 1.0
C      1  0.4629620000000  0.4311600000000  0.4317710000000 1.0
C      1  0.5286240000000  0.4167290000000  0.4254920000000 1.0
C      1  0.5707730000000  0.4689210000000  0.4302930000000 1.0
C      1  0.5687450000000  0.5370300000000  0.4275070000000 1.0
C      1  0.5154920000000  0.5799340000000  0.4306620000000 1.0
C      1  0.4751130000000  0.5242290000000  0.5831250000000 1.0
C      1  0.4643050000000  0.4996440000000  0.6012550000000 1.0
C      1  0.4779100000000  0.4742990000000  0.5942860000000 1.0
C      1  0.5094990000000  0.4697760000000  0.5953940000000 1.0
C      1  0.5294450000000  0.4896170000000  0.5818530000000 1.0
C      1  0.5285990000000  0.5192470000000  0.5910210000000 1.0
C      1  0.5061630000000  0.5338080000000  0.5931620000000 1.0
C      1  0.4537030000000  0.4550270000000  0.5427950000000 1.0
C      1  0.5080010000000  0.4352690000000  0.5363040000000 1.0
C      1  0.5472020000000  0.4604960000000  0.5481840000000 1.0
C      1  0.5543370000000  0.5324070000000  0.5474240000000 1.0
C      1  0.5245980000000  0.5619280000000  0.5435900000000 1.0
C      1  0.4641230000000  0.5521040000000  0.5488240000000 1.0
C      1  0.4285340000000  0.5118850000000  0.5454290000000 1.0
C      1  0.4704380000000  0.4015500000000  0.4957460000000 1.0
C      1  0.5601600000000  0.4076350000000  0.4960090000000 1.0
C      1  0.5956350000000  0.4812070000000  0.4898480000000 1.0
C      1  0.5747240000000  0.5651340000000  0.4853840000000 1.0
C      1  0.4908190000000  0.6026290000000  0.4967840000000 1.0
C      1  0.4191970000000  0.5588430000000  0.4870860000000 1.0
C      1  0.4060630000000  0.4647010000000  0.4932830000000 1.0
C      1  0.5652240000000  0.4327460000000  0.5560810000000 1.0
C      1  0.5853890000000  0.5223150000000  0.5477660000000 1.0
C      1  0.5479170000000  0.5845520000000  0.5526470000000 1.0
C      1  0.4644550000000  0.5850170000000  0.5472390000000 1.0
C      1  0.4055900000000  0.5275770000000  0.5650290000000 1.0
C      1  0.4230880000000  0.4510950000000  0.5562360000000 1.0
C      1  0.4911050000000  0.4127930000000  0.5554330000000 1.0
C      1  0.4594520000000  0.4629550000000  0.4275360000000 1.0
END
