TITL C-2622963-3633-527 0.00195996658268757 125000 -507.826358614067 0 0 88 (C1) n - 1
REM
REM in /nfs/bkarasulu/CARBON/AIRSS/Generating-Clusters/AIREBO/with-SteepDescent/Higher-Symm/SD-CG/HFTN-CG
REM
REM
REM
REM
REM
REM ./C.cell (b20cbc046b6831c77cfcea5457e17084)
REM
REM compiler GCC version 9.2.1 20190827 (Red Hat 9.2.1-1)
REM options -cpp -mtune=generic -march=x86-64 -g -O0 -fpre-include=/usr/include/finclude/math-vector-fortran.h
REM seed -2093794612 464277823 -1811952478 -1849254321 1060521639 1143331308 -1539306617 -661035854 -923361707 -1668170980 659738002 872486284 1326174682 1411893110 -271924717 -1358919566 -1927482995 -1017089240 -1042391004 -1693357699 -884291049 -203911156 996582686 -1198317449 325224953 -897025568 377066609 721656945 -1804894651 -43214779 872097799 -1427547706 434576590
REM
CELL 1.54180   50.00000   50.00000   50.00000   90.00000   90.00000   90.00000
LATT -1
SFAC C  
C      1  0.5377240000000  0.4353660000000  0.5318640000000 1.0
C      1  0.5125330000000  0.4393330000000  0.5429230000000 1.0
C      1  0.4882250000000  0.4279170000000  0.5340800000000 1.0
C      1  0.4629520000000  0.4411820000000  0.5338010000000 1.0
C      1  0.4486970000000  0.4436280000000  0.5097110000000 1.0
C      1  0.4592900000000  0.4357020000000  0.4823040000000 1.0
C      1  0.4778640000000  0.4234350000000  0.4663640000000 1.0
C      1  0.5027510000000  0.4224340000000  0.4533620000000 1.0
C      1  0.5252550000000  0.4103650000000  0.4648230000000 1.0
C      1  0.5426630000000  0.4222000000000  0.4832920000000 1.0
C      1  0.5407460000000  0.4169280000000  0.5106730000000 1.0
C      1  0.4100270000000  0.4841570000000  0.5110210000000 1.0
C      1  0.4138720000000  0.4829390000000  0.4688490000000 1.0
C      1  0.4594450000000  0.4635580000000  0.4180400000000 1.0
C      1  0.5086770000000  0.4670460000000  0.4079210000000 1.0
C      1  0.5527880000000  0.4736420000000  0.4267010000000 1.0
C      1  0.5675290000000  0.4779930000000  0.4635750000000 1.0
C      1  0.5919240000000  0.4839900000000  0.4945820000000 1.0
C      1  0.5693450000000  0.4686880000000  0.5552040000000 1.0
C      1  0.5310060000000  0.4747730000000  0.5801540000000 1.0
C      1  0.4760200000000  0.4802640000000  0.5950340000000 1.0
C      1  0.4376490000000  0.4765310000000  0.5595930000000 1.0
C      1  0.4577090000000  0.4565100000000  0.5572790000000 1.0
C      1  0.4244540000000  0.4613640000000  0.5051830000000 1.0
C      1  0.4387180000000  0.4607200000000  0.4751310000000 1.0
C      1  0.4811200000000  0.4605210000000  0.4358810000000 1.0
C      1  0.5094000000000  0.4461690000000  0.4348010000000 1.0
C      1  0.5351870000000  0.4601060000000  0.4488990000000 1.0
C      1  0.5532820000000  0.4494930000000  0.4755210000000 1.0
C      1  0.5689600000000  0.4620710000000  0.5016680000000 1.0
C      1  0.5593390000000  0.4536570000000  0.5329190000000 1.0
C      1  0.5072070000000  0.4617930000000  0.5618890000000 1.0
C      1  0.4796520000000  0.4605430000000  0.5749080000000 1.0
C      1  0.5088120000000  0.5663050000000  0.5111750000000 1.0
C      1  0.5341950000000  0.5694850000000  0.5669020000000 1.0
C      1  0.5124200000000  0.5686520000000  0.5831920000000 1.0
C      1  0.4564270000000  0.5732550000000  0.5678070000000 1.0
C      1  0.4390230000000  0.5694640000000  0.5468140000000 1.0
C      1  0.4244970000000  0.5824040000000  0.4930140000000 1.0
C      1  0.4516070000000  0.5904290000000  0.4835720000000 1.0
C      1  0.4734070000000  0.5460140000000  0.4370060000000 1.0
C      1  0.5158420000000  0.5908510000000  0.4421030000000 1.0
C      1  0.5623680000000  0.5700030000000  0.4623650000000 1.0
C      1  0.5709480000000  0.5734710000000  0.4882870000000 1.0
C      1  0.5499610000000  0.5492110000000  0.4939700000000 1.0
C      1  0.5313620000000  0.5528230000000  0.5170910000000 1.0
C      1  0.5346820000000  0.5464090000000  0.5463920000000 1.0
C      1  0.5025650000000  0.5446580000000  0.5635220000000 1.0
C      1  0.4719860000000  0.5485300000000  0.5552090000000 1.0
C      1  0.4479210000000  0.5477860000000  0.5274620000000 1.0
C      1  0.4430050000000  0.5539750000000  0.4970950000000 1.0
C      1  0.4689360000000  0.5661630000000  0.4787760000000 1.0
C      1  0.4855590000000  0.5579400000000  0.4582460000000 1.0
C      1  0.5124860000000  0.5666840000000  0.4543170000000 1.0
C      1  0.5374700000000  0.5512800000000  0.4596230000000 1.0
C      1  0.5840080000000  0.5093750000000  0.5028090000000 1.0
C      1  0.5720110000000  0.4972740000000  0.5574250000000 1.0
C      1  0.5331820000000  0.5024220000000  0.5793530000000 1.0
C      1  0.4789350000000  0.5064760000000  0.5884800000000 1.0
C      1  0.4391670000000  0.5031780000000  0.5555020000000 1.0
C      1  0.4183720000000  0.5095820000000  0.5098530000000 1.0
C      1  0.4221560000000  0.5084980000000  0.4606320000000 1.0
C      1  0.4532190000000  0.4917480000000  0.4148860000000 1.0
C      1  0.5012890000000  0.4939640000000  0.4083240000000 1.0
C      1  0.5473960000000  0.5003100000000  0.4230160000000 1.0
C      1  0.5643120000000  0.5050870000000  0.4588560000000 1.0
C      1  0.4551410000000  0.4868670000000  0.4662300000000 1.0
C      1  0.4815650000000  0.4807320000000  0.4547400000000 1.0
C      1  0.5045060000000  0.4956420000000  0.4560830000000 1.0
C      1  0.5253590000000  0.4829710000000  0.4694750000000 1.0
C      1  0.5384780000000  0.4978990000000  0.4882890000000 1.0
C      1  0.5521340000000  0.4875980000000  0.5132250000000 1.0
C      1  0.5367770000000  0.4961050000000  0.5385910000000 1.0
C      1  0.5095890000000  0.4908510000000  0.5492830000000 1.0
C      1  0.4838100000000  0.5038070000000  0.5380620000000 1.0
C      1  0.4694940000000  0.5049340000000  0.5137190000000 1.0
C      1  0.4558700000000  0.5060010000000  0.4884900000000 1.0
C      1  0.4428170000000  0.5173280000000  0.5275200000000 1.0
C      1  0.4323110000000  0.5274450000000  0.4857260000000 1.0
C      1  0.4426530000000  0.5026670000000  0.4388040000000 1.0
C      1  0.4754780000000  0.5034860000000  0.4010150000000 1.0
C      1  0.5160570000000  0.5086080000000  0.4305200000000 1.0
C      1  0.5417720000000  0.5260740000000  0.4444480000000 1.0
C      1  0.5608610000000  0.5219220000000  0.4863480000000 1.0
C      1  0.5743390000000  0.5067330000000  0.5299370000000 1.0
C      1  0.5475730000000  0.5208590000000  0.5556220000000 1.0
C      1  0.5049250000000  0.5153990000000  0.5724090000000 1.0
C      1  0.4669500000000  0.5173500000000  0.5604390000000 1.0
END
