TITL C-2622958-629-265 -0.00321140427298579 125000 -829.070835962891 0 0 151 (C1) n - 1
REM
REM in /nfs/bkarasulu/CARBON/AIRSS/Generating-Clusters/AIREBO/with-SteepDescent/Higher-Symm/SD-CG/HFTN-CG
REM
REM
REM
REM
REM
REM ./C.cell (b20cbc046b6831c77cfcea5457e17084)
REM
REM compiler GCC version 9.2.1 20190827 (Red Hat 9.2.1-1)
REM options -cpp -mtune=generic -march=x86-64 -g -O0 -fpre-include=/usr/include/finclude/math-vector-fortran.h
REM seed 1962996043 -1997689805 -1503097887 -356672012 1752816839 -1946427804 -171298218 -2129870437 -695475753 -5579212 -355059217 1609813555 89110062 -1052526592 1734454323 1883998787 -2122868175 404991767 -376746789 -333024068 1438558215 777162923 431492804 550343594 954390693 -381326188 -521962075 -727890347 577326501 1117508851 635835304 1829328645 564467406
REM
CELL 1.54180   50.00000   50.00000   50.00000   90.00000   90.00000   90.00000
LATT -1
SFAC C  
C      1  0.5282420000000  0.5323270000000  0.5061740000000 1.0
C      1  0.5309540000000  0.5197870000000  0.4788150000000 1.0
C      1  0.5171720000000  0.4971530000000  0.4639870000000 1.0
C      1  0.5322260000000  0.4695520000000  0.4715490000000 1.0
C      1  0.5288310000000  0.4774350000000  0.5013540000000 1.0
C      1  0.5160720000000  0.4746180000000  0.5327510000000 1.0
C      1  0.5261940000000  0.5067960000000  0.5282830000000 1.0
C      1  0.5388530000000  0.5388310000000  0.5893050000000 1.0
C      1  0.5382210000000  0.5885260000000  0.5276640000000 1.0
C      1  0.5465190000000  0.5710330000000  0.4501210000000 1.0
C      1  0.5424680000000  0.4999720000000  0.4037130000000 1.0
C      1  0.5430760000000  0.4257630000000  0.4360110000000 1.0
C      1  0.5489450000000  0.4126310000000  0.5115460000000 1.0
C      1  0.5446120000000  0.4589290000000  0.5855220000000 1.0
C      1  0.4684860000000  0.4959240000000  0.5331560000000 1.0
C      1  0.4760590000000  0.5055460000000  0.4953590000000 1.0
C      1  0.4655870000000  0.5320030000000  0.5139710000000 1.0
C      1  0.4701130000000  0.5427670000000  0.4820200000000 1.0
C      1  0.4633310000000  0.4992260000000  0.4414120000000 1.0
C      1  0.4734840000000  0.4731800000000  0.4936220000000 1.0
C      1  0.4729000000000  0.4385070000000  0.5230940000000 1.0
C      1  0.4942030000000  0.4237430000000  0.4321990000000 1.0
C      1  0.5045410000000  0.3902500000000  0.5162280000000 1.0
C      1  0.4971920000000  0.4539220000000  0.5919530000000 1.0
C      1  0.4904940000000  0.5400340000000  0.5938820000000 1.0
C      1  0.4867080000000  0.5968990000000  0.5290180000000 1.0
C      1  0.4996130000000  0.5823280000000  0.4372370000000 1.0
C      1  0.4955630000000  0.5041070000000  0.3964340000000 1.0
C      1  0.4425710000000  0.4778540000000  0.5253240000000 1.0
C      1  0.4369090000000  0.5089700000000  0.4880000000000 1.0
C      1  0.4325220000000  0.5310030000000  0.5110830000000 1.0
C      1  0.4374640000000  0.5394320000000  0.4729350000000 1.0
C      1  0.4347010000000  0.5037310000000  0.4552040000000 1.0
C      1  0.4271620000000  0.4606340000000  0.4686980000000 1.0
C      1  0.4435920000000  0.4786850000000  0.4914600000000 1.0
C      1  0.4700140000000  0.5764140000000  0.4771290000000 1.0
C      1  0.4673230000000  0.5292810000000  0.4258780000000 1.0
C      1  0.4622560000000  0.4681090000000  0.4276160000000 1.0
C      1  0.4714850000000  0.4257720000000  0.4915760000000 1.0
C      1  0.4719040000000  0.4387960000000  0.5570940000000 1.0
C      1  0.4695600000000  0.5072950000000  0.5727860000000 1.0
C      1  0.4553300000000  0.5589020000000  0.5518580000000 1.0
C      1  0.4491460000000  0.4813590000000  0.5808300000000 1.0
C      1  0.4267840000000  0.5533190000000  0.5638280000000 1.0
C      1  0.4466160000000  0.5834520000000  0.5007830000000 1.0
C      1  0.4435810000000  0.5484010000000  0.4344690000000 1.0
C      1  0.4314360000000  0.4805730000000  0.4204080000000 1.0
C      1  0.4455970000000  0.4334640000000  0.4775290000000 1.0
C      1  0.4338090000000  0.4309300000000  0.5265140000000 1.0
C      1  0.5787650000000  0.4700180000000  0.4129920000000 1.0
C      1  0.5905610000000  0.4248820000000  0.4566820000000 1.0
C      1  0.5793340000000  0.4410640000000  0.5369580000000 1.0
C      1  0.5809200000000  0.4936870000000  0.5852900000000 1.0
C      1  0.5779100000000  0.5548380000000  0.5621060000000 1.0
C      1  0.5811110000000  0.5643820000000  0.4888830000000 1.0
C      1  0.5799340000000  0.5315720000000  0.4395290000000 1.0
C      1  0.4927450000000  0.4659820000000  0.4687810000000 1.0
C      1  0.4972110000000  0.4534350000000  0.5045910000000 1.0
C      1  0.4847970000000  0.4698440000000  0.5316660000000 1.0
C      1  0.4954690000000  0.5155320000000  0.5397740000000 1.0
C      1  0.4973340000000  0.5401780000000  0.5179940000000 1.0
C      1  0.4996270000000  0.5326560000000  0.4757930000000 1.0
C      1  0.4844520000000  0.4973950000000  0.4640430000000 1.0
C      1  0.4897650000000  0.4112230000000  0.5343810000000 1.0
C      1  0.4939310000000  0.4835330000000  0.5787860000000 1.0
C      1  0.4908390000000  0.5464260000000  0.5644950000000 1.0
C      1  0.4890010000000  0.5764160000000  0.5037990000000 1.0
C      1  0.4912990000000  0.5516160000000  0.4323510000000 1.0
C      1  0.4974270000000  0.4850170000000  0.4200990000000 1.0
C      1  0.4926030000000  0.4278600000000  0.4659110000000 1.0
C      1  0.5497520000000  0.5463880000000  0.5593280000000 1.0
C      1  0.5509540000000  0.5685230000000  0.5032930000000 1.0
C      1  0.5469210000000  0.5373660000000  0.4453770000000 1.0
C      1  0.5523740000000  0.4758140000000  0.4253630000000 1.0
C      1  0.5639340000000  0.4329870000000  0.4601860000000 1.0
C      1  0.5456400000000  0.4389190000000  0.5328190000000 1.0
C      1  0.5524030000000  0.4885850000000  0.5738200000000 1.0
C      1  0.4059810000000  0.5557700000000  0.5458990000000 1.0
C      1  0.4304930000000  0.5715400000000  0.4783970000000 1.0
C      1  0.4196140000000  0.5291080000000  0.4388410000000 1.0
C      1  0.4251640000000  0.4566440000000  0.4365620000000 1.0
C      1  0.4219590000000  0.4377450000000  0.5007780000000 1.0
C      1  0.4383350000000  0.4539450000000  0.5417590000000 1.0
C      1  0.4305290000000  0.5050780000000  0.5812150000000 1.0
C      1  0.5589890000000  0.4659280000000  0.4569400000000 1.0
C      1  0.5532570000000  0.4688090000000  0.5197480000000 1.0
C      1  0.5650320000000  0.4872250000000  0.5426870000000 1.0
C      1  0.5527520000000  0.5161620000000  0.5440350000000 1.0
C      1  0.5577700000000  0.5401580000000  0.5207590000000 1.0
C      1  0.5596060000000  0.5203500000000  0.4719520000000 1.0
C      1  0.5726920000000  0.4899030000000  0.4711120000000 1.0
C      1  0.5261470000000  0.5703850000000  0.4274270000000 1.0
C      1  0.5207230000000  0.4884210000000  0.3880460000000 1.0
C      1  0.5209210000000  0.4102240000000  0.4440670000000 1.0
C      1  0.5282210000000  0.4004790000000  0.5343540000000 1.0
C      1  0.5217570000000  0.4673500000000  0.6024280000000 1.0
C      1  0.5161470000000  0.5567870000000  0.5934760000000 1.0
C      1  0.5165640000000  0.6028550000000  0.5138470000000 1.0
C      1  0.4834070000000  0.5776060000000  0.5565090000000 1.0
C      1  0.4947360000000  0.5920500000000  0.4632800000000 1.0
C      1  0.4931370000000  0.5338040000000  0.4039960000000 1.0
C      1  0.4900500000000  0.4520300000000  0.4164140000000 1.0
C      1  0.4973580000000  0.4032720000000  0.4889090000000 1.0
C      1  0.4940660000000  0.4326090000000  0.5732490000000 1.0
C      1  0.4899140000000  0.5096350000000  0.5999250000000 1.0
C      1  0.5157360000000  0.4492790000000  0.4531620000000 1.0
C      1  0.5125540000000  0.4355350000000  0.5255820000000 1.0
C      1  0.5206170000000  0.4861440000000  0.5619650000000 1.0
C      1  0.5175260000000  0.5382340000000  0.5521470000000 1.0
C      1  0.5171950000000  0.5641750000000  0.5038290000000 1.0
C      1  0.5130770000000  0.5401070000000  0.4500550000000 1.0
C      1  0.5220000000000  0.4872520000000  0.4355510000000 1.0
C      1  0.5189080000000  0.4964330000000  0.6070390000000 1.0
C      1  0.5137720000000  0.5780540000000  0.5720180000000 1.0
C      1  0.5164390000000  0.5977930000000  0.4822460000000 1.0
C      1  0.5238820000000  0.5470730000000  0.4099220000000 1.0
C      1  0.5153640000000  0.4598280000000  0.3949850000000 1.0
C      1  0.5239040000000  0.4038590000000  0.4715390000000 1.0
C      1  0.5195120000000  0.4193540000000  0.5612630000000 1.0
C      1  0.5405760000000  0.5833270000000  0.4745520000000 1.0
C      1  0.5433790000000  0.5255980000000  0.4136700000000 1.0
C      1  0.5301250000000  0.4504260000000  0.4223500000000 1.0
C      1  0.5469750000000  0.4151600000000  0.4836970000000 1.0
C      1  0.5422510000000  0.4387840000000  0.5666580000000 1.0
C      1  0.5394080000000  0.5116780000000  0.5947060000000 1.0
C      1  0.5350660000000  0.5763510000000  0.5527800000000 1.0
C      1  0.6115370000000  0.4875900000000  0.4799120000000 1.0
C      1  0.6102100000000  0.4765930000000  0.5021540000000 1.0
C      1  0.5918090000000  0.4704670000000  0.5301010000000 1.0
C      1  0.5987060000000  0.5037440000000  0.5289890000000 1.0
C      1  0.5974800000000  0.5216040000000  0.5120210000000 1.0
C      1  0.5867430000000  0.5338500000000  0.4854000000000 1.0
C      1  0.5968450000000  0.5118700000000  0.4615050000000 1.0
C      1  0.3891680000000  0.5380300000000  0.4914850000000 1.0
C      1  0.4060100000000  0.5268240000000  0.4700330000000 1.0
C      1  0.4067980000000  0.4926620000000  0.4712120000000 1.0
C      1  0.4055650000000  0.4673300000000  0.4939320000000 1.0
C      1  0.4139020000000  0.4879050000000  0.5164650000000 1.0
C      1  0.4073080000000  0.5093490000000  0.5329780000000 1.0
C      1  0.4026230000000  0.5375420000000  0.5198980000000 1.0
C      1  0.4512930000000  0.4403100000000  0.4445850000000 1.0
C      1  0.4559040000000  0.4087230000000  0.5320340000000 1.0
C      1  0.4503560000000  0.4566090000000  0.5682430000000 1.0
C      1  0.4259240000000  0.5351040000000  0.5862120000000 1.0
C      1  0.4569860000000  0.5817950000000  0.5270580000000 1.0
C      1  0.4474440000000  0.5712140000000  0.4511970000000 1.0
C      1  0.4193930000000  0.5040690000000  0.4182590000000 1.0
C      1  0.4266260000000  0.5137650000000  0.5525290000000 1.0
C      1  0.5056370000000  0.4996000000000  0.5021700000000 1.0
C      1  0.5706220000000  0.4763020000000  0.4967520000000 1.0
C      1  0.4577640000000  0.5253460000000  0.5464200000000 1.0
END
