TITL C-2622960-5345-681 -2.11939975830971e-05 125000 -781.103455638398 0 0 136 (C1) n - 1
REM
REM in /nfs/bkarasulu/CARBON/AIRSS/Generating-Clusters/AIREBO/with-SteepDescent/Higher-Symm/SD-CG/HFTN-CG
REM
REM
REM
REM
REM
REM ./C.cell (b20cbc046b6831c77cfcea5457e17084)
REM
REM compiler GCC version 9.2.1 20190827 (Red Hat 9.2.1-1)
REM options -cpp -mtune=generic -march=x86-64 -g -O0 -fpre-include=/usr/include/finclude/math-vector-fortran.h
REM seed -2055828484 428314023 1126168790 -1775257852 -1893355314 -652586359 813981203 1487262051 1724125928 -697147328 355763396 -428735093 -1322830015 683725933 -1071371529 222458869 791978016 29374535 -989147401 -593905686 1618881853 1011947200 -2090134916 -1322653019 -719973240 -850647715 492180195 1124494497 1562307740 2141927240 588938483 -1944789404 1152456838
REM
CELL 1.54180   50.00000   50.00000   50.00000   90.00000   90.00000   90.00000
LATT -1
SFAC C  
C      1  0.5887530000000  0.5257490000000  0.4701700000000 1.0
C      1  0.5423590000000  0.5230020000000  0.3947390000000 1.0
C      1  0.4645740000000  0.5267050000000  0.4173320000000 1.0
C      1  0.4096370000000  0.5294270000000  0.4936110000000 1.0
C      1  0.4323690000000  0.5359420000000  0.5647190000000 1.0
C      1  0.5057830000000  0.5244920000000  0.6010430000000 1.0
C      1  0.5683760000000  0.5376460000000  0.5713020000000 1.0
C      1  0.4060730000000  0.4905900000000  0.5524250000000 1.0
C      1  0.4761850000000  0.4757080000000  0.5840270000000 1.0
C      1  0.5555320000000  0.4802440000000  0.5720010000000 1.0
C      1  0.5901160000000  0.4789840000000  0.5019460000000 1.0
C      1  0.5590720000000  0.4772350000000  0.4267260000000 1.0
C      1  0.4866570000000  0.4780780000000  0.4093990000000 1.0
C      1  0.4089330000000  0.4804780000000  0.4727340000000 1.0
C      1  0.5217900000000  0.5898760000000  0.4741250000000 1.0
C      1  0.4945620000000  0.5842050000000  0.4668410000000 1.0
C      1  0.4742380000000  0.5847200000000  0.4866190000000 1.0
C      1  0.4770170000000  0.5832240000000  0.5152150000000 1.0
C      1  0.5012260000000  0.5751790000000  0.5340290000000 1.0
C      1  0.5293280000000  0.5863730000000  0.5289350000000 1.0
C      1  0.5396310000000  0.5798670000000  0.5012900000000 1.0
C      1  0.4504320000000  0.4884020000000  0.5342850000000 1.0
C      1  0.4931040000000  0.4972950000000  0.5502900000000 1.0
C      1  0.5315890000000  0.4964190000000  0.5402760000000 1.0
C      1  0.5483440000000  0.4852220000000  0.4959400000000 1.0
C      1  0.5342540000000  0.5034740000000  0.4633500000000 1.0
C      1  0.4870220000000  0.4833890000000  0.4489920000000 1.0
C      1  0.4549170000000  0.4932800000000  0.4823120000000 1.0
C      1  0.4508820000000  0.4321590000000  0.5325370000000 1.0
C      1  0.5039310000000  0.4342810000000  0.5576950000000 1.0
C      1  0.5502270000000  0.4325780000000  0.5377260000000 1.0
C      1  0.5627360000000  0.4365770000000  0.4876500000000 1.0
C      1  0.5292540000000  0.4299390000000  0.4416700000000 1.0
C      1  0.4808140000000  0.4300140000000  0.4372870000000 1.0
C      1  0.4388540000000  0.4284120000000  0.4856550000000 1.0
C      1  0.4817130000000  0.4314920000000  0.5373570000000 1.0
C      1  0.5266110000000  0.4202600000000  0.5481440000000 1.0
C      1  0.5568830000000  0.4213190000000  0.5120740000000 1.0
C      1  0.5376030000000  0.4293160000000  0.4707230000000 1.0
C      1  0.5045410000000  0.4155470000000  0.4405230000000 1.0
C      1  0.4655530000000  0.4373230000000  0.4665810000000 1.0
C      1  0.4461320000000  0.4159230000000  0.5096610000000 1.0
C      1  0.5642880000000  0.5638060000000  0.5608050000000 1.0
C      1  0.5870890000000  0.5553570000000  0.4835230000000 1.0
C      1  0.5389600000000  0.5593520000000  0.4378930000000 1.0
C      1  0.4656690000000  0.5565460000000  0.4336010000000 1.0
C      1  0.4236050000000  0.5549670000000  0.4779310000000 1.0
C      1  0.4466780000000  0.5569110000000  0.5457650000000 1.0
C      1  0.5035200000000  0.5562490000000  0.5891060000000 1.0
C      1  0.4670310000000  0.5362780000000  0.5448110000000 1.0
C      1  0.5060340000000  0.5434220000000  0.5407400000000 1.0
C      1  0.5566140000000  0.5569880000000  0.5293110000000 1.0
C      1  0.5419530000000  0.5490570000000  0.4863990000000 1.0
C      1  0.5118110000000  0.5563800000000  0.4328310000000 1.0
C      1  0.4515820000000  0.5352630000000  0.4540840000000 1.0
C      1  0.4395890000000  0.5523870000000  0.5067420000000 1.0
C      1  0.4353310000000  0.5423870000000  0.4247560000000 1.0
C      1  0.3958100000000  0.5330270000000  0.5179500000000 1.0
C      1  0.4591630000000  0.5226550000000  0.5813290000000 1.0
C      1  0.5318110000000  0.5241010000000  0.5785900000000 1.0
C      1  0.5882280000000  0.5255690000000  0.5099790000000 1.0
C      1  0.5851610000000  0.5228560000000  0.4375560000000 1.0
C      1  0.5144670000000  0.5208430000000  0.3992810000000 1.0
C      1  0.5810780000000  0.4917880000000  0.5527550000000 1.0
C      1  0.5981060000000  0.4939770000000  0.4480880000000 1.0
C      1  0.5335470000000  0.4867570000000  0.4071100000000 1.0
C      1  0.4395430000000  0.4843980000000  0.4301850000000 1.0
C      1  0.4114540000000  0.4785780000000  0.5054970000000 1.0
C      1  0.4220580000000  0.4835000000000  0.5776600000000 1.0
C      1  0.5037570000000  0.4838340000000  0.6021910000000 1.0
C      1  0.4899310000000  0.4051380000000  0.5230390000000 1.0
C      1  0.5173220000000  0.4002310000000  0.5285680000000 1.0
C      1  0.5362200000000  0.4000070000000  0.5067240000000 1.0
C      1  0.5256250000000  0.4033550000000  0.4809260000000 1.0
C      1  0.5020990000000  0.3997820000000  0.4650390000000 1.0
C      1  0.4775540000000  0.4069890000000  0.4770120000000 1.0
C      1  0.4701420000000  0.4005770000000  0.5034470000000 1.0
C      1  0.4398540000000  0.4572170000000  0.5427640000000 1.0
C      1  0.5037500000000  0.4628260000000  0.5683870000000 1.0
C      1  0.5564730000000  0.4627080000000  0.5424500000000 1.0
C      1  0.5714590000000  0.4653300000000  0.4808930000000 1.0
C      1  0.5311040000000  0.4585470000000  0.4342660000000 1.0
C      1  0.4704550000000  0.4591890000000  0.4317700000000 1.0
C      1  0.4346510000000  0.4592440000000  0.4794030000000 1.0
C      1  0.5575970000000  0.5134780000000  0.5499430000000 1.0
C      1  0.5645200000000  0.5040820000000  0.4739770000000 1.0
C      1  0.5316800000000  0.5081170000000  0.4327840000000 1.0
C      1  0.4619990000000  0.4995670000000  0.4326080000000 1.0
C      1  0.4294440000000  0.5034670000000  0.4978770000000 1.0
C      1  0.4427020000000  0.5037680000000  0.5609310000000 1.0
C      1  0.5076120000000  0.5032600000000  0.5745500000000 1.0
C      1  0.4868580000000  0.5064710000000  0.4023830000000 1.0
C      1  0.4062280000000  0.5038330000000  0.4588620000000 1.0
C      1  0.4101370000000  0.5199570000000  0.5445640000000 1.0
C      1  0.4772500000000  0.5056950000000  0.6000410000000 1.0
C      1  0.5599990000000  0.5096690000000  0.5888380000000 1.0
C      1  0.5989000000000  0.5039600000000  0.4942270000000 1.0
C      1  0.5663750000000  0.5078350000000  0.4135220000000 1.0
C      1  0.4666940000000  0.5204840000000  0.4726880000000 1.0
C      1  0.4609920000000  0.5275570000000  0.5019430000000 1.0
C      1  0.4743840000000  0.5111130000000  0.5274920000000 1.0
C      1  0.5049430000000  0.5203450000000  0.5157460000000 1.0
C      1  0.5374370000000  0.5107870000000  0.5125480000000 1.0
C      1  0.5215310000000  0.5290470000000  0.4774770000000 1.0
C      1  0.4957230000000  0.5138290000000  0.4613910000000 1.0
C      1  0.5187490000000  0.4751930000000  0.4581490000000 1.0
C      1  0.4739310000000  0.4662900000000  0.4740950000000 1.0
C      1  0.4517890000000  0.4699400000000  0.5068390000000 1.0
C      1  0.4812530000000  0.4588780000000  0.5199250000000 1.0
C      1  0.5082550000000  0.4720530000000  0.5359630000000 1.0
C      1  0.5344950000000  0.4626140000000  0.5165060000000 1.0
C      1  0.5250170000000  0.4549570000000  0.4847450000000 1.0
C      1  0.4512620000000  0.5756650000000  0.5246740000000 1.0
C      1  0.4971550000000  0.5755800000000  0.5672720000000 1.0
C      1  0.5461840000000  0.5883370000000  0.5512940000000 1.0
C      1  0.5721340000000  0.5698380000000  0.5019040000000 1.0
C      1  0.5428350000000  0.5706350000000  0.4627810000000 1.0
C      1  0.4902210000000  0.5712200000000  0.4414350000000 1.0
C      1  0.4466640000000  0.5799410000000  0.4787950000000 1.0
C      1  0.5352870000000  0.5391230000000  0.5490990000000 1.0
C      1  0.5577560000000  0.5332170000000  0.5084900000000 1.0
C      1  0.5534930000000  0.5336800000000  0.4315480000000 1.0
C      1  0.5049080000000  0.5270570000000  0.4313140000000 1.0
C      1  0.4187120000000  0.5329600000000  0.4529730000000 1.0
C      1  0.4350800000000  0.5237980000000  0.5236930000000 1.0
C      1  0.4870810000000  0.5369890000000  0.5682310000000 1.0
C      1  0.4491290000000  0.4665410000000  0.5737270000000 1.0
C      1  0.5296410000000  0.4717040000000  0.5853140000000 1.0
C      1  0.5852500000000  0.4739160000000  0.5285090000000 1.0
C      1  0.5785510000000  0.4739050000000  0.4512240000000 1.0
C      1  0.5122530000000  0.4666100000000  0.4071170000000 1.0
C      1  0.4401780000000  0.4613080000000  0.4472020000000 1.0
C      1  0.4131370000000  0.4718640000000  0.5322180000000 1.0
C      1  0.4979270000000  0.4684010000000  0.4942210000000 1.0
C      1  0.4999530000000  0.4983770000000  0.4913860000000 1.0
C      1  0.4964100000000  0.5425090000000  0.4914140000000 1.0
END
