TITL C-2622956-4641-467 -0.000947560796231967 125000 -739.411896983541 0 0 135 (C1) n - 1
REM
REM in /nfs/bkarasulu/CARBON/AIRSS/Generating-Clusters/AIREBO/with-SteepDescent/Higher-Symm/SD-CG/HFTN-CG
REM
REM
REM
REM
REM
REM ./C.cell (b20cbc046b6831c77cfcea5457e17084)
REM
REM compiler GCC version 9.2.1 20190827 (Red Hat 9.2.1-1)
REM options -cpp -mtune=generic -march=x86-64 -g -O0 -fpre-include=/usr/include/finclude/math-vector-fortran.h
REM seed 14999558 -758964605 -981188968 -364724993 1751557341 -269329988 386226762 1805244027 -938083284 -477944481 -1858043693 -1014169155 1718433598 2085647487 -1665522597 1563768402 1231969856 1606559082 867027851 799741402 1781354332 73975978 1572696253 -1401357726 1919299522 585180637 2132873992 246862083 -704175032 512054475 1966846780 305785610 480383234
REM
CELL 1.54180   50.00000   50.00000   50.00000   90.00000   90.00000   90.00000
LATT -1
SFAC C  
C      1  0.5986980000000  0.4636080000000  0.5099650000000 1.0
C      1  0.4535240000000  0.5651950000000  0.5138480000000 1.0
C      1  0.4763640000000  0.4128460000000  0.4978580000000 1.0
C      1  0.4888830000000  0.5647950000000  0.5751070000000 1.0
C      1  0.4358300000000  0.5258520000000  0.4284950000000 1.0
C      1  0.4482700000000  0.5438240000000  0.5379280000000 1.0
C      1  0.4629150000000  0.4710900000000  0.4280230000000 1.0
C      1  0.5883330000000  0.4413610000000  0.5147890000000 1.0
C      1  0.5254210000000  0.5249520000000  0.5081250000000 1.0
C      1  0.5548210000000  0.4234030000000  0.4370340000000 1.0
C      1  0.4702850000000  0.4521130000000  0.5480370000000 1.0
C      1  0.5685070000000  0.4251270000000  0.4661660000000 1.0
C      1  0.4509230000000  0.4413300000000  0.5080380000000 1.0
C      1  0.4996670000000  0.5742770000000  0.4475430000000 1.0
C      1  0.4251770000000  0.5315130000000  0.5792030000000 1.0
C      1  0.5624620000000  0.4355310000000  0.5311250000000 1.0
C      1  0.4743440000000  0.5505390000000  0.4694570000000 1.0
C      1  0.5826030000000  0.5269210000000  0.4721500000000 1.0
C      1  0.5610960000000  0.5713000000000  0.4642720000000 1.0
C      1  0.4770170000000  0.4451110000000  0.4176180000000 1.0
C      1  0.5451920000000  0.5624360000000  0.4838770000000 1.0
C      1  0.5006720000000  0.4788750000000  0.4717220000000 1.0
C      1  0.4425770000000  0.5727460000000  0.4599230000000 1.0
C      1  0.5061260000000  0.4826690000000  0.4383700000000 1.0
C      1  0.5837120000000  0.5494870000000  0.4889780000000 1.0
C      1  0.5345350000000  0.4684480000000  0.4312300000000 1.0
C      1  0.4832770000000  0.5055840000000  0.4479280000000 1.0
C      1  0.5880430000000  0.5046950000000  0.4286740000000 1.0
C      1  0.4432940000000  0.5531570000000  0.4318560000000 1.0
C      1  0.5696770000000  0.5293700000000  0.4431880000000 1.0
C      1  0.5094370000000  0.5924840000000  0.4745560000000 1.0
C      1  0.4846620000000  0.4427220000000  0.5120990000000 1.0
C      1  0.4843470000000  0.4067740000000  0.5290300000000 1.0
C      1  0.4531710000000  0.4973430000000  0.4217540000000 1.0
C      1  0.4131180000000  0.5362150000000  0.4887860000000 1.0
C      1  0.5249330000000  0.4758490000000  0.5836100000000 1.0
C      1  0.5264630000000  0.4599900000000  0.4825080000000 1.0
C      1  0.5759640000000  0.5016200000000  0.4818450000000 1.0
C      1  0.4341480000000  0.5116490000000  0.4536280000000 1.0
C      1  0.5848420000000  0.5171760000000  0.5290150000000 1.0
C      1  0.3699810000000  0.4542720000000  0.5136080000000 1.0
C      1  0.4602810000000  0.5238310000000  0.4966570000000 1.0
C      1  0.4760280000000  0.4515950000000  0.5809870000000 1.0
C      1  0.5226260000000  0.5407500000000  0.4765730000000 1.0
C      1  0.4233250000000  0.4999830000000  0.5285040000000 1.0
C      1  0.5261030000000  0.4365400000000  0.5776670000000 1.0
C      1  0.4777890000000  0.4825940000000  0.4966240000000 1.0
C      1  0.4462210000000  0.5078130000000  0.5813620000000 1.0
C      1  0.4014580000000  0.4928940000000  0.5130230000000 1.0
C      1  0.5219500000000  0.5323230000000  0.4199960000000 1.0
C      1  0.5139620000000  0.4464100000000  0.5068210000000 1.0
C      1  0.4616140000000  0.5177270000000  0.5552720000000 1.0
C      1  0.4940030000000  0.5288550000000  0.4051620000000 1.0
C      1  0.5082080000000  0.4820890000000  0.4050240000000 1.0
C      1  0.5233240000000  0.4272980000000  0.5513290000000 1.0
C      1  0.5646890000000  0.4594820000000  0.5539400000000 1.0
C      1  0.5425070000000  0.5393650000000  0.5289320000000 1.0
C      1  0.4972610000000  0.5087420000000  0.4980790000000 1.0
C      1  0.5035590000000  0.4522750000000  0.4085410000000 1.0
C      1  0.5323860000000  0.4513940000000  0.5319480000000 1.0
C      1  0.5765130000000  0.5684690000000  0.5161980000000 1.0
C      1  0.5452950000000  0.4727600000000  0.5088620000000 1.0
C      1  0.4930500000000  0.5250560000000  0.4706540000000 1.0
C      1  0.5552750000000  0.5599020000000  0.4390330000000 1.0
C      1  0.4848740000000  0.5782300000000  0.5156650000000 1.0
C      1  0.5808030000000  0.4513320000000  0.4483080000000 1.0
C      1  0.5432770000000  0.5702970000000  0.5148270000000 1.0
C      1  0.5355680000000  0.4986770000000  0.4973540000000 1.0
C      1  0.5115450000000  0.5649930000000  0.5265450000000 1.0
C      1  0.4354550000000  0.4354600000000  0.5577330000000 1.0
C      1  0.4783430000000  0.5890290000000  0.5650390000000 1.0
C      1  0.5200440000000  0.5256320000000  0.5777110000000 1.0
C      1  0.5268410000000  0.5611040000000  0.4318710000000 1.0
C      1  0.4992410000000  0.5632770000000  0.4887070000000 1.0
C      1  0.4285680000000  0.5496560000000  0.5618630000000 1.0
C      1  0.5279440000000  0.5980490000000  0.5025410000000 1.0
C      1  0.5415030000000  0.4161610000000  0.5148900000000 1.0
C      1  0.5210280000000  0.4773820000000  0.5507380000000 1.0
C      1  0.5563670000000  0.5142130000000  0.5471340000000 1.0
C      1  0.5640030000000  0.5090190000000  0.6086050000000 1.0
C      1  0.4628410000000  0.4213500000000  0.5431960000000 1.0
C      1  0.5960250000000  0.4781250000000  0.4344520000000 1.0
C      1  0.4752430000000  0.4226740000000  0.4374700000000 1.0
C      1  0.4745280000000  0.5201630000000  0.4214190000000 1.0
C      1  0.4991810000000  0.4308410000000  0.4572240000000 1.0
C      1  0.4609880000000  0.5014610000000  0.4738500000000 1.0
C      1  0.5155960000000  0.5075830000000  0.3972820000000 1.0
C      1  0.4726560000000  0.5970990000000  0.5389160000000 1.0
C      1  0.4721300000000  0.5563820000000  0.4387340000000 1.0
C      1  0.5478010000000  0.4137310000000  0.4863200000000 1.0
C      1  0.5929150000000  0.5416200000000  0.5191740000000 1.0
C      1  0.4376850000000  0.4767920000000  0.4716820000000 1.0
C      1  0.5609000000000  0.5147530000000  0.5774730000000 1.0
C      1  0.4441000000000  0.5498210000000  0.4850050000000 1.0
C      1  0.4471860000000  0.4319200000000  0.4782860000000 1.0
C      1  0.5339700000000  0.5021530000000  0.5939680000000 1.0
C      1  0.4652510000000  0.4120330000000  0.4657350000000 1.0
C      1  0.4327420000000  0.4764120000000  0.5438160000000 1.0
C      1  0.4957600000000  0.4671100000000  0.5353070000000 1.0
C      1  0.4821790000000  0.5399320000000  0.5607220000000 1.0
C      1  0.5274400000000  0.4388010000000  0.4235720000000 1.0
C      1  0.4533470000000  0.5883130000000  0.4888880000000 1.0
C      1  0.5505590000000  0.4552150000000  0.5779200000000 1.0
C      1  0.5268680000000  0.5001710000000  0.4675410000000 1.0
C      1  0.4754790000000  0.4936890000000  0.5415680000000 1.0
C      1  0.4456920000000  0.4535250000000  0.5793990000000 1.0
C      1  0.5026480000000  0.5347060000000  0.5391780000000 1.0
C      1  0.4131830000000  0.4517910000000  0.5383290000000 1.0
C      1  0.4792730000000  0.4583270000000  0.4550910000000 1.0
C      1  0.5018770000000  0.4518440000000  0.5889120000000 1.0
C      1  0.5316620000000  0.5617950000000  0.5520730000000 1.0
C      1  0.5319220000000  0.4383340000000  0.4572890000000 1.0
C      1  0.5171890000000  0.5532280000000  0.5746550000000 1.0
C      1  0.5227940000000  0.5089520000000  0.5483030000000 1.0
C      1  0.4369600000000  0.4802950000000  0.5735040000000 1.0
C      1  0.5362560000000  0.5262600000000  0.4489540000000 1.0
C      1  0.4553070000000  0.6050190000000  0.5168730000000 1.0
C      1  0.4585740000000  0.4710960000000  0.5223570000000 1.0
C      1  0.5568850000000  0.4887770000000  0.4655770000000 1.0
C      1  0.4450120000000  0.4079040000000  0.5100700000000 1.0
C      1  0.4835210000000  0.6147740000000  0.4760320000000 1.0
C      1  0.4721780000000  0.5894640000000  0.4605980000000 1.0
C      1  0.5218700000000  0.4086310000000  0.4704590000000 1.0
C      1  0.5637180000000  0.4835590000000  0.5337910000000 1.0
C      1  0.5134040000000  0.4070230000000  0.5318730000000 1.0
C      1  0.4607850000000  0.5082050000000  0.6054290000000 1.0
C      1  0.3933550000000  0.4654390000000  0.5208530000000 1.0
C      1  0.4879270000000  0.5382250000000  0.5087310000000 1.0
C      1  0.4022190000000  0.5088270000000  0.4892310000000 1.0
C      1  0.5286590000000  0.6098190000000  0.4568340000000 1.0
C      1  0.5581750000000  0.4713440000000  0.4446460000000 1.0
C      1  0.4496040000000  0.4544800000000  0.4630880000000 1.0
C      1  0.5852960000000  0.4920330000000  0.5089160000000 1.0
C      1  0.4127720000000  0.4946080000000  0.4670940000000 1.0
C      1  0.4417700000000  0.5186630000000  0.5206570000000 1.0
END
