TITL C-2622968-4806-688 0.00127345209464203 125000 -267.220028526167 0 0 50 (C1) n - 1
REM
REM in /nfs/bkarasulu/CARBON/AIRSS/Generating-Clusters/AIREBO/with-SteepDescent/Higher-Symm/SD-CG/HFTN-CG
REM
REM
REM
REM
REM
REM ./C.cell (b20cbc046b6831c77cfcea5457e17084)
REM
REM compiler GCC version 9.2.1 20190827 (Red Hat 9.2.1-1)
REM options -cpp -mtune=generic -march=x86-64 -g -O0 -fpre-include=/usr/include/finclude/math-vector-fortran.h
REM seed -1999042247 933115995 2094774901 375467034 -1697899693 776078795 -1642968632 1945744294 438937252 1456717264 -396982298 -62137650 1914381682 454097162 1669503860 -1576135318 -452069149 26670428 6330671 -820539003 1097508574 -193832356 -1642701149 347871428 -370899687 1557944731 -33269474 -1495263137 94139024 -825942233 -1468457501 130268062 -1517144547
REM
CELL 1.54180   50.00000   50.00000   50.00000   90.00000   90.00000   90.00000
LATT -1
SFAC C  
C      1  0.4931710000000  0.5203610000000  0.4458400000000 1.0
C      1  0.5004850000000  0.4687510000000  0.4514590000000 1.0
C      1  0.5181920000000  0.5433930000000  0.4454640000000 1.0
C      1  0.4820090000000  0.5404420000000  0.5585980000000 1.0
C      1  0.4413330000000  0.4386000000000  0.5053120000000 1.0
C      1  0.5518840000000  0.5186520000000  0.5079590000000 1.0
C      1  0.4847780000000  0.4146660000000  0.4605880000000 1.0
C      1  0.5412330000000  0.5208860000000  0.5688490000000 1.0
C      1  0.5392490000000  0.5563090000000  0.4694980000000 1.0
C      1  0.5511830000000  0.4581980000000  0.4436690000000 1.0
C      1  0.5429900000000  0.4801720000000  0.5128790000000 1.0
C      1  0.4223980000000  0.4849440000000  0.4716990000000 1.0
C      1  0.5219720000000  0.5162910000000  0.5517170000000 1.0
C      1  0.5185080000000  0.5344540000000  0.5231760000000 1.0
C      1  0.4710650000000  0.5142680000000  0.5181240000000 1.0
C      1  0.5300800000000  0.5235370000000  0.4703750000000 1.0
C      1  0.4925510000000  0.4949070000000  0.5045430000000 1.0
C      1  0.4869000000000  0.5500230000000  0.4552110000000 1.0
C      1  0.4914490000000  0.4936300000000  0.4432490000000 1.0
C      1  0.4452830000000  0.5250830000000  0.5055290000000 1.0
C      1  0.5498700000000  0.5796880000000  0.5414410000000 1.0
C      1  0.4585900000000  0.4564580000000  0.5180740000000 1.0
C      1  0.4274730000000  0.5329630000000  0.5265480000000 1.0
C      1  0.4385980000000  0.4393170000000  0.4772070000000 1.0
C      1  0.5777090000000  0.5183560000000  0.5235390000000 1.0
C      1  0.4806260000000  0.5150810000000  0.5701250000000 1.0
C      1  0.4855450000000  0.4647110000000  0.5019290000000 1.0
C      1  0.5152690000000  0.5468290000000  0.4916670000000 1.0
C      1  0.5532560000000  0.4684970000000  0.4903480000000 1.0
C      1  0.5645990000000  0.4592340000000  0.4676080000000 1.0
C      1  0.4872070000000  0.5380540000000  0.5315340000000 1.0
C      1  0.4752230000000  0.5795760000000  0.4929530000000 1.0
C      1  0.4962830000000  0.4515100000000  0.5302040000000 1.0
C      1  0.5084830000000  0.4233130000000  0.4759970000000 1.0
C      1  0.4890320000000  0.5589120000000  0.4817630000000 1.0
C      1  0.5125930000000  0.4664250000000  0.5464160000000 1.0
C      1  0.5393610000000  0.4680380000000  0.5379320000000 1.0
C      1  0.4513740000000  0.5473790000000  0.4886660000000 1.0
C      1  0.4892390000000  0.4519240000000  0.4741450000000 1.0
C      1  0.5221330000000  0.5040660000000  0.5083410000000 1.0
C      1  0.4622490000000  0.4337350000000  0.4643090000000 1.0
C      1  0.5617130000000  0.5326480000000  0.4788800000000 1.0
C      1  0.5361550000000  0.5597190000000  0.5334210000000 1.0
C      1  0.4203490000000  0.4581870000000  0.4672930000000 1.0
C      1  0.5012530000000  0.4923980000000  0.5553150000000 1.0
C      1  0.4698720000000  0.4962000000000  0.5450330000000 1.0
C      1  0.5890280000000  0.5262020000000  0.4962530000000 1.0
C      1  0.4315050000000  0.5035410000000  0.4883290000000 1.0
C      1  0.4545370000000  0.4705150000000  0.5407370000000 1.0
C      1  0.5241610000000  0.4589540000000  0.4402560000000 1.0
END
