TITL C-2622963-3633-429 0.00281771263230845 125000 -728.762205440214 0 0 132 (C1) n - 1
REM
REM in /nfs/bkarasulu/CARBON/AIRSS/Generating-Clusters/AIREBO/with-SteepDescent/Higher-Symm/SD-CG/HFTN-CG
REM
REM
REM
REM
REM
REM ./C.cell (b20cbc046b6831c77cfcea5457e17084)
REM
REM compiler GCC version 9.2.1 20190827 (Red Hat 9.2.1-1)
REM options -cpp -mtune=generic -march=x86-64 -g -O0 -fpre-include=/usr/include/finclude/math-vector-fortran.h
REM seed 827232090 1030294223 336942186 -1018706451 -114505626 998282607 953140356 -1089738222 -530678405 417207493 -1742938819 -634326361 596953832 -1431554577 751012402 -2113902749 1936573427 314551554 864873569 -418625096 511660796 -721088347 898870824 1162089258 1107647908 -1593570058 -2038397638 883413703 -1616218078 387271477 -1513699124 -1233810290 -1415655306
REM
CELL 1.54180   50.00000   50.00000   50.00000   90.00000   90.00000   90.00000
LATT -1
SFAC C  
C      1  0.5051110000000  0.4577080000000  0.4754030000000 1.0
C      1  0.5343730000000  0.4591300000000  0.4926770000000 1.0
C      1  0.5159250000000  0.4467520000000  0.5184240000000 1.0
C      1  0.4896780000000  0.4668880000000  0.5232030000000 1.0
C      1  0.4677230000000  0.4478030000000  0.5071540000000 1.0
C      1  0.4722990000000  0.4488410000000  0.4734530000000 1.0
C      1  0.4273780000000  0.5921370000000  0.5350620000000 1.0
C      1  0.4518370000000  0.5688730000000  0.4442900000000 1.0
C      1  0.5030450000000  0.5938500000000  0.4238810000000 1.0
C      1  0.5713400000000  0.5958130000000  0.4530550000000 1.0
C      1  0.5520980000000  0.5691180000000  0.5593800000000 1.0
C      1  0.4991460000000  0.5959110000000  0.5760990000000 1.0
C      1  0.5179010000000  0.3961670000000  0.5228870000000 1.0
C      1  0.4947400000000  0.3801610000000  0.5182830000000 1.0
C      1  0.4760260000000  0.3942310000000  0.5019500000000 1.0
C      1  0.4861210000000  0.4009690000000  0.4762450000000 1.0
C      1  0.5139110000000  0.4068690000000  0.4756810000000 1.0
C      1  0.5311390000000  0.4018810000000  0.4994110000000 1.0
C      1  0.4559240000000  0.4966220000000  0.5693470000000 1.0
C      1  0.4394070000000  0.4856150000000  0.5090490000000 1.0
C      1  0.4511300000000  0.4837320000000  0.4250050000000 1.0
C      1  0.5342710000000  0.4936330000000  0.4517870000000 1.0
C      1  0.5851090000000  0.4945170000000  0.5014220000000 1.0
C      1  0.5426210000000  0.4920660000000  0.5741590000000 1.0
C      1  0.4699340000000  0.5576090000000  0.4275290000000 1.0
C      1  0.5463140000000  0.5522800000000  0.4364310000000 1.0
C      1  0.5742980000000  0.5561620000000  0.5065330000000 1.0
C      1  0.5320120000000  0.5592730000000  0.5750100000000 1.0
C      1  0.4546930000000  0.5520890000000  0.5595980000000 1.0
C      1  0.4322770000000  0.5535160000000  0.4990690000000 1.0
C      1  0.4002780000000  0.4732780000000  0.5310550000000 1.0
C      1  0.4208720000000  0.4641810000000  0.4412240000000 1.0
C      1  0.5196260000000  0.4629640000000  0.4106600000000 1.0
C      1  0.5950270000000  0.4745020000000  0.4601680000000 1.0
C      1  0.5684570000000  0.4644260000000  0.5617330000000 1.0
C      1  0.4777590000000  0.4696580000000  0.5888020000000 1.0
C      1  0.4188060000000  0.4841290000000  0.4645990000000 1.0
C      1  0.4901570000000  0.4759340000000  0.4215860000000 1.0
C      1  0.5740680000000  0.4949030000000  0.4479630000000 1.0
C      1  0.5747930000000  0.4845520000000  0.5383110000000 1.0
C      1  0.5038730000000  0.4843710000000  0.5790290000000 1.0
C      1  0.4245530000000  0.4901120000000  0.5459070000000 1.0
C      1  0.5062460000000  0.5697360000000  0.5728680000000 1.0
C      1  0.4382800000000  0.5690050000000  0.5395060000000 1.0
C      1  0.4518020000000  0.5683000000000  0.4771800000000 1.0
C      1  0.4957250000000  0.5680870000000  0.4290320000000 1.0
C      1  0.5605890000000  0.5711800000000  0.4544200000000 1.0
C      1  0.5530730000000  0.5636210000000  0.5284020000000 1.0
C      1  0.5229270000000  0.4344680000000  0.4628340000000 1.0
C      1  0.5461510000000  0.4276010000000  0.4867030000000 1.0
C      1  0.5110120000000  0.4211930000000  0.5391820000000 1.0
C      1  0.4790970000000  0.4207230000000  0.5435840000000 1.0
C      1  0.4631880000000  0.4168910000000  0.5170030000000 1.0
C      1  0.4697220000000  0.4177860000000  0.4604200000000 1.0
C      1  0.5553820000000  0.5189370000000  0.4578390000000 1.0
C      1  0.5565860000000  0.5003850000000  0.5168090000000 1.0
C      1  0.5150150000000  0.5071000000000  0.5617210000000 1.0
C      1  0.4530220000000  0.5075430000000  0.5394320000000 1.0
C      1  0.4339790000000  0.5063990000000  0.4754790000000 1.0
C      1  0.4780100000000  0.5011070000000  0.4365620000000 1.0
C      1  0.5181520000000  0.5262160000000  0.4159280000000 1.0
C      1  0.5914060000000  0.5316550000000  0.4695930000000 1.0
C      1  0.5732410000000  0.5277400000000  0.5534920000000 1.0
C      1  0.4828030000000  0.5304020000000  0.5880520000000 1.0
C      1  0.4137050000000  0.5283910000000  0.5422740000000 1.0
C      1  0.4285390000000  0.5261370000000  0.4412580000000 1.0
C      1  0.5051750000000  0.5347620000000  0.4670770000000 1.0
C      1  0.5286400000000  0.5477920000000  0.4843770000000 1.0
C      1  0.5268640000000  0.5380130000000  0.5130880000000 1.0
C      1  0.4990240000000  0.5388270000000  0.5324880000000 1.0
C      1  0.4724630000000  0.5420540000000  0.5130880000000 1.0
C      1  0.4753870000000  0.5367720000000  0.4833720000000 1.0
C      1  0.5145080000000  0.4890450000000  0.4752030000000 1.0
C      1  0.5272520000000  0.4900680000000  0.5067160000000 1.0
C      1  0.5069420000000  0.5058900000000  0.5292990000000 1.0
C      1  0.4760400000000  0.4958960000000  0.5210310000000 1.0
C      1  0.4639020000000  0.4987590000000  0.4893920000000 1.0
C      1  0.4884850000000  0.5050990000000  0.4667720000000 1.0
C      1  0.4550890000000  0.4196220000000  0.4369190000000 1.0
C      1  0.5230930000000  0.4353270000000  0.4316070000000 1.0
C      1  0.5780620000000  0.4321320000000  0.4847660000000 1.0
C      1  0.5296360000000  0.4283780000000  0.5644500000000 1.0
C      1  0.4643080000000  0.4329240000000  0.5634100000000 1.0
C      1  0.4330560000000  0.4311270000000  0.5177180000000 1.0
C      1  0.5747850000000  0.4633880000000  0.4381290000000 1.0
C      1  0.5768100000000  0.4519980000000  0.5343020000000 1.0
C      1  0.5027330000000  0.4523740000000  0.5804160000000 1.0
C      1  0.4224440000000  0.4572700000000  0.5487340000000 1.0
C      1  0.4141510000000  0.4583380000000  0.4801080000000 1.0
C      1  0.4939830000000  0.4416200000000  0.4175530000000 1.0
C      1  0.5356090000000  0.4649390000000  0.4390780000000 1.0
C      1  0.5876370000000  0.4646950000000  0.4870500000000 1.0
C      1  0.5389610000000  0.4609290000000  0.5675370000000 1.0
C      1  0.4569220000000  0.4646440000000  0.5657500000000 1.0
C      1  0.4193420000000  0.4580600000000  0.5089340000000 1.0
C      1  0.4452490000000  0.4502460000000  0.4258070000000 1.0
C      1  0.5319240000000  0.5298010000000  0.5806340000000 1.0
C      1  0.4378960000000  0.5382960000000  0.5804990000000 1.0
C      1  0.4141100000000  0.5305560000000  0.4874140000000 1.0
C      1  0.4699140000000  0.5285980000000  0.4180100000000 1.0
C      1  0.5661500000000  0.5277990000000  0.4267970000000 1.0
C      1  0.5962870000000  0.5398210000000  0.5144470000000 1.0
C      1  0.5289820000000  0.5784490000000  0.5168000000000 1.0
C      1  0.5056420000000  0.5723400000000  0.5303980000000 1.0
C      1  0.4809130000000  0.5713190000000  0.5150880000000 1.0
C      1  0.4755980000000  0.5830250000000  0.4903030000000 1.0
C      1  0.5002110000000  0.5907030000000  0.4781650000000 1.0
C      1  0.5239790000000  0.5785820000000  0.4884690000000 1.0
C      1  0.4232500000000  0.5131530000000  0.5133750000000 1.0
C      1  0.4431540000000  0.5133600000000  0.4217950000000 1.0
C      1  0.5396040000000  0.5098740000000  0.4227950000000 1.0
C      1  0.5988280000000  0.5188530000000  0.4946390000000 1.0
C      1  0.5608280000000  0.5175330000000  0.5760470000000 1.0
C      1  0.4574350000000  0.5179660000000  0.5875020000000 1.0
C      1  0.4136770000000  0.5293900000000  0.5690150000000 1.0
C      1  0.4053370000000  0.5293520000000  0.4570620000000 1.0
C      1  0.4957600000000  0.5230120000000  0.4013870000000 1.0
C      1  0.5942170000000  0.5289500000000  0.4425350000000 1.0
C      1  0.5983380000000  0.5350160000000  0.5423520000000 1.0
C      1  0.5065740000000  0.5234160000000  0.5988490000000 1.0
C      1  0.4738690000000  0.4546850000000  0.4399920000000 1.0
C      1  0.5540740000000  0.4616110000000  0.4650620000000 1.0
C      1  0.5642900000000  0.4602200000000  0.5088010000000 1.0
C      1  0.5114720000000  0.4600250000000  0.5484560000000 1.0
C      1  0.4511360000000  0.4636800000000  0.5322450000000 1.0
C      1  0.4393260000000  0.4498210000000  0.4651930000000 1.0
C      1  0.5616870000000  0.5467200000000  0.4763980000000 1.0
C      1  0.5536740000000  0.5296100000000  0.5281470000000 1.0
C      1  0.4860920000000  0.5486170000000  0.5624280000000 1.0
C      1  0.4427890000000  0.5376020000000  0.5272280000000 1.0
C      1  0.4478760000000  0.5361740000000  0.4667220000000 1.0
C      1  0.5148510000000  0.5472490000000  0.4386960000000 1.0
END
