TITL C-2622968-4806-11 -5.1208319292322e-06 125000 -418.606562798793 0 0 81 (C1) n - 1
REM
REM in /nfs/bkarasulu/CARBON/AIRSS/Generating-Clusters/AIREBO/with-SteepDescent/Higher-Symm/SD-CG/HFTN-CG
REM
REM
REM
REM
REM
REM ./C.cell (b20cbc046b6831c77cfcea5457e17084)
REM
REM compiler GCC version 9.2.1 20190827 (Red Hat 9.2.1-1)
REM options -cpp -mtune=generic -march=x86-64 -g -O0 -fpre-include=/usr/include/finclude/math-vector-fortran.h
REM seed -1959765788 -166330765 1045938254 1660309984 -635370327 834257039 2002831782 1525705385 -1746938306 -947789483 1532294165 -2061670621 -1968425859 -846806275 698686992 -1781221474 941071467 -1768071108 1174800227 -425946349 -1992989579 -947427412 -1515786233 -2026169050 -531332012 -196594540 -1180489915 1982289102 485048660 -720791150 -1021947106 -1285925637 -1629187176
REM
CELL 1.54180   50.00000   50.00000   50.00000   90.00000   90.00000   90.00000
LATT -1
SFAC C  
C      1  0.4847080000000  0.4444240000000  0.4783130000000 1.0
C      1  0.5340560000000  0.4496040000000  0.5019120000000 1.0
C      1  0.4844500000000  0.4370380000000  0.5277740000000 1.0
C      1  0.4707600000000  0.5907770000000  0.4933160000000 1.0
C      1  0.5418590000000  0.5844050000000  0.4711320000000 1.0
C      1  0.4800220000000  0.5748790000000  0.5340890000000 1.0
C      1  0.4797970000000  0.4958420000000  0.5303710000000 1.0
C      1  0.4871840000000  0.4971260000000  0.4673600000000 1.0
C      1  0.5363420000000  0.4955950000000  0.5044260000000 1.0
C      1  0.4641330000000  0.4775010000000  0.4518690000000 1.0
C      1  0.5595960000000  0.4769170000000  0.4880730000000 1.0
C      1  0.4750760000000  0.4762580000000  0.5577980000000 1.0
C      1  0.4419640000000  0.5436430000000  0.5589690000000 1.0
C      1  0.4753530000000  0.5420280000000  0.4263690000000 1.0
C      1  0.5794790000000  0.5413870000000  0.5100440000000 1.0
C      1  0.4594180000000  0.4581290000000  0.5257830000000 1.0
C      1  0.4995570000000  0.4592350000000  0.4545610000000 1.0
C      1  0.5370170000000  0.4649360000000  0.5320400000000 1.0
C      1  0.5186180000000  0.5406220000000  0.5638690000000 1.0
C      1  0.4364590000000  0.5412200000000  0.4851580000000 1.0
C      1  0.5464130000000  0.5413910000000  0.4473970000000 1.0
C      1  0.4513340000000  0.4428490000000  0.4802380000000 1.0
C      1  0.5455840000000  0.4428190000000  0.4719590000000 1.0
C      1  0.4990540000000  0.4333970000000  0.5559830000000 1.0
C      1  0.5047130000000  0.4192080000000  0.4849200000000 1.0
C      1  0.5201430000000  0.4232700000000  0.5134380000000 1.0
C      1  0.4808040000000  0.4164020000000  0.5064830000000 1.0
C      1  0.4560550000000  0.4174210000000  0.4944650000000 1.0
C      1  0.5298260000000  0.4202040000000  0.4657020000000 1.0
C      1  0.5171690000000  0.4170960000000  0.5392010000000 1.0
C      1  0.4583770000000  0.5234640000000  0.5726260000000 1.0
C      1  0.4499130000000  0.5233770000000  0.4305970000000 1.0
C      1  0.5868440000000  0.5234480000000  0.4849910000000 1.0
C      1  0.5201260000000  0.5008240000000  0.4749900000000 1.0
C      1  0.5137770000000  0.4973260000000  0.5298310000000 1.0
C      1  0.4715850000000  0.4990990000000  0.4975170000000 1.0
C      1  0.5300680000000  0.5566270000000  0.5444160000000 1.0
C      1  0.4493880000000  0.5627970000000  0.5021390000000 1.0
C      1  0.5263030000000  0.5666830000000  0.4439650000000 1.0
C      1  0.5054780000000  0.5413260000000  0.4420260000000 1.0
C      1  0.5531440000000  0.5399720000000  0.5314580000000 1.0
C      1  0.4384480000000  0.5402330000000  0.5249670000000 1.0
C      1  0.4447940000000  0.4808630000000  0.5078080000000 1.0
C      1  0.5203910000000  0.4823880000000  0.4464140000000 1.0
C      1  0.5342860000000  0.4887420000000  0.5555600000000 1.0
C      1  0.4997980000000  0.4951200000000  0.4148040000000 1.0
C      1  0.5786420000000  0.4929960000000  0.5343450000000 1.0
C      1  0.4268900000000  0.4932890000000  0.5412410000000 1.0
C      1  0.4411600000000  0.4670290000000  0.4705830000000 1.0
C      1  0.5555730000000  0.4668720000000  0.4567580000000 1.0
C      1  0.4962470000000  0.4557230000000  0.5707840000000 1.0
C      1  0.5667150000000  0.5098850000000  0.5091230000000 1.0
C      1  0.4542180000000  0.5080430000000  0.5459540000000 1.0
C      1  0.4810300000000  0.5103250000000  0.4372680000000 1.0
C      1  0.5646480000000  0.4710870000000  0.5183250000000 1.0
C      1  0.4437790000000  0.4698820000000  0.5508820000000 1.0
C      1  0.4843840000000  0.4712360000000  0.4277470000000 1.0
C      1  0.5680220000000  0.5020860000000  0.4695020000000 1.0
C      1  0.4837310000000  0.5044680000000  0.5724920000000 1.0
C      1  0.4443430000000  0.5032200000000  0.4549000000000 1.0
C      1  0.4564490000000  0.5217550000000  0.4771460000000 1.0
C      1  0.5447200000000  0.5237690000000  0.4699350000000 1.0
C      1  0.5067130000000  0.5176020000000  0.5562160000000 1.0
C      1  0.5064360000000  0.5624850000000  0.5206460000000 1.0
C      1  0.4827220000000  0.5591100000000  0.4964960000000 1.0
C      1  0.5247820000000  0.5577180000000  0.4766870000000 1.0
C      1  0.5070520000000  0.5316940000000  0.4806600000000 1.0
C      1  0.5166620000000  0.5294460000000  0.5190590000000 1.0
C      1  0.4868970000000  0.5274160000000  0.5069390000000 1.0
C      1  0.5498600000000  0.4965910000000  0.4411360000000 1.0
C      1  0.5101320000000  0.4829370000000  0.5753890000000 1.0
C      1  0.4269590000000  0.4952380000000  0.4833170000000 1.0
C      1  0.5412350000000  0.5390390000000  0.4996180000000 1.0
C      1  0.4576460000000  0.5632050000000  0.5410950000000 1.0
C      1  0.4808720000000  0.5419650000000  0.4655990000000 1.0
C      1  0.4318480000000  0.5118460000000  0.5131770000000 1.0
C      1  0.5207060000000  0.5138910000000  0.4340030000000 1.0
C      1  0.5568460000000  0.5113530000000  0.5477040000000 1.0
C      1  0.5165420000000  0.4678300000000  0.4827410000000 1.0
C      1  0.5045060000000  0.4644150000000  0.5241590000000 1.0
C      1  0.4813690000000  0.4666430000000  0.5012510000000 1.0
END
