TITL C-2622960-5345-455 0.00127987195130536 125000 -1001.67772769329 0 0 182 (C1) n - 1
REM
REM in /nfs/bkarasulu/CARBON/AIRSS/Generating-Clusters/AIREBO/with-SteepDescent/Higher-Symm/SD-CG/HFTN-CG
REM
REM
REM
REM
REM
REM ./C.cell (b20cbc046b6831c77cfcea5457e17084)
REM
REM compiler GCC version 9.2.1 20190827 (Red Hat 9.2.1-1)
REM options -cpp -mtune=generic -march=x86-64 -g -O0 -fpre-include=/usr/include/finclude/math-vector-fortran.h
REM seed 1259024443 -1381965726 1713681883 475387369 -1893743642 -2081383839 577158315 1407426782 -587178005 -233178362 -1514856639 -1265893739 1807408753 884457504 -1271997583 1992960575 636119267 -1358261118 1912435937 -570836780 746479446 1314693390 507358002 405317712 -978367099 776579430 -43466945 100137594 352153447 -1308498148 -1123704025 -432641341 1089303153
REM
CELL 1.54180   50.00000   50.00000   50.00000   90.00000   90.00000   90.00000
LATT -1
SFAC C  
C      1  0.4920530000000  0.5178740000000  0.3820320000000 1.0
C      1  0.4425330000000  0.5829250000000  0.4732890000000 1.0
C      1  0.4818870000000  0.5560060000000  0.6059750000000 1.0
C      1  0.5052700000000  0.4235880000000  0.5681270000000 1.0
C      1  0.5846070000000  0.5356380000000  0.4414560000000 1.0
C      1  0.4580920000000  0.5425790000000  0.5125510000000 1.0
C      1  0.5831440000000  0.4828510000000  0.5616340000000 1.0
C      1  0.5202300000000  0.5915460000000  0.4765980000000 1.0
C      1  0.5492410000000  0.4833250000000  0.5589930000000 1.0
C      1  0.4004890000000  0.5021120000000  0.5508570000000 1.0
C      1  0.4985920000000  0.5370970000000  0.4294200000000 1.0
C      1  0.5453760000000  0.4550460000000  0.5448380000000 1.0
C      1  0.5845730000000  0.5183560000000  0.4923370000000 1.0
C      1  0.6076320000000  0.4511840000000  0.5183020000000 1.0
C      1  0.4653320000000  0.4564420000000  0.5677910000000 1.0
C      1  0.5798930000000  0.5712470000000  0.5269330000000 1.0
C      1  0.4774550000000  0.4830450000000  0.3934780000000 1.0
C      1  0.4661910000000  0.4996620000000  0.5818090000000 1.0
C      1  0.4667410000000  0.4366420000000  0.4941380000000 1.0
C      1  0.5419670000000  0.4947880000000  0.6025610000000 1.0
C      1  0.5482480000000  0.5868240000000  0.4806680000000 1.0
C      1  0.4354310000000  0.4123390000000  0.4949570000000 1.0
C      1  0.3968070000000  0.4366780000000  0.5156230000000 1.0
C      1  0.5696360000000  0.4338500000000  0.5099000000000 1.0
C      1  0.4476110000000  0.4746530000000  0.4546090000000 1.0
C      1  0.4944250000000  0.4337680000000  0.4201070000000 1.0
C      1  0.5241140000000  0.4288720000000  0.4498240000000 1.0
C      1  0.4130710000000  0.4897580000000  0.4915970000000 1.0
C      1  0.4826940000000  0.4627860000000  0.4917460000000 1.0
C      1  0.5417940000000  0.4197490000000  0.4851160000000 1.0
C      1  0.4895390000000  0.6010760000000  0.5184690000000 1.0
C      1  0.5347930000000  0.4502900000000  0.4816420000000 1.0
C      1  0.5088140000000  0.5844170000000  0.4520570000000 1.0
C      1  0.5286220000000  0.4678750000000  0.3939960000000 1.0
C      1  0.5087860000000  0.4358550000000  0.6147420000000 1.0
C      1  0.5094790000000  0.4519940000000  0.5863770000000 1.0
C      1  0.5487130000000  0.4796550000000  0.4104170000000 1.0
C      1  0.5029540000000  0.4458270000000  0.4703430000000 1.0
C      1  0.5415870000000  0.5308540000000  0.5703820000000 1.0
C      1  0.4184600000000  0.4824180000000  0.5210610000000 1.0
C      1  0.5463550000000  0.5587450000000  0.5090790000000 1.0
C      1  0.5812730000000  0.5315140000000  0.5663620000000 1.0
C      1  0.5589650000000  0.4197350000000  0.4493280000000 1.0
C      1  0.5064740000000  0.4958450000000  0.4706220000000 1.0
C      1  0.4784370000000  0.5203460000000  0.4446920000000 1.0
C      1  0.4261600000000  0.4644220000000  0.5691320000000 1.0
C      1  0.5682810000000  0.4817680000000  0.4585900000000 1.0
C      1  0.4777850000000  0.5748750000000  0.5860910000000 1.0
C      1  0.4584790000000  0.5039040000000  0.3869040000000 1.0
C      1  0.5372450000000  0.4979380000000  0.5306790000000 1.0
C      1  0.5454750000000  0.4792210000000  0.5069580000000 1.0
C      1  0.5725010000000  0.5144060000000  0.5395790000000 1.0
C      1  0.4307440000000  0.4516890000000  0.4491340000000 1.0
C      1  0.5146430000000  0.5594070000000  0.5108970000000 1.0
C      1  0.6117870000000  0.5385800000000  0.4949070000000 1.0
C      1  0.4184240000000  0.4844260000000  0.4195530000000 1.0
C      1  0.4872280000000  0.4875060000000  0.4437970000000 1.0
C      1  0.5682600000000  0.5579210000000  0.5492870000000 1.0
C      1  0.4808170000000  0.5355170000000  0.4912900000000 1.0
C      1  0.5094840000000  0.5002170000000  0.5986160000000 1.0
C      1  0.4342350000000  0.5068720000000  0.4013860000000 1.0
C      1  0.4783070000000  0.5634880000000  0.5548840000000 1.0
C      1  0.5696510000000  0.5719430000000  0.4339930000000 1.0
C      1  0.5330000000000  0.4801610000000  0.4405790000000 1.0
C      1  0.5719920000000  0.5186280000000  0.4236350000000 1.0
C      1  0.5041470000000  0.4859660000000  0.5489780000000 1.0
C      1  0.4553800000000  0.3990700000000  0.5155010000000 1.0
C      1  0.5696610000000  0.5389910000000  0.4694890000000 1.0
C      1  0.5466250000000  0.5300320000000  0.4099340000000 1.0
C      1  0.4099660000000  0.4856650000000  0.4470040000000 1.0
C      1  0.4534390000000  0.5588890000000  0.5405140000000 1.0
C      1  0.5142790000000  0.5368870000000  0.4886850000000 1.0
C      1  0.5346230000000  0.5624210000000  0.5471070000000 1.0
C      1  0.4358300000000  0.4837050000000  0.5481470000000 1.0
C      1  0.3996860000000  0.5180890000000  0.4866600000000 1.0
C      1  0.5866240000000  0.4596670000000  0.5419780000000 1.0
C      1  0.5876150000000  0.4328090000000  0.4593200000000 1.0
C      1  0.5150730000000  0.4595230000000  0.5536950000000 1.0
C      1  0.4417440000000  0.4645690000000  0.4129230000000 1.0
C      1  0.4426500000000  0.5862050000000  0.5321780000000 1.0
C      1  0.4964170000000  0.5895300000000  0.5637890000000 1.0
C      1  0.4609390000000  0.6016130000000  0.5164260000000 1.0
C      1  0.5295390000000  0.5491740000000  0.5867060000000 1.0
C      1  0.4221720000000  0.5138190000000  0.4610630000000 1.0
C      1  0.5630760000000  0.4027580000000  0.5054740000000 1.0
C      1  0.4551110000000  0.4644460000000  0.5964060000000 1.0
C      1  0.5081450000000  0.4879480000000  0.3803650000000 1.0
C      1  0.5885490000000  0.4546170000000  0.4906270000000 1.0
C      1  0.4629390000000  0.4285850000000  0.4441430000000 1.0
C      1  0.4344270000000  0.5430450000000  0.4658070000000 1.0
C      1  0.5175850000000  0.4433790000000  0.4066990000000 1.0
C      1  0.4929540000000  0.5442810000000  0.3994290000000 1.0
C      1  0.4024760000000  0.5347010000000  0.5097970000000 1.0
C      1  0.5254900000000  0.5147150000000  0.6247240000000 1.0
C      1  0.4751870000000  0.4962480000000  0.6205160000000 1.0
C      1  0.4851830000000  0.4535770000000  0.4447960000000 1.0
C      1  0.5044190000000  0.5056360000000  0.5261560000000 1.0
C      1  0.5662260000000  0.4533720000000  0.4460710000000 1.0
C      1  0.5244790000000  0.5238170000000  0.3861430000000 1.0
C      1  0.5923990000000  0.4995710000000  0.5195840000000 1.0
C      1  0.5886900000000  0.4870680000000  0.4794990000000 1.0
C      1  0.5031300000000  0.4916680000000  0.4140330000000 1.0
C      1  0.5307230000000  0.5759350000000  0.5780120000000 1.0
C      1  0.5269840000000  0.5096380000000  0.4247340000000 1.0
C      1  0.4708240000000  0.4671140000000  0.5378820000000 1.0
C      1  0.5740780000000  0.4724070000000  0.5887680000000 1.0
C      1  0.4623000000000  0.4882340000000  0.5013800000000 1.0
C      1  0.4830850000000  0.5877900000000  0.4422540000000 1.0
C      1  0.4977750000000  0.5240680000000  0.5797270000000 1.0
C      1  0.4515490000000  0.4241060000000  0.4713450000000 1.0
C      1  0.5070370000000  0.6027570000000  0.5412810000000 1.0
C      1  0.5031980000000  0.5520320000000  0.5392570000000 1.0
C      1  0.5595240000000  0.5124480000000  0.5842780000000 1.0
C      1  0.5013870000000  0.3980340000000  0.4606860000000 1.0
C      1  0.4241300000000  0.5636330000000  0.4435610000000 1.0
C      1  0.4728970000000  0.5250110000000  0.6028870000000 1.0
C      1  0.5961240000000  0.5556950000000  0.5112510000000 1.0
C      1  0.5690900000000  0.4918900000000  0.4281430000000 1.0
C      1  0.4210850000000  0.5135510000000  0.5701590000000 1.0
C      1  0.4396300000000  0.5182660000000  0.4322040000000 1.0
C      1  0.4184110000000  0.5210460000000  0.5312570000000 1.0
C      1  0.5327560000000  0.5917370000000  0.5330060000000 1.0
C      1  0.5138360000000  0.4270240000000  0.5145930000000 1.0
C      1  0.5061910000000  0.3946260000000  0.5184760000000 1.0
C      1  0.4333090000000  0.5397180000000  0.5555900000000 1.0
C      1  0.4426910000000  0.4925180000000  0.4778380000000 1.0
C      1  0.4914280000000  0.5053950000000  0.4977420000000 1.0
C      1  0.4576560000000  0.4280130000000  0.5557010000000 1.0
C      1  0.5715770000000  0.4353520000000  0.5538990000000 1.0
C      1  0.4505220000000  0.5486530000000  0.4297910000000 1.0
C      1  0.4108960000000  0.5614070000000  0.5073760000000 1.0
C      1  0.4300070000000  0.4379220000000  0.5692110000000 1.0
C      1  0.5329090000000  0.4201810000000  0.5597990000000 1.0
C      1  0.5519580000000  0.4337760000000  0.5779680000000 1.0
C      1  0.4869910000000  0.4762060000000  0.5949950000000 1.0
C      1  0.4815270000000  0.3949370000000  0.5322200000000 1.0
C      1  0.5207450000000  0.5594610000000  0.4410610000000 1.0
C      1  0.4150220000000  0.5836070000000  0.5247740000000 1.0
C      1  0.4877990000000  0.4080840000000  0.4381010000000 1.0
C      1  0.5419220000000  0.4272200000000  0.5285360000000 1.0
C      1  0.4825490000000  0.4106690000000  0.5570490000000 1.0
C      1  0.4566690000000  0.4900030000000  0.4295580000000 1.0
C      1  0.4660560000000  0.4993000000000  0.5478070000000 1.0
C      1  0.4667250000000  0.5381120000000  0.4647950000000 1.0
C      1  0.6019190000000  0.5081650000000  0.5522090000000 1.0
C      1  0.4540070000000  0.4308360000000  0.5250300000000 1.0
C      1  0.4403370000000  0.4373250000000  0.4241190000000 1.0
C      1  0.5044840000000  0.5855850000000  0.4994590000000 1.0
C      1  0.4230410000000  0.4439170000000  0.4980220000000 1.0
C      1  0.5638680000000  0.5719010000000  0.4629900000000 1.0
C      1  0.5380430000000  0.4836400000000  0.4740540000000 1.0
C      1  0.4165180000000  0.5900320000000  0.4537090000000 1.0
C      1  0.5581020000000  0.5898020000000  0.5115970000000 1.0
C      1  0.5099630000000  0.5389000000000  0.6079300000000 1.0
C      1  0.4354840000000  0.4908450000000  0.5874280000000 1.0
C      1  0.5512170000000  0.5616990000000  0.4154640000000 1.0
C      1  0.5020090000000  0.4161800000000  0.4852960000000 1.0
C      1  0.4370920000000  0.5578350000000  0.4931560000000 1.0
C      1  0.5324010000000  0.3933590000000  0.5045010000000 1.0
C      1  0.4454310000000  0.4624090000000  0.5157500000000 1.0
C      1  0.4109780000000  0.4628160000000  0.4722950000000 1.0
C      1  0.4758360000000  0.5872080000000  0.4143640000000 1.0
C      1  0.5210300000000  0.5605100000000  0.4070390000000 1.0
C      1  0.4511500000000  0.6069720000000  0.4904370000000 1.0
C      1  0.5175160000000  0.5206710000000  0.4524080000000 1.0
C      1  0.5747110000000  0.4731110000000  0.5140090000000 1.0
C      1  0.4683720000000  0.5613870000000  0.4068440000000 1.0
C      1  0.4622510000000  0.5692060000000  0.4542650000000 1.0
C      1  0.5143480000000  0.4663460000000  0.5025830000000 1.0
C      1  0.5410070000000  0.4648040000000  0.5865420000000 1.0
C      1  0.5364180000000  0.5431730000000  0.4636370000000 1.0
C      1  0.3808130000000  0.4531560000000  0.5306950000000 1.0
C      1  0.5343100000000  0.3986550000000  0.4595200000000 1.0
C      1  0.5977770000000  0.5607350000000  0.4305270000000 1.0
C      1  0.5375180000000  0.4477840000000  0.4308780000000 1.0
C      1  0.5375170000000  0.5138600000000  0.4896530000000 1.0
C      1  0.3919060000000  0.4774490000000  0.5382930000000 1.0
C      1  0.5361050000000  0.5296150000000  0.5382450000000 1.0
C      1  0.4978160000000  0.4530520000000  0.5273770000000 1.0
C      1  0.4496810000000  0.5127680000000  0.5213260000000 1.0
C      1  0.4901240000000  0.5232200000000  0.5503060000000 1.0
C      1  0.5575720000000  0.5268750000000  0.5119990000000 1.0
END
