TITL C-2622960-5345-302 -0.00150208797618976 125000 -617.34304570225 0 0 111 (C1) n - 1
REM
REM in /nfs/bkarasulu/CARBON/AIRSS/Generating-Clusters/AIREBO/with-SteepDescent/Higher-Symm/SD-CG/HFTN-CG
REM
REM
REM
REM
REM
REM ./C.cell (b20cbc046b6831c77cfcea5457e17084)
REM
REM compiler GCC version 9.2.1 20190827 (Red Hat 9.2.1-1)
REM options -cpp -mtune=generic -march=x86-64 -g -O0 -fpre-include=/usr/include/finclude/math-vector-fortran.h
REM seed 1220097697 -1939856830 -815461400 1322031154 512728919 -218981904 1784542487 66036362 245791454 608440479 -527186566 -167335617 856153730 75013249 -1122963989 462157678 518020989 1350332931 295550370 -1353280091 1016868010 38060624 1753471644 2049302396 2041310838 -1530450697 -2077940538 -1113015886 -68786353 -739134116 -188426986 -1144705584 -283678091
REM
CELL 1.54180   50.00000   50.00000   50.00000   90.00000   90.00000   90.00000
LATT -1
SFAC C  
C      1  0.4396780000000  0.4994650000000  0.4273020000000 1.0
C      1  0.5305470000000  0.5588380000000  0.4224350000000 1.0
C      1  0.5365610000000  0.4499350000000  0.4272200000000 1.0
C      1  0.4366670000000  0.4898120000000  0.5811500000000 1.0
C      1  0.5232010000000  0.5494220000000  0.5778210000000 1.0
C      1  0.5276140000000  0.4492280000000  0.5705260000000 1.0
C      1  0.5642280000000  0.4938010000000  0.4240460000000 1.0
C      1  0.4775890000000  0.5593030000000  0.4177130000000 1.0
C      1  0.4689790000000  0.4551570000000  0.4199110000000 1.0
C      1  0.5529790000000  0.4864670000000  0.5777700000000 1.0
C      1  0.4722260000000  0.5553490000000  0.5748700000000 1.0
C      1  0.4705960000000  0.4439810000000  0.5844650000000 1.0
C      1  0.4403380000000  0.5067240000000  0.5181950000000 1.0
C      1  0.5322930000000  0.5451020000000  0.5071480000000 1.0
C      1  0.5130930000000  0.4667380000000  0.5154090000000 1.0
C      1  0.4486070000000  0.5055930000000  0.4874980000000 1.0
C      1  0.5324960000000  0.5290040000000  0.4791830000000 1.0
C      1  0.5155110000000  0.4634410000000  0.4826080000000 1.0
C      1  0.5539360000000  0.5005040000000  0.5196510000000 1.0
C      1  0.4714480000000  0.5467240000000  0.5140340000000 1.0
C      1  0.4920440000000  0.4447070000000  0.5131620000000 1.0
C      1  0.5468340000000  0.5017420000000  0.4864240000000 1.0
C      1  0.4686660000000  0.5310690000000  0.4855530000000 1.0
C      1  0.4836970000000  0.4578470000000  0.4845100000000 1.0
C      1  0.4604280000000  0.4512420000000  0.5528420000000 1.0
C      1  0.4835920000000  0.5734270000000  0.5577840000000 1.0
C      1  0.5618190000000  0.4673680000000  0.5604870000000 1.0
C      1  0.4477150000000  0.4530380000000  0.4458680000000 1.0
C      1  0.4843780000000  0.5777050000000  0.4369040000000 1.0
C      1  0.5755340000000  0.4770760000000  0.4426690000000 1.0
C      1  0.5470210000000  0.4403980000000  0.5465190000000 1.0
C      1  0.5157700000000  0.5650810000000  0.5504930000000 1.0
C      1  0.4313520000000  0.4676210000000  0.5605770000000 1.0
C      1  0.5583770000000  0.4509680000000  0.4502150000000 1.0
C      1  0.5173760000000  0.5765650000000  0.4458870000000 1.0
C      1  0.4255250000000  0.4788250000000  0.4465670000000 1.0
C      1  0.4028470000000  0.5148050000000  0.4832920000000 1.0
C      1  0.5520690000000  0.5712070000000  0.4845570000000 1.0
C      1  0.5421890000000  0.4181640000000  0.4825590000000 1.0
C      1  0.4191640000000  0.5278460000000  0.5025640000000 1.0
C      1  0.5549160000000  0.5761680000000  0.5180730000000 1.0
C      1  0.5333850000000  0.4109020000000  0.5088500000000 1.0
C      1  0.5917940000000  0.5107380000000  0.4753510000000 1.0
C      1  0.4472710000000  0.5753510000000  0.4846330000000 1.0
C      1  0.4581220000000  0.4217150000000  0.4880380000000 1.0
C      1  0.5777750000000  0.5194350000000  0.5045030000000 1.0
C      1  0.4482600000000  0.5707200000000  0.5186640000000 1.0
C      1  0.4705460000000  0.4113370000000  0.5124300000000 1.0
C      1  0.5928780000000  0.4863220000000  0.4625030000000 1.0
C      1  0.4391420000000  0.4280780000000  0.4621310000000 1.0
C      1  0.4622030000000  0.5857920000000  0.4614340000000 1.0
C      1  0.5948050000000  0.4936330000000  0.5187050000000 1.0
C      1  0.4554820000000  0.4205140000000  0.5391210000000 1.0
C      1  0.4664210000000  0.5879050000000  0.5402480000000 1.0
C      1  0.4025090000000  0.4927900000000  0.4676990000000 1.0
C      1  0.5698310000000  0.4242870000000  0.4679120000000 1.0
C      1  0.5393460000000  0.5899410000000  0.4681930000000 1.0
C      1  0.4036550000000  0.4614660000000  0.5447270000000 1.0
C      1  0.5562220000000  0.4183050000000  0.5267590000000 1.0
C      1  0.5331910000000  0.5858400000000  0.5344390000000 1.0
C      1  0.5163090000000  0.5707250000000  0.5019100000000 1.0
C      1  0.5409740000000  0.4533530000000  0.5156440000000 1.0
C      1  0.4363040000000  0.4774290000000  0.5284010000000 1.0
C      1  0.5169940000000  0.5571140000000  0.4717960000000 1.0
C      1  0.5446140000000  0.4518050000000  0.4817080000000 1.0
C      1  0.4375070000000  0.4771910000000  0.4776950000000 1.0
C      1  0.4861510000000  0.5759770000000  0.5081390000000 1.0
C      1  0.4596950000000  0.4546030000000  0.5190090000000 1.0
C      1  0.5625130000000  0.4725240000000  0.5287100000000 1.0
C      1  0.4857910000000  0.5594510000000  0.4791020000000 1.0
C      1  0.4535030000000  0.4553950000000  0.4870400000000 1.0
C      1  0.5644600000000  0.4761580000000  0.4883420000000 1.0
C      1  0.4788910000000  0.4794330000000  0.5467910000000 1.0
C      1  0.4842900000000  0.5311450000000  0.5368450000000 1.0
C      1  0.5299310000000  0.5088470000000  0.5377390000000 1.0
C      1  0.4731620000000  0.4713120000000  0.4561420000000 1.0
C      1  0.4836250000000  0.5269050000000  0.4561800000000 1.0
C      1  0.5257730000000  0.4948370000000  0.4605920000000 1.0
C      1  0.5088620000000  0.4844410000000  0.5376550000000 1.0
C      1  0.5165450000000  0.5360160000000  0.5327710000000 1.0
C      1  0.4631010000000  0.5062900000000  0.5410530000000 1.0
C      1  0.5042620000000  0.4710800000000  0.4533150000000 1.0
C      1  0.5136920000000  0.5226930000000  0.4519990000000 1.0
C      1  0.4640570000000  0.5010100000000  0.4596730000000 1.0
C      1  0.5108940000000  0.5243740000000  0.5803390000000 1.0
C      1  0.5111650000000  0.4725240000000  0.5690970000000 1.0
C      1  0.4633970000000  0.5010030000000  0.5763100000000 1.0
C      1  0.5214370000000  0.5310280000000  0.4220200000000 1.0
C      1  0.5176680000000  0.4759320000000  0.4248830000000 1.0
C      1  0.4722730000000  0.5026710000000  0.4267060000000 1.0
C      1  0.4816970000000  0.5257260000000  0.5703320000000 1.0
C      1  0.4812330000000  0.4724280000000  0.5797590000000 1.0
C      1  0.5265210000000  0.5014620000000  0.5690890000000 1.0
C      1  0.4877960000000  0.5302340000000  0.4225990000000 1.0
C      1  0.4862470000000  0.4771840000000  0.4181200000000 1.0
C      1  0.5354470000000  0.5018160000000  0.4258370000000 1.0
C      1  0.4918640000000  0.5922510000000  0.4724140000000 1.0
C      1  0.5960950000000  0.4643790000000  0.4841880000000 1.0
C      1  0.4200410000000  0.4337050000000  0.4858590000000 1.0
C      1  0.4837800000000  0.6064570000000  0.5231730000000 1.0
C      1  0.5884100000000  0.4602860000000  0.5159740000000 1.0
C      1  0.4330740000000  0.4331100000000  0.5168630000000 1.0
C      1  0.5157980000000  0.6040820000000  0.4803580000000 1.0
C      1  0.4065790000000  0.4643980000000  0.4836920000000 1.0
C      1  0.5889920000000  0.4327990000000  0.4871100000000 1.0
C      1  0.5151700000000  0.6028000000000  0.5131550000000 1.0
C      1  0.4109530000000  0.4589160000000  0.5151150000000 1.0
C      1  0.5822620000000  0.4266470000000  0.5163810000000 1.0
C      1  0.5661170000000  0.5472880000000  0.5043040000000 1.0
C      1  0.4272470000000  0.5537880000000  0.4988150000000 1.0
C      1  0.5040990000000  0.4144470000000  0.5138330000000 1.0
END
