TITL C-2622964-2985-782 0.000162201272985331 125000 -889.201995865286 0 0 166 (C1) n - 1
REM
REM in /nfs/bkarasulu/CARBON/AIRSS/Generating-Clusters/AIREBO/with-SteepDescent/Higher-Symm/SD-CG/HFTN-CG
REM
REM
REM
REM
REM
REM ./C.cell (b20cbc046b6831c77cfcea5457e17084)
REM
REM compiler GCC version 9.2.1 20190827 (Red Hat 9.2.1-1)
REM options -cpp -mtune=generic -march=x86-64 -g -O0 -fpre-include=/usr/include/finclude/math-vector-fortran.h
REM seed -524930899 -1811338155 -1114779925 95035485 -155494300 761538324 617019302 352036073 2025458447 1033697428 -634254445 1276814796 597493550 -428783839 -1218825959 -2048438904 -1278197213 888396148 506611497 518769281 -968874822 683680003 -1031427587 762711590 924182006 -168698763 -1762527648 -1552122769 -605690935 695611715 1251561884 1893796633 1831312213
REM
CELL 1.54180   50.00000   50.00000   50.00000   90.00000   90.00000   90.00000
LATT -1
SFAC C  
C      1  0.4169180000000  0.5149130000000  0.5207030000000 1.0
C      1  0.4537240000000  0.5096940000000  0.4125470000000 1.0
C      1  0.5591650000000  0.5134260000000  0.4244050000000 1.0
C      1  0.5822440000000  0.5104010000000  0.5233090000000 1.0
C      1  0.4992940000000  0.5112120000000  0.5983950000000 1.0
C      1  0.5238010000000  0.5267340000000  0.5053280000000 1.0
C      1  0.4967280000000  0.5170170000000  0.5356490000000 1.0
C      1  0.4766510000000  0.5260320000000  0.5106440000000 1.0
C      1  0.4769840000000  0.5195550000000  0.4772560000000 1.0
C      1  0.5070490000000  0.5345310000000  0.4825400000000 1.0
C      1  0.5470310000000  0.5835810000000  0.5616890000000 1.0
C      1  0.4534060000000  0.5877600000000  0.5625100000000 1.0
C      1  0.4290120000000  0.5862660000000  0.4773090000000 1.0
C      1  0.4767940000000  0.5874030000000  0.4296790000000 1.0
C      1  0.5690870000000  0.5881780000000  0.4838270000000 1.0
C      1  0.5237920000000  0.6057700000000  0.4628250000000 1.0
C      1  0.5449380000000  0.6058330000000  0.5211300000000 1.0
C      1  0.5113800000000  0.6071350000000  0.5428230000000 1.0
C      1  0.4617040000000  0.6033580000000  0.5198670000000 1.0
C      1  0.4712120000000  0.6002540000000  0.4671260000000 1.0
C      1  0.6142680000000  0.5457240000000  0.5071790000000 1.0
C      1  0.5333370000000  0.5564340000000  0.6136660000000 1.0
C      1  0.4000200000000  0.5478530000000  0.5581780000000 1.0
C      1  0.4051310000000  0.5511020000000  0.4234000000000 1.0
C      1  0.5399910000000  0.5505010000000  0.4008530000000 1.0
C      1  0.4786780000000  0.5773710000000  0.5149070000000 1.0
C      1  0.4852720000000  0.5784480000000  0.4853660000000 1.0
C      1  0.5191230000000  0.5801370000000  0.4826340000000 1.0
C      1  0.5169540000000  0.5888760000000  0.5154440000000 1.0
C      1  0.5007850000000  0.5689650000000  0.5379200000000 1.0
C      1  0.4525930000000  0.4391720000000  0.4184570000000 1.0
C      1  0.5591150000000  0.4364800000000  0.4304830000000 1.0
C      1  0.5954550000000  0.4367300000000  0.5342760000000 1.0
C      1  0.4843140000000  0.4564490000000  0.5956160000000 1.0
C      1  0.4080560000000  0.4354470000000  0.5192120000000 1.0
C      1  0.4321030000000  0.4439900000000  0.5671310000000 1.0
C      1  0.4244380000000  0.4498640000000  0.4637090000000 1.0
C      1  0.5101680000000  0.4511490000000  0.4219960000000 1.0
C      1  0.5900420000000  0.4492690000000  0.4776260000000 1.0
C      1  0.5385690000000  0.4529550000000  0.5775840000000 1.0
C      1  0.5324110000000  0.4857050000000  0.4350100000000 1.0
C      1  0.5705220000000  0.4671030000000  0.5075800000000 1.0
C      1  0.5219710000000  0.4934070000000  0.5708400000000 1.0
C      1  0.4337990000000  0.4713720000000  0.5308340000000 1.0
C      1  0.4514670000000  0.4886810000000  0.4464460000000 1.0
C      1  0.5213720000000  0.5939560000000  0.5657940000000 1.0
C      1  0.4414340000000  0.5925050000000  0.5369760000000 1.0
C      1  0.4466160000000  0.5926330000000  0.4574570000000 1.0
C      1  0.5366280000000  0.5951300000000  0.4403960000000 1.0
C      1  0.5688970000000  0.5933010000000  0.5118040000000 1.0
C      1  0.3937960000000  0.5312450000000  0.5021340000000 1.0
C      1  0.4619450000000  0.5376310000000  0.3949220000000 1.0
C      1  0.5761260000000  0.5393860000000  0.4347830000000 1.0
C      1  0.5897260000000  0.5283000000000  0.5483410000000 1.0
C      1  0.4757190000000  0.5326430000000  0.5991710000000 1.0
C      1  0.5705970000000  0.5399280000000  0.5599670000000 1.0
C      1  0.4706210000000  0.5422610000000  0.5739480000000 1.0
C      1  0.4215440000000  0.5365330000000  0.4875550000000 1.0
C      1  0.4809920000000  0.5380680000000  0.4191430000000 1.0
C      1  0.5683000000000  0.5395240000000  0.4640240000000 1.0
C      1  0.6078050000000  0.4860700000000  0.4844800000000 1.0
C      1  0.5421850000000  0.4879760000000  0.5959330000000 1.0
C      1  0.4208630000000  0.4906700000000  0.5709890000000 1.0
C      1  0.4183880000000  0.4836490000000  0.4432780000000 1.0
C      1  0.5300960000000  0.4804180000000  0.4036910000000 1.0
C      1  0.5418300000000  0.5181590000000  0.5328560000000 1.0
C      1  0.4685380000000  0.5200960000000  0.5528310000000 1.0
C      1  0.4434580000000  0.5182070000000  0.4716950000000 1.0
C      1  0.4958810000000  0.5163950000000  0.4491200000000 1.0
C      1  0.5458830000000  0.5091360000000  0.4770240000000 1.0
C      1  0.5696790000000  0.4570860000000  0.4446320000000 1.0
C      1  0.5832260000000  0.4550080000000  0.5571450000000 1.0
C      1  0.4621620000000  0.4743910000000  0.5908260000000 1.0
C      1  0.4017030000000  0.4542380000000  0.4963070000000 1.0
C      1  0.4717980000000  0.4584530000000  0.4143450000000 1.0
C      1  0.4450230000000  0.4029590000000  0.4521670000000 1.0
C      1  0.5297960000000  0.4041930000000  0.4265550000000 1.0
C      1  0.5762830000000  0.4118280000000  0.5077050000000 1.0
C      1  0.5130350000000  0.4222660000000  0.5774070000000 1.0
C      1  0.4357070000000  0.4072340000000  0.5412110000000 1.0
C      1  0.4859520000000  0.4399960000000  0.5669830000000 1.0
C      1  0.4268060000000  0.4130540000000  0.5088900000000 1.0
C      1  0.4674000000000  0.4166630000000  0.4321420000000 1.0
C      1  0.5529400000000  0.4131710000000  0.4498570000000 1.0
C      1  0.5627870000000  0.4273130000000  0.5349780000000 1.0
C      1  0.5760000000000  0.5698310000000  0.5254800000000 1.0
C      1  0.5050120000000  0.5757060000000  0.5786130000000 1.0
C      1  0.4272660000000  0.5713990000000  0.5242060000000 1.0
C      1  0.4484080000000  0.5698210000000  0.4361440000000 1.0
C      1  0.5421960000000  0.5675530000000  0.4447830000000 1.0
C      1  0.5373590000000  0.5466270000000  0.4281170000000 1.0
C      1  0.5871890000000  0.5484090000000  0.5103100000000 1.0
C      1  0.5175490000000  0.5541630000000  0.5913780000000 1.0
C      1  0.4205220000000  0.5495740000000  0.5403360000000 1.0
C      1  0.4294410000000  0.5479150000000  0.4324540000000 1.0
C      1  0.5345110000000  0.4807940000000  0.5440230000000 1.0
C      1  0.4638660000000  0.4702690000000  0.5290260000000 1.0
C      1  0.4456430000000  0.4733360000000  0.4757280000000 1.0
C      1  0.5078170000000  0.4686010000000  0.4510960000000 1.0
C      1  0.5461350000000  0.4692590000000  0.4898160000000 1.0
C      1  0.5384060000000  0.4233330000000  0.5116060000000 1.0
C      1  0.4999000000000  0.4311460000000  0.5377570000000 1.0
C      1  0.4603130000000  0.4180690000000  0.5117720000000 1.0
C      1  0.4760520000000  0.4234290000000  0.4658090000000 1.0
C      1  0.5258810000000  0.4134950000000  0.4678230000000 1.0
C      1  0.5148730000000  0.4965510000000  0.4691590000000 1.0
C      1  0.5340020000000  0.4943250000000  0.5040340000000 1.0
C      1  0.5045270000000  0.4841050000000  0.5319900000000 1.0
C      1  0.4700850000000  0.4953960000000  0.5152500000000 1.0
C      1  0.4767900000000  0.4855370000000  0.4771550000000 1.0
C      1  0.5028130000000  0.4545370000000  0.5178060000000 1.0
C      1  0.4721060000000  0.4464910000000  0.5094280000000 1.0
C      1  0.4798180000000  0.4529410000000  0.4794070000000 1.0
C      1  0.5108720000000  0.4426020000000  0.4719360000000 1.0
C      1  0.5256340000000  0.4479750000000  0.4987310000000 1.0
C      1  0.4566410000000  0.4058670000000  0.4835940000000 1.0
C      1  0.5002600000000  0.4090610000000  0.4530660000000 1.0
C      1  0.5491700000000  0.4054310000000  0.4885230000000 1.0
C      1  0.5247960000000  0.4160660000000  0.5389000000000 1.0
C      1  0.4740900000000  0.4152460000000  0.5380270000000 1.0
C      1  0.4363070000000  0.4684340000000  0.5815520000000 1.0
C      1  0.4061470000000  0.4773900000000  0.4717870000000 1.0
C      1  0.4977020000000  0.4783920000000  0.4058060000000 1.0
C      1  0.5881270000000  0.4785990000000  0.4604010000000 1.0
C      1  0.5622350000000  0.4755070000000  0.5723390000000 1.0
C      1  0.5698290000000  0.5063830000000  0.4559220000000 1.0
C      1  0.5629090000000  0.4987760000000  0.5476740000000 1.0
C      1  0.4773790000000  0.4976580000000  0.5762010000000 1.0
C      1  0.4183650000000  0.5026980000000  0.4887370000000 1.0
C      1  0.4869670000000  0.5056360000000  0.4181030000000 1.0
C      1  0.4275510000000  0.4210290000000  0.4755480000000 1.0
C      1  0.5001010000000  0.4204830000000  0.4234220000000 1.0
C      1  0.5766600000000  0.4189760000000  0.4737830000000 1.0
C      1  0.5440320000000  0.4245040000000  0.5635500000000 1.0
C      1  0.4556510000000  0.4240760000000  0.5633360000000 1.0
C      1  0.5530860000000  0.4969660000000  0.3986730000000 1.0
C      1  0.5934970000000  0.4880600000000  0.5078350000000 1.0
C      1  0.5235620000000  0.4983470000000  0.6151570000000 1.0
C      1  0.4220850000000  0.4950610000000  0.5439860000000 1.0
C      1  0.4258210000000  0.4923990000000  0.4160220000000 1.0
C      1  0.4400240000000  0.5202410000000  0.4407830000000 1.0
C      1  0.5276590000000  0.5170060000000  0.4367010000000 1.0
C      1  0.5646520000000  0.5247760000000  0.5008180000000 1.0
C      1  0.5181250000000  0.5270090000000  0.5749030000000 1.0
C      1  0.4436270000000  0.5278860000000  0.5364270000000 1.0
C      1  0.4827090000000  0.4716340000000  0.5549070000000 1.0
C      1  0.4299480000000  0.4666610000000  0.5014820000000 1.0
C      1  0.4765390000000  0.4736930000000  0.4393210000000 1.0
C      1  0.5485980000000  0.4727920000000  0.4595910000000 1.0
C      1  0.5579740000000  0.4612000000000  0.5352360000000 1.0
C      1  0.5082320000000  0.5555550000000  0.4621680000000 1.0
C      1  0.5454870000000  0.5500100000000  0.5091420000000 1.0
C      1  0.5192960000000  0.5410700000000  0.5439690000000 1.0
C      1  0.4609490000000  0.5507120000000  0.5181190000000 1.0
C      1  0.4663280000000  0.5518340000000  0.4754220000000 1.0
C      1  0.4293890000000  0.4462480000000  0.4317780000000 1.0
C      1  0.5394700000000  0.4427150000000  0.4129000000000 1.0
C      1  0.5979000000000  0.4484750000000  0.5077910000000 1.0
C      1  0.5117660000000  0.4643780000000  0.5853920000000 1.0
C      1  0.4195050000000  0.4475830000000  0.5421190000000 1.0
C      1  0.5491450000000  0.5573190000000  0.5421610000000 1.0
C      1  0.4786730000000  0.5692100000000  0.5638250000000 1.0
C      1  0.4395040000000  0.5611460000000  0.4941720000000 1.0
C      1  0.4806850000000  0.5573300000000  0.4450870000000 1.0
C      1  0.5483260000000  0.5633020000000  0.4779600000000 1.0
C      1  0.5004070000000  0.4946160000000  0.4998820000000 1.0
END
