TITL C-2622968-4806-149 0.0014353537813353 125000 -755.507359772866 0 0 139 (C1) n - 1
REM
REM in /nfs/bkarasulu/CARBON/AIRSS/Generating-Clusters/AIREBO/with-SteepDescent/Higher-Symm/SD-CG/HFTN-CG
REM
REM
REM
REM
REM
REM ./C.cell (b20cbc046b6831c77cfcea5457e17084)
REM
REM compiler GCC version 9.2.1 20190827 (Red Hat 9.2.1-1)
REM options -cpp -mtune=generic -march=x86-64 -g -O0 -fpre-include=/usr/include/finclude/math-vector-fortran.h
REM seed -239965936 -1234730928 -577646385 1016200269 1896643257 -1538978948 1625897672 1943822611 -1670574874 -1852830003 -186428501 -609204268 -1315713578 -368293596 -1466907163 -354033755 448585383 -1304040887 3344086 1571495481 1789985240 1186578965 459455920 1071011369 1597955180 -108337560 374502933 1893358042 1632065829 -1541387234 1552514072 -489103810 505143067
REM
CELL 1.54180   50.00000   50.00000   50.00000   90.00000   90.00000   90.00000
LATT -1
SFAC C  
C      1  0.5463290000000  0.4691610000000  0.5699390000000 1.0
C      1  0.5438350000000  0.5317210000000  0.4316380000000 1.0
C      1  0.5455070000000  0.5302220000000  0.5687580000000 1.0
C      1  0.5422140000000  0.4730130000000  0.4328310000000 1.0
C      1  0.4631880000000  0.4809970000000  0.5760240000000 1.0
C      1  0.4621390000000  0.5131930000000  0.4306230000000 1.0
C      1  0.4625110000000  0.5131190000000  0.5764550000000 1.0
C      1  0.4640730000000  0.4792050000000  0.4304980000000 1.0
C      1  0.4215950000000  0.4661500000000  0.5538380000000 1.0
C      1  0.4231160000000  0.5420940000000  0.4456770000000 1.0
C      1  0.4225550000000  0.5394580000000  0.5567170000000 1.0
C      1  0.4243210000000  0.4558940000000  0.4431370000000 1.0
C      1  0.4840800000000  0.4752680000000  0.5520710000000 1.0
C      1  0.4550360000000  0.5244590000000  0.4619580000000 1.0
C      1  0.4631750000000  0.5228160000000  0.5449150000000 1.0
C      1  0.4663750000000  0.4722310000000  0.4641940000000 1.0
C      1  0.5272700000000  0.5220430000000  0.5423180000000 1.0
C      1  0.5219780000000  0.4839740000000  0.4578580000000 1.0
C      1  0.5333670000000  0.4893860000000  0.5473760000000 1.0
C      1  0.5311450000000  0.5157470000000  0.4577500000000 1.0
C      1  0.5680860000000  0.5663060000000  0.4783950000000 1.0
C      1  0.5701080000000  0.4348550000000  0.5253830000000 1.0
C      1  0.5662030000000  0.4341330000000  0.4750300000000 1.0
C      1  0.5703300000000  0.5720700000000  0.5290010000000 1.0
C      1  0.5021740000000  0.4510860000000  0.5382650000000 1.0
C      1  0.5056160000000  0.5369370000000  0.4651880000000 1.0
C      1  0.4950940000000  0.5320330000000  0.5376190000000 1.0
C      1  0.4983650000000  0.4614280000000  0.4688190000000 1.0
C      1  0.5094900000000  0.5926030000000  0.4692360000000 1.0
C      1  0.5049190000000  0.4087160000000  0.5275210000000 1.0
C      1  0.5171800000000  0.4085620000000  0.4747890000000 1.0
C      1  0.5134430000000  0.5912920000000  0.5191250000000 1.0
C      1  0.5289140000000  0.4447350000000  0.5265500000000 1.0
C      1  0.5297360000000  0.5556650000000  0.4788060000000 1.0
C      1  0.5277690000000  0.5544040000000  0.5191380000000 1.0
C      1  0.5280360000000  0.4448240000000  0.4696550000000 1.0
C      1  0.4217170000000  0.5140670000000  0.5405270000000 1.0
C      1  0.4328910000000  0.4774630000000  0.4673440000000 1.0
C      1  0.4075010000000  0.4906490000000  0.5407300000000 1.0
C      1  0.4230440000000  0.5189470000000  0.4700560000000 1.0
C      1  0.4168550000000  0.4559310000000  0.5251330000000 1.0
C      1  0.4097930000000  0.5564950000000  0.4682770000000 1.0
C      1  0.4134660000000  0.5516460000000  0.5300650000000 1.0
C      1  0.4146050000000  0.4421430000000  0.4684700000000 1.0
C      1  0.5775600000000  0.4735880000000  0.5395960000000 1.0
C      1  0.5779780000000  0.5237030000000  0.4698390000000 1.0
C      1  0.5829860000000  0.5182550000000  0.5361290000000 1.0
C      1  0.5763990000000  0.4771330000000  0.4656240000000 1.0
C      1  0.5010250000000  0.5509590000000  0.4376250000000 1.0
C      1  0.5002620000000  0.4436050000000  0.5702240000000 1.0
C      1  0.5055000000000  0.4410040000000  0.4191860000000 1.0
C      1  0.5025500000000  0.5478270000000  0.5667990000000 1.0
C      1  0.5480340000000  0.4726140000000  0.5227530000000 1.0
C      1  0.5477510000000  0.5270920000000  0.4832780000000 1.0
C      1  0.5528860000000  0.5208630000000  0.5246010000000 1.0
C      1  0.5456430000000  0.4722750000000  0.4792950000000 1.0
C      1  0.5238760000000  0.4592480000000  0.5874760000000 1.0
C      1  0.5200750000000  0.5386670000000  0.4138100000000 1.0
C      1  0.5229220000000  0.5360530000000  0.5895920000000 1.0
C      1  0.5249070000000  0.4643780000000  0.4104790000000 1.0
C      1  0.4427720000000  0.5396490000000  0.4270910000000 1.0
C      1  0.4406450000000  0.4611040000000  0.5732970000000 1.0
C      1  0.4457440000000  0.4542450000000  0.4259450000000 1.0
C      1  0.4444790000000  0.5414510000000  0.5746830000000 1.0
C      1  0.4580740000000  0.4326500000000  0.5278630000000 1.0
C      1  0.4691220000000  0.5724260000000  0.4655510000000 1.0
C      1  0.4760250000000  0.5601700000000  0.5389200000000 1.0
C      1  0.4840680000000  0.4309170000000  0.4735090000000 1.0
C      1  0.5136020000000  0.5714480000000  0.5449410000000 1.0
C      1  0.5124770000000  0.4261220000000  0.4464120000000 1.0
C      1  0.4952240000000  0.4148230000000  0.5533650000000 1.0
C      1  0.5017890000000  0.5824020000000  0.4448890000000 1.0
C      1  0.4635350000000  0.5608410000000  0.5691050000000 1.0
C      1  0.4599980000000  0.4299660000000  0.4252570000000 1.0
C      1  0.4499010000000  0.4341950000000  0.5758710000000 1.0
C      1  0.4554910000000  0.5634820000000  0.4187240000000 1.0
C      1  0.4249840000000  0.5730690000000  0.4846230000000 1.0
C      1  0.4404630000000  0.4497970000000  0.5078370000000 1.0
C      1  0.4349740000000  0.4312220000000  0.4843080000000 1.0
C      1  0.4349310000000  0.5584190000000  0.5102590000000 1.0
C      1  0.4566990000000  0.4146370000000  0.4794010000000 1.0
C      1  0.4600500000000  0.5731120000000  0.5188450000000 1.0
C      1  0.4478170000000  0.5891710000000  0.4776620000000 1.0
C      1  0.4527310000000  0.4012560000000  0.5242540000000 1.0
C      1  0.4866460000000  0.5829180000000  0.5622250000000 1.0
C      1  0.4790570000000  0.4218080000000  0.4418780000000 1.0
C      1  0.4670370000000  0.4239220000000  0.5559700000000 1.0
C      1  0.4718310000000  0.5779800000000  0.4362000000000 1.0
C      1  0.5553200000000  0.4474000000000  0.4495310000000 1.0
C      1  0.5493410000000  0.5547190000000  0.5454260000000 1.0
C      1  0.5528820000000  0.5537520000000  0.4539720000000 1.0
C      1  0.5535710000000  0.4439250000000  0.5499470000000 1.0
C      1  0.4885510000000  0.5261720000000  0.4183590000000 1.0
C      1  0.4915220000000  0.4692780000000  0.5907380000000 1.0
C      1  0.4912800000000  0.4714390000000  0.4138980000000 1.0
C      1  0.4910050000000  0.5237950000000  0.5879030000000 1.0
C      1  0.3930350000000  0.5373970000000  0.5167190000000 1.0
C      1  0.4039420000000  0.4666580000000  0.4830830000000 1.0
C      1  0.3959750000000  0.4770420000000  0.5116850000000 1.0
C      1  0.3947190000000  0.5332950000000  0.4838160000000 1.0
C      1  0.5590760000000  0.5490470000000  0.5066500000000 1.0
C      1  0.5683080000000  0.4573420000000  0.4997890000000 1.0
C      1  0.5001510000000  0.4717430000000  0.4985460000000 1.0
C      1  0.5038690000000  0.5348550000000  0.5048890000000 1.0
C      1  0.5576320000000  0.5022340000000  0.4310320000000 1.0
C      1  0.5599760000000  0.5000930000000  0.5750790000000 1.0
C      1  0.4508560000000  0.5345260000000  0.4941800000000 1.0
C      1  0.4591110000000  0.4767020000000  0.4973460000000 1.0
C      1  0.4913330000000  0.4988160000000  0.5313400000000 1.0
C      1  0.4839270000000  0.5113620000000  0.4676560000000 1.0
C      1  0.5052990000000  0.4963070000000  0.5626370000000 1.0
C      1  0.4958160000000  0.4959050000000  0.4427740000000 1.0
C      1  0.5377420000000  0.5005180000000  0.6004290000000 1.0
C      1  0.5360810000000  0.5024420000000  0.4055280000000 1.0
C      1  0.5101880000000  0.4971970000000  0.5935980000000 1.0
C      1  0.5080870000000  0.5006020000000  0.4117600000000 1.0
C      1  0.4627830000000  0.3938210000000  0.4997680000000 1.0
C      1  0.4676290000000  0.5923260000000  0.5001740000000 1.0
C      1  0.6218800000000  0.4926880000000  0.4965230000000 1.0
C      1  0.6182120000000  0.5177740000000  0.5002340000000 1.0
C      1  0.5287730000000  0.4183220000000  0.5052410000000 1.0
C      1  0.5326080000000  0.5841440000000  0.4928340000000 1.0
C      1  0.4785620000000  0.4571000000000  0.5171900000000 1.0
C      1  0.4797720000000  0.5476040000000  0.4845450000000 1.0
C      1  0.5591840000000  0.4186390000000  0.5011870000000 1.0
C      1  0.5632900000000  0.5883180000000  0.5020770000000 1.0
C      1  0.4919970000000  0.4064520000000  0.4961180000000 1.0
C      1  0.4951670000000  0.5974410000000  0.4960680000000 1.0
C      1  0.5861890000000  0.5285990000000  0.5038910000000 1.0
C      1  0.5970090000000  0.4737430000000  0.4914380000000 1.0
C      1  0.4323520000000  0.4975430000000  0.4947850000000 1.0
C      1  0.4455030000000  0.5161160000000  0.5200500000000 1.0
C      1  0.5787130000000  0.5017340000000  0.4518560000000 1.0
C      1  0.5821840000000  0.4966130000000  0.5538200000000 1.0
C      1  0.5434150000000  0.4983530000000  0.5010130000000 1.0
C      1  0.4782390000000  0.5045490000000  0.5004890000000 1.0
C      1  0.5120760000000  0.5024360000000  0.4978870000000 1.0
C      1  0.5764870000000  0.4964860000000  0.5004080000000 1.0
C      1  0.4014060000000  0.5073560000000  0.5049150000000 1.0
END
