TITL C-2622957-9142-357 0.000211150898147769 125000 -415.129010927401 0 0 75 (C1) n - 1
REM
REM in /nfs/bkarasulu/CARBON/AIRSS/Generating-Clusters/AIREBO/with-SteepDescent/Higher-Symm/SD-CG/HFTN-CG
REM
REM
REM
REM
REM
REM ./C.cell (b20cbc046b6831c77cfcea5457e17084)
REM
REM compiler GCC version 9.2.1 20190827 (Red Hat 9.2.1-1)
REM options -cpp -mtune=generic -march=x86-64 -g -O0 -fpre-include=/usr/include/finclude/math-vector-fortran.h
REM seed 562921451 1205794520 123635504 -7393736 -2065058856 -656373083 -2145065165 1091484262 -787818251 1400281247 911469937 783008434 1117489869 597209286 -1781297718 -1542373313 -1761206135 -2053809191 -2013701182 2132006352 174291774 1889788336 -892094616 389949529 -93874314 1267982223 -1196921807 -383895562 -442663869 -764750275 -372727901 821527996 1499154160
REM
CELL 1.54180   50.00000   50.00000   50.00000   90.00000   90.00000   90.00000
LATT -1
SFAC C  
C      1  0.5248220000000  0.5356390000000  0.4723780000000 1.0
C      1  0.4714910000000  0.5270480000000  0.5350760000000 1.0
C      1  0.5232450000000  0.4568020000000  0.5287290000000 1.0
C      1  0.4796430000000  0.4740650000000  0.4627450000000 1.0
C      1  0.5000520000000  0.4962510000000  0.5685030000000 1.0
C      1  0.4955940000000  0.4424040000000  0.4900240000000 1.0
C      1  0.5065440000000  0.4981740000000  0.4366760000000 1.0
C      1  0.4930340000000  0.5618610000000  0.5006250000000 1.0
C      1  0.5008810000000  0.5501470000000  0.4376290000000 1.0
C      1  0.5072190000000  0.5621600000000  0.5524430000000 1.0
C      1  0.5011080000000  0.4419790000000  0.5584550000000 1.0
C      1  0.5053020000000  0.4321260000000  0.4356140000000 1.0
C      1  0.5024700000000  0.5732930000000  0.4531880000000 1.0
C      1  0.5153080000000  0.5491780000000  0.5742670000000 1.0
C      1  0.4989830000000  0.4222050000000  0.5391510000000 1.0
C      1  0.5083780000000  0.4594650000000  0.4270060000000 1.0
C      1  0.5220540000000  0.5164920000000  0.5705440000000 1.0
C      1  0.4707900000000  0.4406650000000  0.5068160000000 1.0
C      1  0.5328580000000  0.4823510000000  0.4328760000000 1.0
C      1  0.4689620000000  0.5674950000000  0.4838010000000 1.0
C      1  0.5389760000000  0.4721820000000  0.5072730000000 1.0
C      1  0.4661980000000  0.4910220000000  0.4867370000000 1.0
C      1  0.5330040000000  0.5201760000000  0.4967890000000 1.0
C      1  0.4538990000000  0.5015260000000  0.5304470000000 1.0
C      1  0.4305170000000  0.5283560000000  0.5021650000000 1.0
C      1  0.5620430000000  0.4981430000000  0.5281410000000 1.0
C      1  0.4336270000000  0.4741650000000  0.4902810000000 1.0
C      1  0.5727360000000  0.4990210000000  0.4783740000000 1.0
C      1  0.5272670000000  0.5789410000000  0.5100220000000 1.0
C      1  0.4719840000000  0.4599490000000  0.5897060000000 1.0
C      1  0.5263280000000  0.4192110000000  0.4818940000000 1.0
C      1  0.4705990000000  0.5054920000000  0.4217620000000 1.0
C      1  0.4980550000000  0.5823280000000  0.5273250000000 1.0
C      1  0.5029700000000  0.4653240000000  0.5826790000000 1.0
C      1  0.4972370000000  0.4215880000000  0.4642780000000 1.0
C      1  0.4974440000000  0.5242040000000  0.4166970000000 1.0
C      1  0.4517140000000  0.5000790000000  0.5732250000000 1.0
C      1  0.5714760000000  0.4278960000000  0.4625470000000 1.0
C      1  0.4258990000000  0.5203580000000  0.4380120000000 1.0
C      1  0.5698960000000  0.5638940000000  0.5319880000000 1.0
C      1  0.4766230000000  0.5824280000000  0.4621060000000 1.0
C      1  0.5255170000000  0.5339060000000  0.5996330000000 1.0
C      1  0.4729220000000  0.4212170000000  0.5259920000000 1.0
C      1  0.5362990000000  0.4671370000000  0.4047490000000 1.0
C      1  0.5395140000000  0.4653230000000  0.4747430000000 1.0
C      1  0.4670410000000  0.5182440000000  0.4686660000000 1.0
C      1  0.5286170000000  0.5336290000000  0.5239620000000 1.0
C      1  0.4652520000000  0.4748410000000  0.5413410000000 1.0
C      1  0.5442080000000  0.5602220000000  0.5237980000000 1.0
C      1  0.4543360000000  0.4708280000000  0.5716180000000 1.0
C      1  0.5469280000000  0.4361260000000  0.4711650000000 1.0
C      1  0.4526220000000  0.5158660000000  0.4410840000000 1.0
C      1  0.5305240000000  0.5268210000000  0.4227650000000 1.0
C      1  0.4646990000000  0.5762930000000  0.5246270000000 1.0
C      1  0.5343320000000  0.4731100000000  0.5770470000000 1.0
C      1  0.4643410000000  0.4285800000000  0.4693300000000 1.0
C      1  0.4540460000000  0.5407440000000  0.4844210000000 1.0
C      1  0.5380190000000  0.5130880000000  0.5454440000000 1.0
C      1  0.4594920000000  0.4675930000000  0.5105330000000 1.0
C      1  0.5517690000000  0.4891210000000  0.4569550000000 1.0
C      1  0.4976770000000  0.5425680000000  0.5268760000000 1.0
C      1  0.4973110000000  0.4726090000000  0.5441900000000 1.0
C      1  0.5065560000000  0.4688300000000  0.4781210000000 1.0
C      1  0.4975820000000  0.5227390000000  0.4565780000000 1.0
C      1  0.4821480000000  0.4770990000000  0.4322180000000 1.0
C      1  0.5185820000000  0.5659390000000  0.4799090000000 1.0
C      1  0.4738040000000  0.5125840000000  0.5632480000000 1.0
C      1  0.5165270000000  0.4286960000000  0.5130440000000 1.0
C      1  0.5385810000000  0.5191930000000  0.4481300000000 1.0
C      1  0.4565930000000  0.5493690000000  0.5172130000000 1.0
C      1  0.5403860000000  0.4794460000000  0.5465200000000 1.0
C      1  0.4557810000000  0.4552360000000  0.4727460000000 1.0
C      1  0.4354250000000  0.5017300000000  0.5098880000000 1.0
C      1  0.5615630000000  0.5076340000000  0.5014650000000 1.0
C      1  0.5192860000000  0.4937880000000  0.4941340000000 1.0
END
