TITL C-2622965-4321-616 -0.00184169462170798 125000 -477.451375949144 0 0 84 (C1) n - 1
REM
REM in /nfs/bkarasulu/CARBON/AIRSS/Generating-Clusters/AIREBO/with-SteepDescent/Higher-Symm/SD-CG/HFTN-CG
REM
REM
REM
REM
REM
REM ./C.cell (b20cbc046b6831c77cfcea5457e17084)
REM
REM compiler GCC version 9.2.1 20190827 (Red Hat 9.2.1-1)
REM options -cpp -mtune=generic -march=x86-64 -g -O0 -fpre-include=/usr/include/finclude/math-vector-fortran.h
REM seed -2068645468 -1749445679 1102600247 -1239972940 -1426955996 -1483801314 -936599496 1631876277 166075972 544441485 -1790034540 -727714541 1133922656 -694439441 -353027237 -555761010 422258994 686077173 -20849218 1429094171 -1122486074 545822645 -636542330 1867802243 1551512733 1411357665 129086332 -1349314164 -1899369164 -2082808238 -1156602311 1623857069 -1026421396
REM
CELL 1.54180   50.00000   50.00000   50.00000   90.00000   90.00000   90.00000
LATT -1
SFAC C  
C      1  0.4855380000000  0.5569660000000  0.5335380000000 1.0
C      1  0.5381630000000  0.5360520000000  0.5342750000000 1.0
C      1  0.5442470000000  0.4643900000000  0.5322680000000 1.0
C      1  0.4914520000000  0.4487440000000  0.5255910000000 1.0
C      1  0.4451290000000  0.4962610000000  0.5327790000000 1.0
C      1  0.4695700000000  0.4771890000000  0.4867650000000 1.0
C      1  0.4704850000000  0.5247650000000  0.4881550000000 1.0
C      1  0.5198750000000  0.5387130000000  0.4870410000000 1.0
C      1  0.5491590000000  0.5130240000000  0.4947080000000 1.0
C      1  0.5317540000000  0.4541430000000  0.4813410000000 1.0
C      1  0.4763050000000  0.5640860000000  0.4842010000000 1.0
C      1  0.5587000000000  0.5429840000000  0.4954720000000 1.0
C      1  0.5619420000000  0.4553710000000  0.4887990000000 1.0
C      1  0.4768050000000  0.4328220000000  0.4801100000000 1.0
C      1  0.4319400000000  0.5007000000000  0.4838190000000 1.0
C      1  0.5114160000000  0.5744430000000  0.5494370000000 1.0
C      1  0.5669730000000  0.4954600000000  0.5623980000000 1.0
C      1  0.5089420000000  0.4193650000000  0.5598880000000 1.0
C      1  0.4350760000000  0.4593910000000  0.5631740000000 1.0
C      1  0.4488850000000  0.5457250000000  0.5633660000000 1.0
C      1  0.4195490000000  0.5376990000000  0.5190340000000 1.0
C      1  0.5108520000000  0.5937730000000  0.5053910000000 1.0
C      1  0.5896980000000  0.5170390000000  0.5211960000000 1.0
C      1  0.5411870000000  0.4147990000000  0.5112590000000 1.0
C      1  0.4411680000000  0.4339060000000  0.5152690000000 1.0
C      1  0.4493880000000  0.5585630000000  0.4903650000000 1.0
C      1  0.5469750000000  0.5677820000000  0.4878270000000 1.0
C      1  0.5730540000000  0.4813370000000  0.4899310000000 1.0
C      1  0.5003830000000  0.4163720000000  0.4841670000000 1.0
C      1  0.4271230000000  0.4702290000000  0.4905300000000 1.0
C      1  0.4768120000000  0.4751370000000  0.4370040000000 1.0
C      1  0.4431390000000  0.4960980000000  0.4381890000000 1.0
C      1  0.4811420000000  0.5474920000000  0.4378730000000 1.0
C      1  0.5323830000000  0.5329440000000  0.4279470000000 1.0
C      1  0.5449980000000  0.4353260000000  0.4219600000000 1.0
C      1  0.4551930000000  0.5606860000000  0.5399480000000 1.0
C      1  0.5347810000000  0.5677390000000  0.5352950000000 1.0
C      1  0.5694870000000  0.4799540000000  0.5390240000000 1.0
C      1  0.5007340000000  0.4207630000000  0.5330820000000 1.0
C      1  0.4288500000000  0.4719910000000  0.5388250000000 1.0
C      1  0.4907830000000  0.4752260000000  0.4635800000000 1.0
C      1  0.4611590000000  0.5018120000000  0.4664650000000 1.0
C      1  0.4927260000000  0.5387020000000  0.4686100000000 1.0
C      1  0.5093320000000  0.5151360000000  0.4503890000000 1.0
C      1  0.5200260000000  0.4701770000000  0.4557300000000 1.0
C      1  0.5159390000000  0.5253730000000  0.5132180000000 1.0
C      1  0.5365150000000  0.4898980000000  0.5111570000000 1.0
C      1  0.5135770000000  0.4640280000000  0.5067540000000 1.0
C      1  0.4722610000000  0.4950450000000  0.5146480000000 1.0
C      1  0.4834190000000  0.5273530000000  0.5169430000000 1.0
C      1  0.5249440000000  0.5620790000000  0.4652400000000 1.0
C      1  0.5600770000000  0.5014210000000  0.4693980000000 1.0
C      1  0.5210040000000  0.4266130000000  0.4680770000000 1.0
C      1  0.4499070000000  0.4526970000000  0.4737390000000 1.0
C      1  0.4384890000000  0.5330910000000  0.4757790000000 1.0
C      1  0.4245970000000  0.4569520000000  0.5156380000000 1.0
C      1  0.4386230000000  0.5587610000000  0.5170590000000 1.0
C      1  0.5361300000000  0.5817370000000  0.5103730000000 1.0
C      1  0.5825630000000  0.4902040000000  0.5162520000000 1.0
C      1  0.5127640000000  0.4098160000000  0.5101600000000 1.0
C      1  0.4713930000000  0.4968820000000  0.5543630000000 1.0
C      1  0.4964020000000  0.5395200000000  0.5606380000000 1.0
C      1  0.5187660000000  0.5185460000000  0.5560950000000 1.0
C      1  0.5240680000000  0.4647450000000  0.5556540000000 1.0
C      1  0.4840140000000  0.4656450000000  0.5497760000000 1.0
C      1  0.4544090000000  0.5279240000000  0.4457430000000 1.0
C      1  0.5144840000000  0.5542390000000  0.4390530000000 1.0
C      1  0.5430310000000  0.5108630000000  0.4485250000000 1.0
C      1  0.5300530000000  0.4415020000000  0.4435480000000 1.0
C      1  0.4499570000000  0.4648180000000  0.4430370000000 1.0
C      1  0.5518820000000  0.4409420000000  0.5132310000000 1.0
C      1  0.4676430000000  0.4390320000000  0.5077700000000 1.0
C      1  0.4289460000000  0.5131910000000  0.5129640000000 1.0
C      1  0.4894540000000  0.5756370000000  0.5058970000000 1.0
C      1  0.5681080000000  0.5345420000000  0.5225930000000 1.0
C      1  0.5210380000000  0.4420610000000  0.5702030000000 1.0
C      1  0.4614110000000  0.4531410000000  0.5685220000000 1.0
C      1  0.4616080000000  0.5223590000000  0.5703590000000 1.0
C      1  0.5043920000000  0.5634600000000  0.5779750000000 1.0
C      1  0.5488510000000  0.5152350000000  0.5679910000000 1.0
C      1  0.5036450000000  0.4943620000000  0.5081130000000 1.0
C      1  0.5047630000000  0.4910630000000  0.5587000000000 1.0
C      1  0.5070270000000  0.4881140000000  0.4298670000000 1.0
C      1  0.5151870000000  0.4886800000000  0.4035230000000 1.0
END
