TITL C-2622957-9142-390 -0.000661644716939598 125000 -967.010777023588 0 0 178 (C1) n - 1
REM
REM in /nfs/bkarasulu/CARBON/AIRSS/Generating-Clusters/AIREBO/with-SteepDescent/Higher-Symm/SD-CG/HFTN-CG
REM
REM
REM
REM
REM
REM ./C.cell (b20cbc046b6831c77cfcea5457e17084)
REM
REM compiler GCC version 9.2.1 20190827 (Red Hat 9.2.1-1)
REM options -cpp -mtune=generic -march=x86-64 -g -O0 -fpre-include=/usr/include/finclude/math-vector-fortran.h
REM seed -1970100399 -1579694936 467302833 -2085640396 1765634053 -877550526 -201291762 1783706828 824436290 1023589977 -44654582 -843094228 1449003127 747980696 -1962250389 1024972661 -1473952268 -560466367 -1359726707 -199527454 -226550911 598601059 932778496 594166900 904565134 -1471381573 -1681449782 -2101722083 206261252 -1439907310 -1334838654 1498862258 -995139775
REM
CELL 1.54180   50.00000   50.00000   50.00000   90.00000   90.00000   90.00000
LATT -1
SFAC C  
C      1  0.5088080000000  0.6069230000000  0.5449700000000 1.0
C      1  0.4796940000000  0.4019840000000  0.4661800000000 1.0
C      1  0.4311160000000  0.5167610000000  0.4220060000000 1.0
C      1  0.5647340000000  0.4788720000000  0.5770000000000 1.0
C      1  0.4363960000000  0.4152700000000  0.4851920000000 1.0
C      1  0.5659390000000  0.5890710000000  0.5189520000000 1.0
C      1  0.5087050000000  0.5571170000000  0.5338840000000 1.0
C      1  0.4882120000000  0.4479210000000  0.4699900000000 1.0
C      1  0.5693420000000  0.5380540000000  0.4851660000000 1.0
C      1  0.4322160000000  0.4569040000000  0.5160790000000 1.0
C      1  0.4957330000000  0.5030110000000  0.5595800000000 1.0
C      1  0.5043480000000  0.5052100000000  0.4373050000000 1.0
C      1  0.4305120000000  0.4624910000000  0.5495850000000 1.0
C      1  0.5746820000000  0.5331310000000  0.4519350000000 1.0
C      1  0.6016150000000  0.5514390000000  0.5152510000000 1.0
C      1  0.3936710000000  0.4413590000000  0.4892580000000 1.0
C      1  0.5260990000000  0.4653740000000  0.5090450000000 1.0
C      1  0.4849460000000  0.5345890000000  0.4788800000000 1.0
C      1  0.4241010000000  0.5075900000000  0.5286080000000 1.0
C      1  0.5727140000000  0.4881650000000  0.4719750000000 1.0
C      1  0.4933400000000  0.6077530000000  0.4625860000000 1.0
C      1  0.5129140000000  0.3863790000000  0.5522580000000 1.0
C      1  0.4401080000000  0.4480360000000  0.4630100000000 1.0
C      1  0.5456900000000  0.5408340000000  0.5307200000000 1.0
C      1  0.5897930000000  0.4706810000000  0.5737830000000 1.0
C      1  0.4066700000000  0.5253110000000  0.4282220000000 1.0
C      1  0.5415660000000  0.4392050000000  0.5499870000000 1.0
C      1  0.4477870000000  0.5546570000000  0.4519060000000 1.0
C      1  0.4913340000000  0.6374880000000  0.5002410000000 1.0
C      1  0.5090310000000  0.3627480000000  0.5096170000000 1.0
C      1  0.4948230000000  0.6127260000000  0.4891710000000 1.0
C      1  0.5077300000000  0.3855240000000  0.5248710000000 1.0
C      1  0.3847660000000  0.4872140000000  0.4561690000000 1.0
C      1  0.6306490000000  0.5096200000000  0.5361840000000 1.0
C      1  0.5682160000000  0.4547280000000  0.4506310000000 1.0
C      1  0.4293850000000  0.5416800000000  0.5492240000000 1.0
C      1  0.5901530000000  0.5762600000000  0.5033260000000 1.0
C      1  0.4095140000000  0.4173280000000  0.4975590000000 1.0
C      1  0.4530870000000  0.4431790000000  0.4930090000000 1.0
C      1  0.5536220000000  0.5603200000000  0.5054920000000 1.0
C      1  0.5801250000000  0.5037630000000  0.5251670000000 1.0
C      1  0.4137350000000  0.4921360000000  0.4742950000000 1.0
C      1  0.5563480000000  0.5668680000000  0.4141590000000 1.0
C      1  0.4555210000000  0.4321130000000  0.5876290000000 1.0
C      1  0.4362490000000  0.5909760000000  0.5469000000000 1.0
C      1  0.5550580000000  0.4061540000000  0.4566090000000 1.0
C      1  0.5709250000000  0.5105040000000  0.5539840000000 1.0
C      1  0.4336000000000  0.4843230000000  0.4475690000000 1.0
C      1  0.5429080000000  0.4742000000000  0.3777470000000 1.0
C      1  0.4565910000000  0.5376250000000  0.6108480000000 1.0
C      1  0.5512050000000  0.5549920000000  0.4446520000000 1.0
C      1  0.4573270000000  0.4435510000000  0.5558280000000 1.0
C      1  0.5202040000000  0.5621650000000  0.4531780000000 1.0
C      1  0.4886080000000  0.4402300000000  0.5446490000000 1.0
C      1  0.4920970000000  0.5788910000000  0.4532830000000 1.0
C      1  0.5080450000000  0.4057970000000  0.5721750000000 1.0
C      1  0.4181570000000  0.5696690000000  0.5445690000000 1.0
C      1  0.5764150000000  0.4251590000000  0.4570510000000 1.0
C      1  0.5289960000000  0.4243570000000  0.5761990000000 1.0
C      1  0.4690390000000  0.5704260000000  0.4331250000000 1.0
C      1  0.4475570000000  0.4624290000000  0.4173740000000 1.0
C      1  0.5551710000000  0.5362860000000  0.5797370000000 1.0
C      1  0.5516420000000  0.4132910000000  0.5279410000000 1.0
C      1  0.4425710000000  0.6003510000000  0.4883020000000 1.0
C      1  0.5288320000000  0.4123420000000  0.4661770000000 1.0
C      1  0.4631370000000  0.5946080000000  0.5397390000000 1.0
C      1  0.4320450000000  0.4757980000000  0.6004640000000 1.0
C      1  0.5717510000000  0.5209570000000  0.4004160000000 1.0
C      1  0.5206790000000  0.4777620000000  0.4258480000000 1.0
C      1  0.4782460000000  0.5295090000000  0.5637440000000 1.0
C      1  0.3969000000000  0.4692700000000  0.5481620000000 1.0
C      1  0.6071370000000  0.5236940000000  0.4571790000000 1.0
C      1  0.6069160000000  0.4974980000000  0.4372890000000 1.0
C      1  0.3951250000000  0.4961340000000  0.5667050000000 1.0
C      1  0.4092660000000  0.5578930000000  0.5188450000000 1.0
C      1  0.5885920000000  0.4387150000000  0.4810470000000 1.0
C      1  0.5531200000000  0.5929030000000  0.4340930000000 1.0
C      1  0.4800050000000  0.4135890000000  0.5730190000000 1.0
C      1  0.4479900000000  0.4900830000000  0.5453600000000 1.0
C      1  0.5550070000000  0.5073370000000  0.4511040000000 1.0
C      1  0.4586750000000  0.3974890000000  0.4856520000000 1.0
C      1  0.5335880000000  0.5958830000000  0.5269060000000 1.0
C      1  0.4722400000000  0.5615910000000  0.4718030000000 1.0
C      1  0.5171670000000  0.4375090000000  0.5263650000000 1.0
C      1  0.4528850000000  0.4930800000000  0.4209650000000 1.0
C      1  0.5470760000000  0.5055860000000  0.5777310000000 1.0
C      1  0.5708690000000  0.4475110000000  0.5348640000000 1.0
C      1  0.4250560000000  0.5483510000000  0.4689840000000 1.0
C      1  0.4130440000000  0.5168070000000  0.5658490000000 1.0
C      1  0.5868040000000  0.4791230000000  0.4357290000000 1.0
C      1  0.6067570000000  0.5186490000000  0.5199920000000 1.0
C      1  0.3876740000000  0.4743370000000  0.4869700000000 1.0
C      1  0.4563110000000  0.5737260000000  0.4951350000000 1.0
C      1  0.5382940000000  0.4286630000000  0.5012250000000 1.0
C      1  0.4304720000000  0.4546300000000  0.5829350000000 1.0
C      1  0.5778560000000  0.5409290000000  0.4187060000000 1.0
C      1  0.4730340000000  0.4100680000000  0.5418810000000 1.0
C      1  0.5369250000000  0.5895570000000  0.4644250000000 1.0
C      1  0.4780810000000  0.5424410000000  0.5321760000000 1.0
C      1  0.5109940000000  0.4652070000000  0.4559300000000 1.0
C      1  0.4060940000000  0.5279800000000  0.5114910000000 1.0
C      1  0.5921800000000  0.4688920000000  0.4900510000000 1.0
C      1  0.5575530000000  0.5130400000000  0.5049920000000 1.0
C      1  0.4384640000000  0.4816460000000  0.4935880000000 1.0
C      1  0.4412170000000  0.4108490000000  0.5372050000000 1.0
C      1  0.5695480000000  0.5865420000000  0.4608220000000 1.0
C      1  0.5277540000000  0.4431530000000  0.4722690000000 1.0
C      1  0.4741610000000  0.5739600000000  0.5199700000000 1.0
C      1  0.5349550000000  0.5563600000000  0.5694240000000 1.0
C      1  0.4767100000000  0.4454560000000  0.4213380000000 1.0
C      1  0.5192650000000  0.4990310000000  0.5825270000000 1.0
C      1  0.4796250000000  0.5043300000000  0.4142800000000 1.0
C      1  0.5393610000000  0.4886070000000  0.4947410000000 1.0
C      1  0.4557460000000  0.5035870000000  0.5047370000000 1.0
C      1  0.4842010000000  0.4969690000000  0.5021830000000 1.0
C      1  0.5177490000000  0.5039830000000  0.4818970000000 1.0
C      1  0.4967300000000  0.5253060000000  0.5094650000000 1.0
C      1  0.4901190000000  0.4878400000000  0.4703930000000 1.0
C      1  0.5166650000000  0.4904700000000  0.5381880000000 1.0
C      1  0.4780320000000  0.5152570000000  0.4543220000000 1.0
C      1  0.4985780000000  0.4144950000000  0.5095910000000 1.0
C      1  0.5010800000000  0.5849670000000  0.5064190000000 1.0
C      1  0.4242530000000  0.4247170000000  0.5220820000000 1.0
C      1  0.5817220000000  0.5685980000000  0.4767550000000 1.0
C      1  0.5898920000000  0.5111770000000  0.4817520000000 1.0
C      1  0.4099410000000  0.4820400000000  0.5214010000000 1.0
C      1  0.4587280000000  0.4898370000000  0.6004080000000 1.0
C      1  0.5433410000000  0.5192810000000  0.3960010000000 1.0
C      1  0.5297580000000  0.4917270000000  0.3956350000000 1.0
C      1  0.4694400000000  0.5182160000000  0.5948730000000 1.0
C      1  0.4967390000000  0.4871130000000  0.3954020000000 1.0
C      1  0.5012600000000  0.5204640000000  0.5950910000000 1.0
C      1  0.5256530000000  0.4432700000000  0.5960940000000 1.0
C      1  0.4704240000000  0.5640320000000  0.4043800000000 1.0
C      1  0.4587920000000  0.4747700000000  0.4683120000000 1.0
C      1  0.5275850000000  0.5165110000000  0.5207840000000 1.0
C      1  0.4346130000000  0.5527220000000  0.4989150000000 1.0
C      1  0.5671510000000  0.4421030000000  0.5052650000000 1.0
C      1  0.5222150000000  0.5584690000000  0.5036290000000 1.0
C      1  0.4842860000000  0.4442990000000  0.5015270000000 1.0
C      1  0.5528280000000  0.4794290000000  0.4344200000000 1.0
C      1  0.4466530000000  0.5170410000000  0.5620590000000 1.0
C      1  0.4827670000000  0.6142700000000  0.5454690000000 1.0
C      1  0.5056600000000  0.4021490000000  0.4786870000000 1.0
C      1  0.5009900000000  0.4561650000000  0.4084560000000 1.0
C      1  0.5035100000000  0.5469760000000  0.5783460000000 1.0
C      1  0.5963580000000  0.4606520000000  0.5496740000000 1.0
C      1  0.4000870000000  0.5353710000000  0.4523800000000 1.0
C      1  0.5157480000000  0.4365770000000  0.3906010000000 1.0
C      1  0.5084740000000  0.5778780000000  0.5899830000000 1.0
C      1  0.4949420000000  0.4716950000000  0.5194470000000 1.0
C      1  0.5178340000000  0.5377500000000  0.4778790000000 1.0
C      1  0.5373200000000  0.4719740000000  0.5580760000000 1.0
C      1  0.4574750000000  0.5298390000000  0.4356960000000 1.0
C      1  0.4474040000000  0.5315280000000  0.5222250000000 1.0
C      1  0.5540200000000  0.4612520000000  0.4808390000000 1.0
C      1  0.5788790000000  0.5452700000000  0.5366740000000 1.0
C      1  0.4080870000000  0.4509010000000  0.4620710000000 1.0
C      1  0.4171990000000  0.4585170000000  0.4321840000000 1.0
C      1  0.5822210000000  0.5385690000000  0.5656090000000 1.0
C      1  0.4485670000000  0.4340990000000  0.4363800000000 1.0
C      1  0.5495860000000  0.5715210000000  0.5433650000000 1.0
C      1  0.5127310000000  0.5786440000000  0.5562600000000 1.0
C      1  0.4772720000000  0.4274020000000  0.4504060000000 1.0
C      1  0.4088860000000  0.5226240000000  0.4820720000000 1.0
C      1  0.5869270000000  0.4739220000000  0.5200200000000 1.0
C      1  0.5152500000000  0.4683830000000  0.5817560000000 1.0
C      1  0.4841530000000  0.5368550000000  0.4175070000000 1.0
C      1  0.4691290000000  0.3976420000000  0.5117890000000 1.0
C      1  0.5303260000000  0.5960390000000  0.4930550000000 1.0
C      1  0.4770830000000  0.4800500000000  0.5454180000000 1.0
C      1  0.5276580000000  0.5231470000000  0.4487760000000 1.0
C      1  0.5328910000000  0.5445300000000  0.4047950000000 1.0
C      1  0.4686080000000  0.4627400000000  0.5911430000000 1.0
C      1  0.4890110000000  0.4631640000000  0.5698160000000 1.0
C      1  0.5118410000000  0.5429430000000  0.4264020000000 1.0
C      1  0.6139760000000  0.5324090000000  0.4897490000000 1.0
C      1  0.3856680000000  0.4596250000000  0.5171250000000 1.0
END
