TITL C-2622954-8726-526 0.00105179679083367 125000 -467.58715306246 0 0 79 (C1) n - 1
REM
REM in /nfs/bkarasulu/CARBON/AIRSS/Generating-Clusters/AIREBO/with-SteepDescent/Higher-Symm/SD-CG/HFTN-CG
REM
REM
REM
REM
REM
REM ./C.cell (b20cbc046b6831c77cfcea5457e17084)
REM
REM compiler GCC version 9.2.1 20190827 (Red Hat 9.2.1-1)
REM options -cpp -mtune=generic -march=x86-64 -g -O0 -fpre-include=/usr/include/finclude/math-vector-fortran.h
REM seed 1869610728 -2032224925 -314636109 -392025935 566211291 -817158633 -1991013920 42016679 1104248382 -1475433663 -1640778024 992624917 1895282167 722473868 -2079408802 -915656440 1056388254 -1560467110 -1516573384 1164290035 -111635300 -1912802417 -1026251062 -215189832 -1980565731 -712342925 598667735 2139399028 -527296201 533430469 2058207238 136466573 2118629569
REM
CELL 1.54180   50.00000   50.00000   50.00000   90.00000   90.00000   90.00000
LATT -1
SFAC C  
C      1  0.4895250000000  0.5302500000000  0.5403610000000 1.0
C      1  0.4980110000000  0.4745520000000  0.4526440000000 1.0
C      1  0.5046630000000  0.5338060000000  0.4509620000000 1.0
C      1  0.5009430000000  0.4690410000000  0.5608880000000 1.0
C      1  0.5643660000000  0.5950700000000  0.5508470000000 1.0
C      1  0.5606410000000  0.3939040000000  0.4596150000000 1.0
C      1  0.4550240000000  0.6237780000000  0.4596270000000 1.0
C      1  0.4230380000000  0.4362720000000  0.5154120000000 1.0
C      1  0.5252680000000  0.5583530000000  0.4273530000000 1.0
C      1  0.5456700000000  0.4698830000000  0.5815230000000 1.0
C      1  0.4721710000000  0.5514300000000  0.5821590000000 1.0
C      1  0.4843050000000  0.4525630000000  0.4224050000000 1.0
C      1  0.4755280000000  0.4472600000000  0.5654180000000 1.0
C      1  0.4960460000000  0.5649690000000  0.4416140000000 1.0
C      1  0.5130570000000  0.4475450000000  0.4398600000000 1.0
C      1  0.4984350000000  0.5628340000000  0.5835370000000 1.0
C      1  0.4425690000000  0.5781570000000  0.5067160000000 1.0
C      1  0.4463680000000  0.4133080000000  0.4660530000000 1.0
C      1  0.5598860000000  0.5786890000000  0.4873020000000 1.0
C      1  0.5577640000000  0.4214180000000  0.5494060000000 1.0
C      1  0.4695490000000  0.6020070000000  0.4610210000000 1.0
C      1  0.4418770000000  0.4287590000000  0.5333920000000 1.0
C      1  0.5405610000000  0.5832610000000  0.5489940000000 1.0
C      1  0.5441180000000  0.4142230000000  0.4605740000000 1.0
C      1  0.4654550000000  0.5637540000000  0.5117400000000 1.0
C      1  0.4839430000000  0.4274520000000  0.4915150000000 1.0
C      1  0.5149790000000  0.5690850000000  0.5007890000000 1.0
C      1  0.5223820000000  0.4372820000000  0.5216520000000 1.0
C      1  0.4712000000000  0.4973780000000  0.4339250000000 1.0
C      1  0.4685950000000  0.5058450000000  0.5636140000000 1.0
C      1  0.5311540000000  0.5033260000000  0.5524560000000 1.0
C      1  0.5293630000000  0.5101000000000  0.4267390000000 1.0
C      1  0.5179240000000  0.5131200000000  0.5097080000000 1.0
C      1  0.5357820000000  0.4853400000000  0.4659600000000 1.0
C      1  0.4742100000000  0.5115570000000  0.4795790000000 1.0
C      1  0.4757980000000  0.4843570000000  0.5206090000000 1.0
C      1  0.4899380000000  0.4336840000000  0.5211100000000 1.0
C      1  0.4868770000000  0.5632760000000  0.4903620000000 1.0
C      1  0.5128420000000  0.4434940000000  0.4898580000000 1.0
C      1  0.5211040000000  0.5638510000000  0.5306820000000 1.0
C      1  0.5319560000000  0.5347070000000  0.4130370000000 1.0
C      1  0.5479180000000  0.4963410000000  0.5738990000000 1.0
C      1  0.4648300000000  0.5237910000000  0.5855420000000 1.0
C      1  0.4709090000000  0.4765850000000  0.4141100000000 1.0
C      1  0.4899310000000  0.4634310000000  0.5319250000000 1.0
C      1  0.4840600000000  0.5369190000000  0.4734100000000 1.0
C      1  0.5094770000000  0.4746670000000  0.4823730000000 1.0
C      1  0.5104790000000  0.5361640000000  0.5229880000000 1.0
C      1  0.5358490000000  0.5674900000000  0.4824020000000 1.0
C      1  0.5364690000000  0.4374790000000  0.5453580000000 1.0
C      1  0.4683470000000  0.5495140000000  0.5358280000000 1.0
C      1  0.4678370000000  0.4290790000000  0.4697580000000 1.0
C      1  0.4029100000000  0.4917020000000  0.5333790000000 1.0
C      1  0.4187290000000  0.4680260000000  0.4785800000000 1.0
C      1  0.5996870000000  0.4879110000000  0.4425000000000 1.0
C      1  0.5869000000000  0.4856270000000  0.5078850000000 1.0
C      1  0.4676090000000  0.4324560000000  0.5433950000000 1.0
C      1  0.4824550000000  0.5778790000000  0.4619780000000 1.0
C      1  0.5248600000000  0.4336420000000  0.4614240000000 1.0
C      1  0.5174510000000  0.5686500000000  0.5643080000000 1.0
C      1  0.5379780000000  0.5009250000000  0.5254670000000 1.0
C      1  0.5473770000000  0.4951500000000  0.4419400000000 1.0
C      1  0.4579950000000  0.4992420000000  0.4591640000000 1.0
C      1  0.4569650000000  0.4972220000000  0.5389750000000 1.0
C      1  0.5279960000000  0.4554540000000  0.5651400000000 1.0
C      1  0.5303760000000  0.5548970000000  0.4587590000000 1.0
C      1  0.4755670000000  0.4481490000000  0.4521800000000 1.0
C      1  0.4583260000000  0.5613970000000  0.5594460000000 1.0
C      1  0.4296850000000  0.4935140000000  0.5371280000000 1.0
C      1  0.4344010000000  0.4866570000000  0.4669410000000 1.0
C      1  0.5734660000000  0.4880580000000  0.4359040000000 1.0
C      1  0.5633140000000  0.4943480000000  0.5168990000000 1.0
C      1  0.4085740000000  0.4561800000000  0.5018940000000 1.0
C      1  0.3913780000000  0.4722310000000  0.5176450000000 1.0
C      1  0.6079200000000  0.4848810000000  0.4910620000000 1.0
C      1  0.6134720000000  0.4805530000000  0.4648200000000 1.0
C      1  0.5012330000000  0.5052350000000  0.4383510000000 1.0
C      1  0.4996750000000  0.5030530000000  0.5582780000000 1.0
C      1  0.4928120000000  0.4961250000000  0.4982690000000 1.0
END
