TITL C-2622953-3516-262 -984.879805696733 125000 -792.628907519321 0 0 141 (C1) n - 1
REM
REM in /nfs/bkarasulu/CARBON/AIRSS/Generating-Clusters/AIREBO/with-SteepDescent/Higher-Symm/SD-CG/HFTN-CG
REM
REM
REM
REM
REM
REM ./C.cell (b20cbc046b6831c77cfcea5457e17084)
REM
REM compiler GCC version 9.2.1 20190827 (Red Hat 9.2.1-1)
REM options -cpp -mtune=generic -march=x86-64 -g -O0 -fpre-include=/usr/include/finclude/math-vector-fortran.h
REM seed -797130408 -1548602168 814747518 -1201479378 414957686 1172682731 -407305099 -1656088233 -468443834 -374227997 -1706518861 1047012925 819158007 -1557323499 734603153 2005202234 1531092586 -62935018 -1539470466 1411807742 -2104714952 -588681890 -1670804338 -968994878 442414554 -12073938 966928570 -1141446421 576326646 2073202487 804237201 -429463474 489684355
REM
CELL 1.54180   50.00000   50.00000   50.00000   90.00000   90.00000   90.00000
LATT -1
SFAC C  
C      1  0.4254830000000  0.5151170000000  0.5576250000000 1.0
C      1  0.4280450000000  0.4423520000000  0.4829380000000 1.0
C      1  0.4299900000000  0.5377620000000  0.4535570000000 1.0
C      1  0.5843060000000  0.5198020000000  0.5503330000000 1.0
C      1  0.5727610000000  0.4404010000000  0.4859730000000 1.0
C      1  0.5716720000000  0.5438320000000  0.4576640000000 1.0
C      1  0.4320130000000  0.5127300000000  0.4366480000000 1.0
C      1  0.4198000000000  0.4430780000000  0.5112720000000 1.0
C      1  0.4229640000000  0.5405480000000  0.5431240000000 1.0
C      1  0.5714850000000  0.5181680000000  0.4430840000000 1.0
C      1  0.5796990000000  0.4410330000000  0.5173460000000 1.0
C      1  0.5767750000000  0.5489780000000  0.5383010000000 1.0
C      1  0.5700730000000  0.4703360000000  0.5773810000000 1.0
C      1  0.5504200000000  0.4407400000000  0.4438490000000 1.0
C      1  0.5465390000000  0.5775650000000  0.4793740000000 1.0
C      1  0.4441790000000  0.4729830000000  0.5769300000000 1.0
C      1  0.4535480000000  0.4440420000000  0.4412110000000 1.0
C      1  0.4410850000000  0.5816820000000  0.4866320000000 1.0
C      1  0.5597500000000  0.4719920000000  0.4113240000000 1.0
C      1  0.5397140000000  0.4458170000000  0.5513760000000 1.0
C      1  0.5485140000000  0.5838350000000  0.5223510000000 1.0
C      1  0.4458630000000  0.4800520000000  0.4157190000000 1.0
C      1  0.4438650000000  0.4359460000000  0.5518490000000 1.0
C      1  0.4519760000000  0.5776800000000  0.5314630000000 1.0
C      1  0.4724920000000  0.4998770000000  0.5280090000000 1.0
C      1  0.4749640000000  0.4731980000000  0.4850060000000 1.0
C      1  0.4749700000000  0.5277230000000  0.4870410000000 1.0
C      1  0.5304960000000  0.4995670000000  0.5313570000000 1.0
C      1  0.5274310000000  0.4760050000000  0.4847950000000 1.0
C      1  0.5274080000000  0.5247590000000  0.4861700000000 1.0
C      1  0.4840320000000  0.4994080000000  0.4718470000000 1.0
C      1  0.4874280000000  0.4793130000000  0.5128130000000 1.0
C      1  0.4856460000000  0.5258140000000  0.5162780000000 1.0
C      1  0.5158600000000  0.4994800000000  0.4686970000000 1.0
C      1  0.5176280000000  0.4755650000000  0.5156430000000 1.0
C      1  0.5183460000000  0.5260120000000  0.5154040000000 1.0
C      1  0.4719090000000  0.5841100000000  0.4861170000000 1.0
C      1  0.4765010000000  0.4687540000000  0.5767570000000 1.0
C      1  0.4847170000000  0.4512180000000  0.4367840000000 1.0
C      1  0.5231100000000  0.5914900000000  0.4851640000000 1.0
C      1  0.5367390000000  0.4729080000000  0.5804850000000 1.0
C      1  0.5173770000000  0.4436960000000  0.4377940000000 1.0
C      1  0.4809540000000  0.5850950000000  0.5151430000000 1.0
C      1  0.4775930000000  0.4775760000000  0.4171330000000 1.0
C      1  0.4739150000000  0.4395580000000  0.5593340000000 1.0
C      1  0.5148040000000  0.5861230000000  0.5184330000000 1.0
C      1  0.5267760000000  0.4709130000000  0.4186290000000 1.0
C      1  0.5261290000000  0.4405970000000  0.5765050000000 1.0
C      1  0.4490960000000  0.5121210000000  0.5707730000000 1.0
C      1  0.4537250000000  0.4332620000000  0.4795670000000 1.0
C      1  0.4529380000000  0.5540120000000  0.4504960000000 1.0
C      1  0.5552840000000  0.5230140000000  0.5594200000000 1.0
C      1  0.5416270000000  0.4324500000000  0.4830290000000 1.0
C      1  0.5449150000000  0.5572130000000  0.4579020000000 1.0
C      1  0.4592700000000  0.5159220000000  0.4269130000000 1.0
C      1  0.4352500000000  0.4243080000000  0.5279950000000 1.0
C      1  0.4412960000000  0.5608230000000  0.5525070000000 1.0
C      1  0.5472860000000  0.5162070000000  0.4282110000000 1.0
C      1  0.5482980000000  0.4298480000000  0.5157420000000 1.0
C      1  0.5459220000000  0.5532350000000  0.5520050000000 1.0
C      1  0.5292790000000  0.4025500000000  0.5213140000000 1.0
C      1  0.5382500000000  0.5390030000000  0.4124120000000 1.0
C      1  0.5351230000000  0.5648340000000  0.5775910000000 1.0
C      1  0.4551490000000  0.4055400000000  0.5191250000000 1.0
C      1  0.4700050000000  0.5355700000000  0.4083100000000 1.0
C      1  0.4601540000000  0.5567440000000  0.5737220000000 1.0
C      1  0.5302850000000  0.4044760000000  0.4908120000000 1.0
C      1  0.5329540000000  0.5463070000000  0.5974420000000 1.0
C      1  0.5345950000000  0.5625890000000  0.4289720000000 1.0
C      1  0.4604590000000  0.4063080000000  0.4919750000000 1.0
C      1  0.4612870000000  0.5316410000000  0.5865560000000 1.0
C      1  0.4644450000000  0.5607200000000  0.4214900000000 1.0
C      1  0.4936610000000  0.4355110000000  0.5319520000000 1.0
C      1  0.4878140000000  0.5017390000000  0.4387600000000 1.0
C      1  0.4959340000000  0.5424920000000  0.5440140000000 1.0
C      1  0.5217380000000  0.4476270000000  0.5273560000000 1.0
C      1  0.5214500000000  0.4975310000000  0.4352150000000 1.0
C      1  0.5219170000000  0.5553170000000  0.5309870000000 1.0
C      1  0.4845060000000  0.4441690000000  0.4700550000000 1.0
C      1  0.4717980000000  0.4957660000000  0.5591500000000 1.0
C      1  0.4816740000000  0.5562740000000  0.4696590000000 1.0
C      1  0.5184680000000  0.4500050000000  0.4711910000000 1.0
C      1  0.5289170000000  0.5022920000000  0.5652270000000 1.0
C      1  0.5140040000000  0.5460640000000  0.4667190000000 1.0
C      1  0.4836860000000  0.4006720000000  0.4355680000000 1.0
C      1  0.4812700000000  0.6020520000000  0.4626040000000 1.0
C      1  0.4907270000000  0.4911430000000  0.5952500000000 1.0
C      1  0.5122680000000  0.4102040000000  0.4407530000000 1.0
C      1  0.5106690000000  0.5995760000000  0.4606630000000 1.0
C      1  0.5196840000000  0.4874760000000  0.6011680000000 1.0
C      1  0.4862770000000  0.4118650000000  0.5708710000000 1.0
C      1  0.4862940000000  0.5917530000000  0.5458260000000 1.0
C      1  0.4883520000000  0.4907810000000  0.3916860000000 1.0
C      1  0.5163550000000  0.4140730000000  0.5735220000000 1.0
C      1  0.5154490000000  0.6027970000000  0.5484550000000 1.0
C      1  0.5176870000000  0.4943390000000  0.3956600000000 1.0
C      1  0.4896770000000  0.5224550000000  0.3913700000000 1.0
C      1  0.4864770000000  0.5649700000000  0.5633310000000 1.0
C      1  0.4793330000000  0.4063580000000  0.5377190000000 1.0
C      1  0.5212410000000  0.5266680000000  0.3924980000000 1.0
C      1  0.5139580000000  0.5819030000000  0.5721440000000 1.0
C      1  0.5126720000000  0.4021890000000  0.5431180000000 1.0
C      1  0.4846760000000  0.5207990000000  0.5977620000000 1.0
C      1  0.4856220000000  0.5750730000000  0.4415900000000 1.0
C      1  0.4837910000000  0.4097440000000  0.4685170000000 1.0
C      1  0.5183390000000  0.5198000000000  0.5926860000000 1.0
C      1  0.5162360000000  0.5836080000000  0.4334340000000 1.0
C      1  0.5140620000000  0.3969350000000  0.4698150000000 1.0
C      1  0.5604800000000  0.5092620000000  0.5200740000000 1.0
C      1  0.5594110000000  0.4768320000000  0.4948070000000 1.0
C      1  0.5581300000000  0.5139170000000  0.4804300000000 1.0
C      1  0.4423470000000  0.5078610000000  0.5221090000000 1.0
C      1  0.4435070000000  0.4765070000000  0.4963650000000 1.0
C      1  0.4453790000000  0.5147520000000  0.4823120000000 1.0
C      1  0.5597950000000  0.4853510000000  0.4620540000000 1.0
C      1  0.5632520000000  0.4760530000000  0.5268170000000 1.0
C      1  0.5608410000000  0.5388750000000  0.5033700000000 1.0
C      1  0.4439550000000  0.4862690000000  0.4637970000000 1.0
C      1  0.4361420000000  0.4750910000000  0.5287140000000 1.0
C      1  0.4415980000000  0.5367030000000  0.5080080000000 1.0
C      1  0.5899790000000  0.4694690000000  0.4817350000000 1.0
C      1  0.5898360000000  0.5262520000000  0.4796690000000 1.0
C      1  0.5933330000000  0.5015670000000  0.5252880000000 1.0
C      1  0.4124370000000  0.4726370000000  0.4829930000000 1.0
C      1  0.4140360000000  0.5281090000000  0.4811070000000 1.0
C      1  0.4094060000000  0.5042130000000  0.5297120000000 1.0
C      1  0.5943990000000  0.4715250000000  0.5139560000000 1.0
C      1  0.5924020000000  0.5320610000000  0.5131910000000 1.0
C      1  0.5908790000000  0.4973340000000  0.4618160000000 1.0
C      1  0.4048430000000  0.4732610000000  0.5161290000000 1.0
C      1  0.4080990000000  0.5340510000000  0.5132020000000 1.0
C      1  0.4136970000000  0.5005650000000  0.4627490000000 1.0
C      1  0.5585980000000  0.5685190000000  0.5019660000000 1.0
C      1  0.4370770000000  0.5669290000000  0.5092290000000 1.0
C      1  0.5621470000000  0.4648770000000  0.4392370000000 1.0
C      1  0.5612040000000  0.4615500000000  0.5510970000000 1.0
C      1  0.4339110000000  0.4613370000000  0.5547810000000 1.0
C      1  0.4395940000000  0.4676100000000  0.4395670000000 1.0
C      1  0.5004290000000  0.5310590000000  0.4452610000000 1.0
C      1  0.4981510000000  0.5130820000000  0.5555750000000 1.0
C      1  0.4883380000000  0.4405720000000  0.5036540000000 1.0
END
