TITL C-2622954-8726-392 0.000220420631922447 125000 -231.257891324684 0 0 43 (C1) n - 1
REM
REM in /nfs/bkarasulu/CARBON/AIRSS/Generating-Clusters/AIREBO/with-SteepDescent/Higher-Symm/SD-CG/HFTN-CG
REM
REM
REM
REM
REM
REM ./C.cell (b20cbc046b6831c77cfcea5457e17084)
REM
REM compiler GCC version 9.2.1 20190827 (Red Hat 9.2.1-1)
REM options -cpp -mtune=generic -march=x86-64 -g -O0 -fpre-include=/usr/include/finclude/math-vector-fortran.h
REM seed -1763455570 1270926335 1363301144 339943997 802876940 292999183 -563370456 -302308705 82025723 -1755052055 -1825592791 60302246 471192539 19118116 276023099 -916460749 1037430007 -1428950563 1956486174 -1619013256 -1466668895 200231848 -472162242 1118874187 -45060533 1779566770 1019197100 -1579362675 1609550211 998926962 -975376708 1473241498 292644769
REM
CELL 1.54180   50.00000   50.00000   50.00000   90.00000   90.00000   90.00000
LATT -1
SFAC C  
C      1  0.5203530000000  0.5491030000000  0.5172360000000 1.0
C      1  0.5438150000000  0.4841970000000  0.4754680000000 1.0
C      1  0.5007700000000  0.4626950000000  0.4945350000000 1.0
C      1  0.4512160000000  0.4855420000000  0.4819020000000 1.0
C      1  0.5014330000000  0.5083580000000  0.5658310000000 1.0
C      1  0.4786760000000  0.4524860000000  0.5451740000000 1.0
C      1  0.4391600000000  0.4782790000000  0.5076870000000 1.0
C      1  0.5667660000000  0.5239470000000  0.5281530000000 1.0
C      1  0.4643560000000  0.5587740000000  0.4979610000000 1.0
C      1  0.4508830000000  0.4951560000000  0.4545970000000 1.0
C      1  0.4287660000000  0.5031740000000  0.5204530000000 1.0
C      1  0.5212200000000  0.4473580000000  0.4564210000000 1.0
C      1  0.5045820000000  0.5170340000000  0.5896230000000 1.0
C      1  0.4977660000000  0.5487260000000  0.4730230000000 1.0
C      1  0.5436050000000  0.5247480000000  0.5126670000000 1.0
C      1  0.5310300000000  0.4242080000000  0.4981730000000 1.0
C      1  0.4920860000000  0.5456520000000  0.5056930000000 1.0
C      1  0.5250690000000  0.4779100000000  0.5310340000000 1.0
C      1  0.5374450000000  0.5401980000000  0.4452290000000 1.0
C      1  0.4997890000000  0.4999710000000  0.5365410000000 1.0
C      1  0.5140180000000  0.4409910000000  0.4830040000000 1.0
C      1  0.4563020000000  0.4630690000000  0.5237900000000 1.0
C      1  0.5060630000000  0.4943660000000  0.4833580000000 1.0
C      1  0.4993420000000  0.4943170000000  0.4479600000000 1.0
C      1  0.5220570000000  0.5141780000000  0.4607940000000 1.0
C      1  0.4763220000000  0.5384250000000  0.4532960000000 1.0
C      1  0.5324460000000  0.4976630000000  0.5045560000000 1.0
C      1  0.4586310000000  0.5563580000000  0.4702760000000 1.0
C      1  0.5264520000000  0.4750110000000  0.4549550000000 1.0
C      1  0.5398650000000  0.5515680000000  0.4925200000000 1.0
C      1  0.5087640000000  0.4523570000000  0.5468190000000 1.0
C      1  0.4737160000000  0.5105360000000  0.4467460000000 1.0
C      1  0.4503740000000  0.5261740000000  0.5331340000000 1.0
C      1  0.4871570000000  0.4728930000000  0.5203130000000 1.0
C      1  0.4470940000000  0.5558280000000  0.5191390000000 1.0
C      1  0.5517270000000  0.4588250000000  0.5255060000000 1.0
C      1  0.5528020000000  0.5129430000000  0.4460660000000 1.0
C      1  0.5252190000000  0.5532210000000  0.4686490000000 1.0
C      1  0.4814590000000  0.5194640000000  0.5207060000000 1.0
C      1  0.5245730000000  0.4286700000000  0.5456800000000 1.0
C      1  0.4479540000000  0.5209620000000  0.4996220000000 1.0
C      1  0.5425060000000  0.4310410000000  0.5231570000000 1.0
C      1  0.4763690000000  0.5036250000000  0.4925560000000 1.0
END
