TITL C-2622953-3516-488 2637.47408101908 125000 -777.225165703666 0 0 144 (C1) n - 1
REM
REM in /nfs/bkarasulu/CARBON/AIRSS/Generating-Clusters/AIREBO/with-SteepDescent/Higher-Symm/SD-CG/HFTN-CG
REM
REM
REM
REM
REM
REM ./C.cell (b20cbc046b6831c77cfcea5457e17084)
REM
REM compiler GCC version 9.2.1 20190827 (Red Hat 9.2.1-1)
REM options -cpp -mtune=generic -march=x86-64 -g -O0 -fpre-include=/usr/include/finclude/math-vector-fortran.h
REM seed 2059705468 1243013103 349682363 -773943900 -2057424052 -854329885 -1259172621 -926972555 1867038751 1537136336 -1869430002 -310088425 1896459154 660426450 567469314 1462032621 -1711579992 498853337 -1983751650 997381879 536963737 -1119027197 178177092 -2044440739 -1064212308 14568253 1456346478 -861631529 -757866158 -1205599445 89419420 986429068 934015372
REM
CELL 1.54180   50.00000   50.00000   50.00000   90.00000   90.00000   90.00000
LATT -1
SFAC C  
C      1  0.5730210000000  0.5181550000000  0.5795580000000 1.0
C      1  0.5663320000000  0.4914690000000  0.5760700000000 1.0
C      1  0.4490570000000  0.4334530000000  0.5388170000000 1.0
C      1  0.4467920000000  0.5686820000000  0.5416110000000 1.0
C      1  0.4671880000000  0.5518300000000  0.4910750000000 1.0
C      1  0.4743270000000  0.4572990000000  0.5102520000000 1.0
C      1  0.5196930000000  0.5608270000000  0.4699030000000 1.0
C      1  0.5227760000000  0.4347620000000  0.4694640000000 1.0
C      1  0.5504590000000  0.4349950000000  0.4554880000000 1.0
C      1  0.5534730000000  0.5569740000000  0.4694150000000 1.0
C      1  0.5026440000000  0.4528720000000  0.5914370000000 1.0
C      1  0.4973270000000  0.5355890000000  0.5819750000000 1.0
C      1  0.4720220000000  0.5793730000000  0.4307970000000 1.0
C      1  0.4715530000000  0.4270010000000  0.4330950000000 1.0
C      1  0.5860530000000  0.4378830000000  0.5172270000000 1.0
C      1  0.5890700000000  0.5584570000000  0.5127990000000 1.0
C      1  0.5179330000000  0.4463810000000  0.4988220000000 1.0
C      1  0.5181920000000  0.5440170000000  0.4994320000000 1.0
C      1  0.5301120000000  0.4819430000000  0.5332620000000 1.0
C      1  0.5256990000000  0.5215570000000  0.5313160000000 1.0
C      1  0.4709620000000  0.4412210000000  0.5923590000000 1.0
C      1  0.4640730000000  0.5427130000000  0.5809060000000 1.0
C      1  0.4466180000000  0.5171810000000  0.4281270000000 1.0
C      1  0.4477910000000  0.4854680000000  0.4297350000000 1.0
C      1  0.4659040000000  0.4613240000000  0.5425880000000 1.0
C      1  0.4521920000000  0.5465710000000  0.5176010000000 1.0
C      1  0.4958940000000  0.5252300000000  0.4268850000000 1.0
C      1  0.4863430000000  0.4929520000000  0.4240710000000 1.0
C      1  0.4916160000000  0.5190550000000  0.5299620000000 1.0
C      1  0.4973690000000  0.4862060000000  0.5250660000000 1.0
C      1  0.5587320000000  0.5706160000000  0.5107410000000 1.0
C      1  0.5530090000000  0.4324660000000  0.5112270000000 1.0
C      1  0.5584570000000  0.5401810000000  0.5685480000000 1.0
C      1  0.5645820000000  0.4603290000000  0.5762400000000 1.0
C      1  0.4923050000000  0.4012470000000  0.5146820000000 1.0
C      1  0.5055360000000  0.5902490000000  0.5159420000000 1.0
C      1  0.4343620000000  0.4170580000000  0.4616510000000 1.0
C      1  0.4359330000000  0.5929490000000  0.4715030000000 1.0
C      1  0.5381420000000  0.5183470000000  0.4615420000000 1.0
C      1  0.5272720000000  0.4768660000000  0.4484980000000 1.0
C      1  0.4747070000000  0.4743700000000  0.4484740000000 1.0
C      1  0.4700750000000  0.5264950000000  0.4489850000000 1.0
C      1  0.5106100000000  0.4850890000000  0.4724610000000 1.0
C      1  0.5061660000000  0.5168840000000  0.4730450000000 1.0
C      1  0.4124560000000  0.4661060000000  0.5241480000000 1.0
C      1  0.4082370000000  0.5330590000000  0.5237950000000 1.0
C      1  0.5594200000000  0.4847420000000  0.5199450000000 1.0
C      1  0.5549360000000  0.5158510000000  0.5209020000000 1.0
C      1  0.5653420000000  0.5109370000000  0.4805570000000 1.0
C      1  0.5528470000000  0.4808940000000  0.4706110000000 1.0
C      1  0.5929300000000  0.4542120000000  0.4878410000000 1.0
C      1  0.5964740000000  0.5418420000000  0.4891340000000 1.0
C      1  0.5979160000000  0.5079240000000  0.4898660000000 1.0
C      1  0.6116990000000  0.4776710000000  0.4927290000000 1.0
C      1  0.5203340000000  0.5101460000000  0.5017900000000 1.0
C      1  0.5261120000000  0.4766610000000  0.4999120000000 1.0
C      1  0.4375800000000  0.4558510000000  0.4744090000000 1.0
C      1  0.4324250000000  0.5392390000000  0.4764840000000 1.0
C      1  0.4447060000000  0.5760600000000  0.4476240000000 1.0
C      1  0.4429210000000  0.4256740000000  0.4367770000000 1.0
C      1  0.4215210000000  0.5609850000000  0.5205820000000 1.0
C      1  0.4271230000000  0.4400570000000  0.5211260000000 1.0
C      1  0.5503960000000  0.4334540000000  0.4273070000000 1.0
C      1  0.5652430000000  0.5660070000000  0.4388210000000 1.0
C      1  0.5576420000000  0.5390650000000  0.4980550000000 1.0
C      1  0.5623450000000  0.4620550000000  0.4972980000000 1.0
C      1  0.5057130000000  0.5129870000000  0.6059980000000 1.0
C      1  0.5036700000000  0.4859150000000  0.5998600000000 1.0
C      1  0.4132920000000  0.4703730000000  0.4629360000000 1.0
C      1  0.4070220000000  0.5263080000000  0.4639040000000 1.0
C      1  0.4225080000000  0.4698340000000  0.4353270000000 1.0
C      1  0.4209930000000  0.5328590000000  0.4380280000000 1.0
C      1  0.5192170000000  0.5108920000000  0.5595270000000 1.0
C      1  0.5360730000000  0.4850670000000  0.5638550000000 1.0
C      1  0.4708270000000  0.5642250000000  0.4081020000000 1.0
C      1  0.4846880000000  0.4457580000000  0.4161550000000 1.0
C      1  0.3957480000000  0.5274170000000  0.5714890000000 1.0
C      1  0.4119940000000  0.4764740000000  0.5762190000000 1.0
C      1  0.4870220000000  0.4800610000000  0.4937910000000 1.0
C      1  0.4835110000000  0.5243090000000  0.4972920000000 1.0
C      1  0.4918700000000  0.4338380000000  0.5100310000000 1.0
C      1  0.4929390000000  0.5629530000000  0.5011590000000 1.0
C      1  0.4995990000000  0.5456820000000  0.5495710000000 1.0
C      1  0.4996760000000  0.4576200000000  0.5410790000000 1.0
C      1  0.6082030000000  0.4862580000000  0.5216050000000 1.0
C      1  0.6033810000000  0.5157700000000  0.5225480000000 1.0
C      1  0.4436960000000  0.5413950000000  0.5610620000000 1.0
C      1  0.4681070000000  0.4634050000000  0.5736870000000 1.0
C      1  0.4813780000000  0.4221980000000  0.5395530000000 1.0
C      1  0.4745880000000  0.5790380000000  0.5248460000000 1.0
C      1  0.5317210000000  0.4210590000000  0.5582920000000 1.0
C      1  0.5201810000000  0.5909370000000  0.5551680000000 1.0
C      1  0.5431530000000  0.4099230000000  0.4944710000000 1.0
C      1  0.5488800000000  0.5932180000000  0.4921930000000 1.0
C      1  0.4475290000000  0.4874860000000  0.5350180000000 1.0
C      1  0.4576400000000  0.5186160000000  0.5311790000000 1.0
C      1  0.4116690000000  0.4828930000000  0.4945790000000 1.0
C      1  0.4060830000000  0.5154460000000  0.4953320000000 1.0
C      1  0.5213930000000  0.5613660000000  0.5285030000000 1.0
C      1  0.5257270000000  0.4378860000000  0.5308130000000 1.0
C      1  0.5203090000000  0.5907520000000  0.4860380000000 1.0
C      1  0.5133930000000  0.4081600000000  0.4884620000000 1.0
C      1  0.4802100000000  0.4031710000000  0.4829640000000 1.0
C      1  0.4862690000000  0.5965430000000  0.4840720000000 1.0
C      1  0.4305740000000  0.5674890000000  0.4913770000000 1.0
C      1  0.4318920000000  0.4307450000000  0.4927950000000 1.0
C      1  0.5028690000000  0.4337060000000  0.5632980000000 1.0
C      1  0.4944990000000  0.5783000000000  0.5524120000000 1.0
C      1  0.4911480000000  0.5755470000000  0.4587310000000 1.0
C      1  0.4877190000000  0.4192400000000  0.4573620000000 1.0
C      1  0.5176950000000  0.5171850000000  0.4014520000000 1.0
C      1  0.5176700000000  0.4925240000000  0.4198790000000 1.0
C      1  0.4698450000000  0.4695240000000  0.4093260000000 1.0
C      1  0.4684830000000  0.5371420000000  0.4106740000000 1.0
C      1  0.4830080000000  0.4854600000000  0.5791750000000 1.0
C      1  0.4891060000000  0.5032950000000  0.5599920000000 1.0
C      1  0.4567310000000  0.5155110000000  0.4782660000000 1.0
C      1  0.4602210000000  0.4811580000000  0.4762630000000 1.0
C      1  0.5741930000000  0.4581170000000  0.4596500000000 1.0
C      1  0.5783000000000  0.5353940000000  0.4607970000000 1.0
C      1  0.5679990000000  0.4796880000000  0.4340100000000 1.0
C      1  0.5640840000000  0.5110910000000  0.4407500000000 1.0
C      1  0.4193110000000  0.4885360000000  0.5489860000000 1.0
C      1  0.4166960000000  0.5222760000000  0.5524780000000 1.0
C      1  0.4565610000000  0.5897310000000  0.4980640000000 1.0
C      1  0.4505390000000  0.4034440000000  0.4850590000000 1.0
C      1  0.5163050000000  0.4540500000000  0.4257850000000 1.0
C      1  0.5191950000000  0.5397990000000  0.4431900000000 1.0
C      1  0.4971450000000  0.4507050000000  0.4536740000000 1.0
C      1  0.4660060000000  0.5545120000000  0.4611500000000 1.0
C      1  0.5507300000000  0.5410440000000  0.4317780000000 1.0
C      1  0.5483430000000  0.4623730000000  0.4179000000000 1.0
C      1  0.4225840000000  0.5599000000000  0.4329400000000 1.0
C      1  0.4248640000000  0.4437110000000  0.4240190000000 1.0
C      1  0.5754460000000  0.5565140000000  0.5440140000000 1.0
C      1  0.5725330000000  0.4462550000000  0.5472860000000 1.0
C      1  0.4432910000000  0.4812540000000  0.5044290000000 1.0
C      1  0.4366590000000  0.5121090000000  0.5055020000000 1.0
C      1  0.5584420000000  0.4228380000000  0.5645770000000 1.0
C      1  0.5472700000000  0.5747960000000  0.5424100000000 1.0
C      1  0.5331150000000  0.4586240000000  0.5828060000000 1.0
C      1  0.5303090000000  0.5374890000000  0.5738550000000 1.0
C      1  0.5853370000000  0.4713900000000  0.5320760000000 1.0
C      1  0.5804330000000  0.5263600000000  0.5347410000000 1.0
END
