TITL C-2622967-6265-276 0.000468316461242583 125000 -562.749141026634 0 0 105 (C1) n - 1
REM
REM in /nfs/bkarasulu/CARBON/AIRSS/Generating-Clusters/AIREBO/with-SteepDescent/Higher-Symm/SD-CG/HFTN-CG
REM
REM
REM
REM
REM
REM ./C.cell (b20cbc046b6831c77cfcea5457e17084)
REM
REM compiler GCC version 9.2.1 20190827 (Red Hat 9.2.1-1)
REM options -cpp -mtune=generic -march=x86-64 -g -O0 -fpre-include=/usr/include/finclude/math-vector-fortran.h
REM seed 2061213718 1473005398 187424584 -1991958622 -836067807 1680724700 -160284249 739087851 537398568 1036559821 233419465 -2014368252 1398042001 -727110864 1406127030 204180453 -161404738 1310183203 -236815606 1413110979 1955964281 399905159 -437088987 -857030557 -1015865038 1148385568 897840794 1121389457 1666402516 -1528484636 376397260 2105662994 1597925507
REM
CELL 1.54180   50.00000   50.00000   50.00000   90.00000   90.00000   90.00000
LATT -1
SFAC C  
C      1  0.4545270000000  0.5347800000000  0.4694370000000 1.0
C      1  0.5201840000000  0.5548040000000  0.4717690000000 1.0
C      1  0.5611710000000  0.4893470000000  0.4669010000000 1.0
C      1  0.5150330000000  0.4493670000000  0.4706680000000 1.0
C      1  0.4464800000000  0.4723120000000  0.4666900000000 1.0
C      1  0.4961400000000  0.4750800000000  0.4470960000000 1.0
C      1  0.4721800000000  0.4961460000000  0.4459450000000 1.0
C      1  0.4884970000000  0.5237830000000  0.4467580000000 1.0
C      1  0.5201840000000  0.5183570000000  0.4470190000000 1.0
C      1  0.5263170000000  0.4865840000000  0.4476820000000 1.0
C      1  0.4081660000000  0.4958640000000  0.5018150000000 1.0
C      1  0.4650310000000  0.5850290000000  0.4974460000000 1.0
C      1  0.5787440000000  0.5513580000000  0.4927420000000 1.0
C      1  0.5749540000000  0.4427070000000  0.5014960000000 1.0
C      1  0.4720830000000  0.4135150000000  0.4979990000000 1.0
C      1  0.4450010000000  0.5453170000000  0.5066970000000 1.0
C      1  0.5276530000000  0.5657960000000  0.5092640000000 1.0
C      1  0.5704720000000  0.4937730000000  0.5055510000000 1.0
C      1  0.5145670000000  0.4321530000000  0.5066200000000 1.0
C      1  0.4394930000000  0.4646090000000  0.5053010000000 1.0
C      1  0.4460800000000  0.5195490000000  0.4272990000000 1.0
C      1  0.5018840000000  0.5570530000000  0.4294730000000 1.0
C      1  0.5542650000000  0.5186950000000  0.4262910000000 1.0
C      1  0.5332830000000  0.4522380000000  0.4288470000000 1.0
C      1  0.4692610000000  0.4532110000000  0.4271840000000 1.0
C      1  0.5709790000000  0.5129720000000  0.5336070000000 1.0
C      1  0.5291240000000  0.4370540000000  0.5360650000000 1.0
C      1  0.4507120000000  0.4522450000000  0.5347620000000 1.0
C      1  0.4371030000000  0.5310080000000  0.5358740000000 1.0
C      1  0.5038910000000  0.5667260000000  0.5308480000000 1.0
C      1  0.4156410000000  0.5020420000000  0.4726870000000 1.0
C      1  0.4766770000000  0.5768930000000  0.4700620000000 1.0
C      1  0.5682250000000  0.5419620000000  0.4667030000000 1.0
C      1  0.5644250000000  0.4504170000000  0.4747480000000 1.0
C      1  0.4721570000000  0.4254860000000  0.4690620000000 1.0
C      1  0.5266990000000  0.4957810000000  0.5775770000000 1.0
C      1  0.5037030000000  0.4746840000000  0.5816480000000 1.0
C      1  0.4768730000000  0.4900130000000  0.5811080000000 1.0
C      1  0.4829090000000  0.5202410000000  0.5807620000000 1.0
C      1  0.5135450000000  0.5236790000000  0.5800220000000 1.0
C      1  0.4731220000000  0.5047230000000  0.5261740000000 1.0
C      1  0.4950580000000  0.5281840000000  0.5268100000000 1.0
C      1  0.5240760000000  0.5150630000000  0.5276290000000 1.0
C      1  0.5201780000000  0.4830260000000  0.5276110000000 1.0
C      1  0.4885740000000  0.4765020000000  0.5258610000000 1.0
C      1  0.4843440000000  0.5249020000000  0.4804880000000 1.0
C      1  0.5186960000000  0.5228740000000  0.4806850000000 1.0
C      1  0.5304920000000  0.4909000000000  0.4811570000000 1.0
C      1  0.4918770000000  0.4689110000000  0.4791930000000 1.0
C      1  0.4697790000000  0.4933500000000  0.4797550000000 1.0
C      1  0.5327330000000  0.5486130000000  0.5855520000000 1.0
C      1  0.5544200000000  0.4796790000000  0.5691230000000 1.0
C      1  0.4978670000000  0.4444870000000  0.5839260000000 1.0
C      1  0.4467520000000  0.4850210000000  0.5840200000000 1.0
C      1  0.4688210000000  0.5475760000000  0.5832500000000 1.0
C      1  0.4837720000000  0.4337350000000  0.4432320000000 1.0
C      1  0.4319170000000  0.4944890000000  0.4454210000000 1.0
C      1  0.4762110000000  0.5637560000000  0.4439950000000 1.0
C      1  0.5534200000000  0.5431840000000  0.4418880000000 1.0
C      1  0.5592610000000  0.4632520000000  0.4451820000000 1.0
C      1  0.4990620000000  0.5284310000000  0.4147440000000 1.0
C      1  0.5265160000000  0.5102290000000  0.4146170000000 1.0
C      1  0.5197050000000  0.4783940000000  0.4152480000000 1.0
C      1  0.4867370000000  0.4764930000000  0.4144360000000 1.0
C      1  0.4730270000000  0.5073490000000  0.4138530000000 1.0
C      1  0.4282950000000  0.5738180000000  0.5082020000000 1.0
C      1  0.5500570000000  0.5857780000000  0.5211060000000 1.0
C      1  0.6011020000000  0.4803620000000  0.5123620000000 1.0
C      1  0.5083790000000  0.3998230000000  0.5076950000000 1.0
C      1  0.4072670000000  0.4565880000000  0.5081490000000 1.0
C      1  0.5404820000000  0.5598120000000  0.5598700000000 1.0
C      1  0.5720710000000  0.4663180000000  0.5509120000000 1.0
C      1  0.4940310000000  0.4344970000000  0.5549740000000 1.0
C      1  0.4350250000000  0.4823680000000  0.5558520000000 1.0
C      1  0.4608920000000  0.5568260000000  0.5549910000000 1.0
C      1  0.5894520000000  0.4859060000000  0.5395520000000 1.0
C      1  0.5067540000000  0.4111860000000  0.5373130000000 1.0
C      1  0.4184230000000  0.4632120000000  0.5368410000000 1.0
C      1  0.4355320000000  0.5650890000000  0.5376950000000 1.0
C      1  0.5582620000000  0.5653080000000  0.5398110000000 1.0
C      1  0.5111160000000  0.5435130000000  0.5525020000000 1.0
C      1  0.5445500000000  0.5050780000000  0.5502920000000 1.0
C      1  0.5144590000000  0.4615900000000  0.5521690000000 1.0
C      1  0.4679570000000  0.4748300000000  0.5520050000000 1.0
C      1  0.4647750000000  0.5231510000000  0.5522160000000 1.0
C      1  0.4580400000000  0.4489520000000  0.4864600000000 1.0
C      1  0.4342890000000  0.5226290000000  0.4882570000000 1.0
C      1  0.5012240000000  0.5698920000000  0.4910670000000 1.0
C      1  0.5608600000000  0.5165110000000  0.4852840000000 1.0
C      1  0.5369100000000  0.4461100000000  0.4898900000000 1.0
C      1  0.4738010000000  0.4283310000000  0.5288490000000 1.0
C      1  0.4254190000000  0.5002230000000  0.5308600000000 1.0
C      1  0.4718570000000  0.5717710000000  0.5281510000000 1.0
C      1  0.5674400000000  0.5417910000000  0.5229610000000 1.0
C      1  0.5572980000000  0.4512590000000  0.5291110000000 1.0
C      1  0.5270060000000  0.5575990000000  0.4447180000000 1.0
C      1  0.5675330000000  0.4951800000000  0.4356990000000 1.0
C      1  0.5130580000000  0.4389770000000  0.4448060000000 1.0
C      1  0.4444610000000  0.4640810000000  0.4357530000000 1.0
C      1  0.4538180000000  0.5430430000000  0.4425960000000 1.0
C      1  0.5395340000000  0.5340670000000  0.5051240000000 1.0
C      1  0.5450330000000  0.4735700000000  0.5065530000000 1.0
C      1  0.4860360000000  0.4500800000000  0.5057470000000 1.0
C      1  0.4479500000000  0.4969220000000  0.5055950000000 1.0
C      1  0.4788230000000  0.5482060000000  0.5046370000000 1.0
END
