TITL C-2622956-4641-291 -0.00173075485074885 125000 -683.458285189897 0 0 125 (C1) n - 1
REM
REM in /nfs/bkarasulu/CARBON/AIRSS/Generating-Clusters/AIREBO/with-SteepDescent/Higher-Symm/SD-CG/HFTN-CG
REM
REM
REM
REM
REM
REM ./C.cell (b20cbc046b6831c77cfcea5457e17084)
REM
REM compiler GCC version 9.2.1 20190827 (Red Hat 9.2.1-1)
REM options -cpp -mtune=generic -march=x86-64 -g -O0 -fpre-include=/usr/include/finclude/math-vector-fortran.h
REM seed -1590656599 -906783195 394375925 -1409034970 -1446812146 -1413533215 -1143049415 -2053800425 -2048960374 1051986997 -709364377 -1406688700 -755000450 -1379594707 -101858374 -1537962880 -1288800450 1353248098 1636731026 94272815 -1166515728 756766539 -1229040104 -705163757 1302774173 -607341908 1931641468 1786944693 -433896154 1560889124 -1402453395 -192214366 820587461
REM
CELL 1.54180   50.00000   50.00000   50.00000   90.00000   90.00000   90.00000
LATT -1
SFAC C  
C      1  0.4837340000000  0.4123740000000  0.5184510000000 1.0
C      1  0.5967810000000  0.4923640000000  0.4641720000000 1.0
C      1  0.5811050000000  0.4616680000000  0.5165080000000 1.0
C      1  0.4382440000000  0.5512140000000  0.4538920000000 1.0
C      1  0.4533570000000  0.4655680000000  0.5467360000000 1.0
C      1  0.4209150000000  0.4307590000000  0.5128450000000 1.0
C      1  0.5323580000000  0.4643460000000  0.5052120000000 1.0
C      1  0.5110560000000  0.4133060000000  0.5617460000000 1.0
C      1  0.5366440000000  0.4074200000000  0.4611870000000 1.0
C      1  0.4814990000000  0.5457530000000  0.5580410000000 1.0
C      1  0.5736000000000  0.5128900000000  0.5586490000000 1.0
C      1  0.5497220000000  0.5147670000000  0.5810980000000 1.0
C      1  0.5266780000000  0.5447120000000  0.4846140000000 1.0
C      1  0.4817960000000  0.4474800000000  0.4637300000000 1.0
C      1  0.5561780000000  0.4413340000000  0.5275770000000 1.0
C      1  0.5245820000000  0.5280410000000  0.4181510000000 1.0
C      1  0.4305760000000  0.5366150000000  0.5360530000000 1.0
C      1  0.4736600000000  0.5071300000000  0.4114250000000 1.0
C      1  0.5405850000000  0.5086660000000  0.4564200000000 1.0
C      1  0.4480910000000  0.5256330000000  0.4740220000000 1.0
C      1  0.4366280000000  0.5085730000000  0.5658140000000 1.0
C      1  0.5134560000000  0.4439160000000  0.5458870000000 1.0
C      1  0.5048360000000  0.5874670000000  0.4683020000000 1.0
C      1  0.5041400000000  0.4480980000000  0.5150020000000 1.0
C      1  0.4725490000000  0.4701700000000  0.4436450000000 1.0
C      1  0.4251820000000  0.4657230000000  0.5464100000000 1.0
C      1  0.5249360000000  0.5621830000000  0.5638500000000 1.0
C      1  0.4438810000000  0.5792990000000  0.5124350000000 1.0
C      1  0.4124640000000  0.4543570000000  0.5220510000000 1.0
C      1  0.4668410000000  0.5720630000000  0.5519430000000 1.0
C      1  0.5777950000000  0.5381220000000  0.4696020000000 1.0
C      1  0.4045330000000  0.5209010000000  0.5194690000000 1.0
C      1  0.5548500000000  0.4410290000000  0.4946780000000 1.0
C      1  0.5354990000000  0.5634830000000  0.4314410000000 1.0
C      1  0.5660060000000  0.5878820000000  0.5258460000000 1.0
C      1  0.5179520000000  0.4257330000000  0.4934350000000 1.0
C      1  0.4590760000000  0.5310880000000  0.4168250000000 1.0
C      1  0.5212840000000  0.5993190000000  0.4878110000000 1.0
C      1  0.4933250000000  0.4988000000000  0.5607850000000 1.0
C      1  0.5256180000000  0.4775190000000  0.4765420000000 1.0
C      1  0.4917300000000  0.4958320000000  0.4356530000000 1.0
C      1  0.4977360000000  0.4645470000000  0.4855190000000 1.0
C      1  0.4317370000000  0.4550650000000  0.4644640000000 1.0
C      1  0.4569270000000  0.4836270000000  0.4204960000000 1.0
C      1  0.5820610000000  0.4906270000000  0.5065760000000 1.0
C      1  0.5530530000000  0.5401860000000  0.4228870000000 1.0
C      1  0.4854060000000  0.5020380000000  0.5281470000000 1.0
C      1  0.5817230000000  0.4980210000000  0.4405930000000 1.0
C      1  0.4555930000000  0.4962530000000  0.4897560000000 1.0
C      1  0.5542840000000  0.4529720000000  0.4444120000000 1.0
C      1  0.4549530000000  0.4367350000000  0.4760340000000 1.0
C      1  0.4494270000000  0.4250010000000  0.5032350000000 1.0
C      1  0.5149620000000  0.4922700000000  0.5138620000000 1.0
C      1  0.4277880000000  0.5388470000000  0.5050920000000 1.0
C      1  0.5092140000000  0.4275090000000  0.4613650000000 1.0
C      1  0.4859440000000  0.5227740000000  0.4864380000000 1.0
C      1  0.5539890000000  0.4138640000000  0.4789190000000 1.0
C      1  0.5950820000000  0.5158430000000  0.4877740000000 1.0
C      1  0.4065120000000  0.5243590000000  0.4851200000000 1.0
C      1  0.4271900000000  0.4803470000000  0.4874140000000 1.0
C      1  0.4740150000000  0.5529760000000  0.4266160000000 1.0
C      1  0.4313070000000  0.4928750000000  0.4272800000000 1.0
C      1  0.5228770000000  0.5085410000000  0.5523970000000 1.0
C      1  0.5676000000000  0.4773770000000  0.4269150000000 1.0
C      1  0.5969050000000  0.5417280000000  0.5080880000000 1.0
C      1  0.4762730000000  0.4764590000000  0.5887860000000 1.0
C      1  0.4745230000000  0.4172280000000  0.4387120000000 1.0
C      1  0.5033740000000  0.5518170000000  0.4290270000000 1.0
C      1  0.5333560000000  0.4177660000000  0.5185720000000 1.0
C      1  0.4720360000000  0.4444270000000  0.5188140000000 1.0
C      1  0.5904850000000  0.4674870000000  0.4740950000000 1.0
C      1  0.5607980000000  0.4970790000000  0.4809480000000 1.0
C      1  0.5704530000000  0.5586550000000  0.5160210000000 1.0
C      1  0.4866250000000  0.5905910000000  0.5455310000000 1.0
C      1  0.4187390000000  0.4828940000000  0.4545720000000 1.0
C      1  0.5581980000000  0.5550050000000  0.4856190000000 1.0
C      1  0.5159270000000  0.5789110000000  0.5387360000000 1.0
C      1  0.4935960000000  0.5347040000000  0.5328820000000 1.0
C      1  0.4677160000000  0.5941600000000  0.5076840000000 1.0
C      1  0.4498720000000  0.4339410000000  0.4438290000000 1.0
C      1  0.5068400000000  0.5598110000000  0.5853300000000 1.0
C      1  0.4718010000000  0.4032160000000  0.4897670000000 1.0
C      1  0.5502460000000  0.5144890000000  0.5081920000000 1.0
C      1  0.5225230000000  0.4451280000000  0.4354740000000 1.0
C      1  0.5567420000000  0.4641440000000  0.4735370000000 1.0
C      1  0.4525150000000  0.5549570000000  0.4907200000000 1.0
C      1  0.5220780000000  0.4999420000000  0.4317950000000 1.0
C      1  0.4685190000000  0.4582200000000  0.5691830000000 1.0
C      1  0.4880070000000  0.5315380000000  0.5872330000000 1.0
C      1  0.4508670000000  0.5393500000000  0.5682850000000 1.0
C      1  0.5415280000000  0.5366420000000  0.5561830000000 1.0
C      1  0.5401240000000  0.4581630000000  0.5478690000000 1.0
C      1  0.4320750000000  0.5231240000000  0.4264460000000 1.0
C      1  0.5666740000000  0.5009510000000  0.5336130000000 1.0
C      1  0.5500720000000  0.5855950000000  0.4895980000000 1.0
C      1  0.4603560000000  0.5659650000000  0.4468450000000 1.0
C      1  0.4111540000000  0.4878990000000  0.5164910000000 1.0
C      1  0.5170850000000  0.5217090000000  0.5832050000000 1.0
C      1  0.5662210000000  0.5243440000000  0.4449620000000 1.0
C      1  0.5385290000000  0.4870910000000  0.5371640000000 1.0
C      1  0.5455470000000  0.5409450000000  0.5249540000000 1.0
C      1  0.4156820000000  0.4933480000000  0.5500230000000 1.0
C      1  0.5157130000000  0.5541820000000  0.5153890000000 1.0
C      1  0.4973000000000  0.4262020000000  0.4232390000000 1.0
C      1  0.5349130000000  0.4857190000000  0.5882850000000 1.0
C      1  0.4873550000000  0.4367900000000  0.5655230000000 1.0
C      1  0.5165530000000  0.5607790000000  0.4589710000000 1.0
C      1  0.4425160000000  0.5678520000000  0.5381530000000 1.0
C      1  0.5240100000000  0.5108760000000  0.4868620000000 1.0
C      1  0.4842420000000  0.4046560000000  0.4646430000000 1.0
C      1  0.5071220000000  0.4834320000000  0.5876860000000 1.0
C      1  0.4901910000000  0.5719340000000  0.5016080000000 1.0
C      1  0.4733360000000  0.4112020000000  0.5497630000000 1.0
C      1  0.4645730000000  0.4775870000000  0.5169670000000 1.0
C      1  0.4670320000000  0.5060190000000  0.5811360000000 1.0
C      1  0.4583890000000  0.5178210000000  0.5414960000000 1.0
C      1  0.4791310000000  0.5415160000000  0.5056730000000 1.0
C      1  0.5480400000000  0.4640760000000  0.5774610000000 1.0
C      1  0.4737550000000  0.5767430000000  0.4722320000000 1.0
C      1  0.5120510000000  0.4061480000000  0.5329280000000 1.0
C      1  0.4202490000000  0.5160920000000  0.4576000000000 1.0
C      1  0.5342800000000  0.4743110000000  0.4218030000000 1.0
C      1  0.4784170000000  0.4862660000000  0.4720650000000 1.0
C      1  0.5345050000000  0.5944970000000  0.5187690000000 1.0
C      1  0.4991430000000  0.5096320000000  0.4636950000000 1.0
END
