TITL C-2622957-9142-175 4.63484491015455 125000 -744.753801217477 0 0 138 (C1) n - 1
REM
REM in /nfs/bkarasulu/CARBON/AIRSS/Generating-Clusters/AIREBO/with-SteepDescent/Higher-Symm/SD-CG/HFTN-CG
REM
REM
REM
REM
REM
REM ./C.cell (b20cbc046b6831c77cfcea5457e17084)
REM
REM compiler GCC version 9.2.1 20190827 (Red Hat 9.2.1-1)
REM options -cpp -mtune=generic -march=x86-64 -g -O0 -fpre-include=/usr/include/finclude/math-vector-fortran.h
REM seed -1254085227 1901472019 2052839675 -215959147 -1512140150 1667612085 -1727430813 1929379497 -101705780 -775690577 -693652823 1952352517 1045600349 -1004467457 1647386044 -1389405663 -1973272534 1395459595 2065920760 173463756 -299664909 1860238850 -1945859179 -66469599 -1020739734 -1679044309 1504209354 1991179041 2060082153 -2054416382 -501336794 944435725 -1878826759
REM
CELL 1.54180   50.00000   50.00000   50.00000   90.00000   90.00000   90.00000
LATT -1
SFAC C  
C      1  0.5259370000000  0.4828900000000  0.4823510000000 1.0
C      1  0.4976880000000  0.4712830000000  0.4873510000000 1.0
C      1  0.4719200000000  0.4886580000000  0.4815490000000 1.0
C      1  0.4780640000000  0.5192000000000  0.4745870000000 1.0
C      1  0.5053450000000  0.5280580000000  0.4843700000000 1.0
C      1  0.5294220000000  0.5110630000000  0.4735440000000 1.0
C      1  0.5261370000000  0.4809030000000  0.5136460000000 1.0
C      1  0.4993060000000  0.4644860000000  0.5191700000000 1.0
C      1  0.4726550000000  0.4853410000000  0.5158840000000 1.0
C      1  0.4820180000000  0.5149730000000  0.5253990000000 1.0
C      1  0.5065790000000  0.5260430000000  0.5144460000000 1.0
C      1  0.5297780000000  0.5095750000000  0.5243090000000 1.0
C      1  0.5764710000000  0.4884900000000  0.5155670000000 1.0
C      1  0.5177450000000  0.4128580000000  0.5118690000000 1.0
C      1  0.4292350000000  0.4561620000000  0.5268540000000 1.0
C      1  0.4315460000000  0.5199320000000  0.5176720000000 1.0
C      1  0.4746800000000  0.5657740000000  0.5172570000000 1.0
C      1  0.5683360000000  0.5471000000000  0.5204610000000 1.0
C      1  0.5774700000000  0.4824900000000  0.4835840000000 1.0
C      1  0.5195820000000  0.4255350000000  0.4813830000000 1.0
C      1  0.4317110000000  0.4579390000000  0.4765880000000 1.0
C      1  0.4252980000000  0.5109680000000  0.4852460000000 1.0
C      1  0.4884270000000  0.5805550000000  0.4902560000000 1.0
C      1  0.5701190000000  0.5430680000000  0.4877010000000 1.0
C      1  0.4746650000000  0.4777980000000  0.4493890000000 1.0
C      1  0.4730030000000  0.5103120000000  0.4421580000000 1.0
C      1  0.4999710000000  0.5300290000000  0.4358200000000 1.0
C      1  0.5261660000000  0.5178170000000  0.4439250000000 1.0
C      1  0.5274320000000  0.4862750000000  0.4380230000000 1.0
C      1  0.5005920000000  0.4665420000000  0.4370510000000 1.0
C      1  0.4746630000000  0.4817690000000  0.5496820000000 1.0
C      1  0.4721130000000  0.5139410000000  0.5579220000000 1.0
C      1  0.4997470000000  0.5328460000000  0.5608270000000 1.0
C      1  0.5264390000000  0.5212390000000  0.5535460000000 1.0
C      1  0.5308540000000  0.4895380000000  0.5588620000000 1.0
C      1  0.5020400000000  0.4712980000000  0.5602350000000 1.0
C      1  0.4746000000000  0.4364520000000  0.5679630000000 1.0
C      1  0.4292280000000  0.4800300000000  0.5700310000000 1.0
C      1  0.4384050000000  0.5535160000000  0.5765120000000 1.0
C      1  0.5132280000000  0.5777770000000  0.5689330000000 1.0
C      1  0.5721250000000  0.5247590000000  0.5704940000000 1.0
C      1  0.5551660000000  0.4517510000000  0.5669100000000 1.0
C      1  0.4834320000000  0.4239130000000  0.4267690000000 1.0
C      1  0.4282790000000  0.4782100000000  0.4277560000000 1.0
C      1  0.4524200000000  0.5541400000000  0.4305300000000 1.0
C      1  0.5240580000000  0.5645120000000  0.4301070000000 1.0
C      1  0.5706340000000  0.5203280000000  0.4279370000000 1.0
C      1  0.5487570000000  0.4451820000000  0.4288680000000 1.0
C      1  0.4838760000000  0.5259650000000  0.4066450000000 1.0
C      1  0.5145600000000  0.5266080000000  0.3988620000000 1.0
C      1  0.5280780000000  0.5000840000000  0.4069560000000 1.0
C      1  0.5113730000000  0.4712270000000  0.4050870000000 1.0
C      1  0.4796280000000  0.4717310000000  0.4034320000000 1.0
C      1  0.4676770000000  0.4996950000000  0.4099120000000 1.0
C      1  0.4869870000000  0.5297200000000  0.5914950000000 1.0
C      1  0.5193640000000  0.5312690000000  0.5954850000000 1.0
C      1  0.5322080000000  0.5031800000000  0.5899820000000 1.0
C      1  0.5133650000000  0.4764280000000  0.5918910000000 1.0
C      1  0.4829610000000  0.4757490000000  0.5978230000000 1.0
C      1  0.4696650000000  0.5030810000000  0.5903030000000 1.0
C      1  0.4067910000000  0.5392800000000  0.4887700000000 1.0
C      1  0.5129370000000  0.6022430000000  0.4985530000000 1.0
C      1  0.6031120000000  0.5478000000000  0.4809670000000 1.0
C      1  0.5800820000000  0.4521050000000  0.4832280000000 1.0
C      1  0.4929800000000  0.4045680000000  0.4782900000000 1.0
C      1  0.4047210000000  0.4566610000000  0.4843240000000 1.0
C      1  0.4197900000000  0.5516740000000  0.5144380000000 1.0
C      1  0.4795820000000  0.5949850000000  0.5339580000000 1.0
C      1  0.5993540000000  0.5463640000000  0.5144480000000 1.0
C      1  0.5957240000000  0.4622740000000  0.5254860000000 1.0
C      1  0.5116290000000  0.3832640000000  0.5136510000000 1.0
C      1  0.4014060000000  0.4591300000000  0.5152250000000 1.0
C      1  0.6037560000000  0.5041580000000  0.5284630000000 1.0
C      1  0.5427840000000  0.4217570000000  0.5267100000000 1.0
C      1  0.4483700000000  0.4301920000000  0.5160990000000 1.0
C      1  0.4073080000000  0.4973560000000  0.5253680000000 1.0
C      1  0.4422810000000  0.5724500000000  0.5251240000000 1.0
C      1  0.5479650000000  0.5678690000000  0.5275890000000 1.0
C      1  0.5956440000000  0.5042700000000  0.4694170000000 1.0
C      1  0.5507410000000  0.4155820000000  0.4721020000000 1.0
C      1  0.4499550000000  0.4372680000000  0.4692680000000 1.0
C      1  0.3980250000000  0.5033830000000  0.4664040000000 1.0
C      1  0.4622350000000  0.5777310000000  0.4739890000000 1.0
C      1  0.5501430000000  0.5639420000000  0.4773580000000 1.0
C      1  0.4406120000000  0.4879980000000  0.5250940000000 1.0
C      1  0.4601120000000  0.5363250000000  0.5261720000000 1.0
C      1  0.5058850000000  0.5549720000000  0.5224380000000 1.0
C      1  0.5576240000000  0.5168410000000  0.5150980000000 1.0
C      1  0.5520340000000  0.4655550000000  0.5189620000000 1.0
C      1  0.4943560000000  0.4328690000000  0.5188410000000 1.0
C      1  0.4411840000000  0.4841520000000  0.4794760000000 1.0
C      1  0.4490240000000  0.5337080000000  0.4765180000000 1.0
C      1  0.5072350000000  0.5575560000000  0.4768390000000 1.0
C      1  0.5606900000000  0.5120520000000  0.4824800000000 1.0
C      1  0.5363070000000  0.4542390000000  0.4740570000000 1.0
C      1  0.4937460000000  0.4457040000000  0.4740730000000 1.0
C      1  0.5764110000000  0.4923140000000  0.4448540000000 1.0
C      1  0.5355780000000  0.4258640000000  0.4448760000000 1.0
C      1  0.4537180000000  0.4327970000000  0.4377850000000 1.0
C      1  0.4192430000000  0.5067080000000  0.4419770000000 1.0
C      1  0.4686770000000  0.5693040000000  0.4475910000000 1.0
C      1  0.5469160000000  0.5626300000000  0.4494890000000 1.0
C      1  0.5820470000000  0.4983500000000  0.5538150000000 1.0
C      1  0.5327920000000  0.4315880000000  0.5536480000000 1.0
C      1  0.4486300000000  0.4372790000000  0.5481460000000 1.0
C      1  0.4210970000000  0.5074990000000  0.5547260000000 1.0
C      1  0.4594350000000  0.5669790000000  0.5540000000000 1.0
C      1  0.5431900000000  0.5688850000000  0.5589070000000 1.0
C      1  0.4979560000000  0.5600470000000  0.4467460000000 1.0
C      1  0.5504900000000  0.5356000000000  0.4380550000000 1.0
C      1  0.5520780000000  0.4696610000000  0.4480610000000 1.0
C      1  0.5055370000000  0.4343440000000  0.4450730000000 1.0
C      1  0.4489370000000  0.4641520000000  0.4397680000000 1.0
C      1  0.4434430000000  0.5280540000000  0.4446070000000 1.0
C      1  0.4930870000000  0.5623610000000  0.5524850000000 1.0
C      1  0.5503430000000  0.5383320000000  0.5608040000000 1.0
C      1  0.5581920000000  0.4765800000000  0.5493000000000 1.0
C      1  0.5012720000000  0.4406680000000  0.5512130000000 1.0
C      1  0.4502730000000  0.4665320000000  0.5589270000000 1.0
C      1  0.4427050000000  0.5306520000000  0.5544770000000 1.0
C      1  0.5271220000000  0.4495680000000  0.5825580000000 1.0
C      1  0.4733660000000  0.4500560000000  0.5922600000000 1.0
C      1  0.4379000000000  0.5055820000000  0.5851040000000 1.0
C      1  0.4704000000000  0.5555710000000  0.5846560000000 1.0
C      1  0.5292950000000  0.5575680000000  0.5883960000000 1.0
C      1  0.5641150000000  0.4970160000000  0.5831610000000 1.0
C      1  0.5370540000000  0.4514150000000  0.4045730000000 1.0
C      1  0.4682800000000  0.4465500000000  0.4097980000000 1.0
C      1  0.4364000000000  0.5042550000000  0.4123510000000 1.0
C      1  0.4630010000000  0.5491020000000  0.4055930000000 1.0
C      1  0.5247630000000  0.5520740000000  0.4041650000000 1.0
C      1  0.5591950000000  0.4942220000000  0.4150580000000 1.0
C      1  0.5532480000000  0.4381740000000  0.4987850000000 1.0
C      1  0.3951470000000  0.4870450000000  0.4961010000000 1.0
C      1  0.4438810000000  0.5609540000000  0.4923130000000 1.0
C      1  0.4720060000000  0.4283170000000  0.4936030000000 1.0
C      1  0.5268030000000  0.5711860000000  0.5010860000000 1.0
C      1  0.6066260000000  0.5178320000000  0.4974460000000 1.0
END
