TITL C-2622962-9663-728 -0.000523587454227225 125000 -649.427570799422 0 0 121 (C1) n - 1
REM
REM in /nfs/bkarasulu/CARBON/AIRSS/Generating-Clusters/AIREBO/with-SteepDescent/Higher-Symm/SD-CG/HFTN-CG
REM
REM
REM
REM
REM
REM ./C.cell (b20cbc046b6831c77cfcea5457e17084)
REM
REM compiler GCC version 9.2.1 20190827 (Red Hat 9.2.1-1)
REM options -cpp -mtune=generic -march=x86-64 -g -O0 -fpre-include=/usr/include/finclude/math-vector-fortran.h
REM seed 1429974820 1818515774 -1934305131 -1821098097 2004817014 -1717089380 -1710668684 2086047007 -1523074435 1350110236 -395056034 542936641 1164282314 -1197659959 -243039857 -870911052 878409006 1824797593 1396658330 1202401109 -1814253741 1256740176 -971072313 373384352 -175017106 235247338 2121094789 -737313847 -197415072 568400556 -1543908072 -1899426124 -188670644
REM
CELL 1.54180   50.00000   50.00000   50.00000   90.00000   90.00000   90.00000
LATT -1
SFAC C  
C      1  0.4888170000000  0.5071870000000  0.4768850000000 1.0
C      1  0.4592110000000  0.4744810000000  0.4777710000000 1.0
C      1  0.5265250000000  0.4385060000000  0.3990800000000 1.0
C      1  0.5172030000000  0.4676870000000  0.4020130000000 1.0
C      1  0.4655430000000  0.5255570000000  0.4635520000000 1.0
C      1  0.5330670000000  0.4376130000000  0.4947780000000 1.0
C      1  0.4336200000000  0.5342840000000  0.5220480000000 1.0
C      1  0.4102560000000  0.4749990000000  0.4792270000000 1.0
C      1  0.5066150000000  0.5194490000000  0.4398200000000 1.0
C      1  0.4345850000000  0.4523740000000  0.4812240000000 1.0
C      1  0.4147510000000  0.4614730000000  0.5320370000000 1.0
C      1  0.5545890000000  0.4898020000000  0.5592080000000 1.0
C      1  0.4332680000000  0.5459420000000  0.4458580000000 1.0
C      1  0.4738210000000  0.5814220000000  0.5553530000000 1.0
C      1  0.5164330000000  0.4171990000000  0.4732480000000 1.0
C      1  0.5332800000000  0.5412530000000  0.5178020000000 1.0
C      1  0.4801310000000  0.5824700000000  0.4771120000000 1.0
C      1  0.5092100000000  0.4586010000000  0.4485860000000 1.0
C      1  0.5674610000000  0.5068250000000  0.5021670000000 1.0
C      1  0.5404250000000  0.4720250000000  0.4499580000000 1.0
C      1  0.5366300000000  0.5344470000000  0.4453590000000 1.0
C      1  0.5381550000000  0.5651710000000  0.4320660000000 1.0
C      1  0.5208830000000  0.5184000000000  0.4783550000000 1.0
C      1  0.5339940000000  0.5086470000000  0.5081800000000 1.0
C      1  0.4706250000000  0.4544550000000  0.5361930000000 1.0
C      1  0.4519030000000  0.4325990000000  0.5212630000000 1.0
C      1  0.4810980000000  0.4639450000000  0.4988520000000 1.0
C      1  0.4803550000000  0.5371360000000  0.5038270000000 1.0
C      1  0.5436370000000  0.4679520000000  0.4835870000000 1.0
C      1  0.4344500000000  0.5542150000000  0.4734200000000 1.0
C      1  0.5043100000000  0.5823980000000  0.4635250000000 1.0
C      1  0.5165130000000  0.5504500000000  0.5546220000000 1.0
C      1  0.4860060000000  0.5467900000000  0.4195380000000 1.0
C      1  0.4210590000000  0.4835450000000  0.5571430000000 1.0
C      1  0.5906150000000  0.4796470000000  0.5228710000000 1.0
C      1  0.5667850000000  0.5041560000000  0.4300140000000 1.0
C      1  0.5003650000000  0.4906000000000  0.4513990000000 1.0
C      1  0.5331440000000  0.5808060000000  0.4789220000000 1.0
C      1  0.4736720000000  0.4714280000000  0.5893250000000 1.0
C      1  0.4879600000000  0.4179080000000  0.4790340000000 1.0
C      1  0.4553330000000  0.4997410000000  0.4300930000000 1.0
C      1  0.4625830000000  0.5025180000000  0.5855510000000 1.0
C      1  0.4140590000000  0.4918630000000  0.5058560000000 1.0
C      1  0.5001990000000  0.4687610000000  0.5248310000000 1.0
C      1  0.4151480000000  0.5083390000000  0.5344800000000 1.0
C      1  0.5213900000000  0.4272140000000  0.4465830000000 1.0
C      1  0.5198900000000  0.5011710000000  0.3967420000000 1.0
C      1  0.5048460000000  0.4708210000000  0.5947950000000 1.0
C      1  0.5492540000000  0.5483560000000  0.5469720000000 1.0
C      1  0.5380210000000  0.5026200000000  0.4576590000000 1.0
C      1  0.5227520000000  0.5010930000000  0.5619620000000 1.0
C      1  0.4335900000000  0.5161740000000  0.4414710000000 1.0
C      1  0.5248680000000  0.4253390000000  0.5255060000000 1.0
C      1  0.4695800000000  0.4849230000000  0.4502150000000 1.0
C      1  0.5664120000000  0.4401190000000  0.5010630000000 1.0
C      1  0.4294990000000  0.4781220000000  0.4517930000000 1.0
C      1  0.5154030000000  0.4976410000000  0.5918030000000 1.0
C      1  0.4797560000000  0.4972220000000  0.5057610000000 1.0
C      1  0.5900720000000  0.4695600000000  0.4595220000000 1.0
C      1  0.5735660000000  0.4576630000000  0.5220480000000 1.0
C      1  0.5729690000000  0.4752080000000  0.4388670000000 1.0
C      1  0.4797310000000  0.4771660000000  0.5580380000000 1.0
C      1  0.4971840000000  0.4241280000000  0.5320540000000 1.0
C      1  0.5065860000000  0.4547660000000  0.4820120000000 1.0
C      1  0.5692110000000  0.5263510000000  0.4507700000000 1.0
C      1  0.5099450000000  0.4752710000000  0.5537770000000 1.0
C      1  0.4640740000000  0.4936680000000  0.5349980000000 1.0
C      1  0.5293850000000  0.4214140000000  0.4204480000000 1.0
C      1  0.5613680000000  0.5149330000000  0.5810820000000 1.0
C      1  0.5066040000000  0.5612740000000  0.4373790000000 1.0
C      1  0.4653750000000  0.5555820000000  0.4795090000000 1.0
C      1  0.5485100000000  0.5844190000000  0.4499980000000 1.0
C      1  0.4470550000000  0.5644500000000  0.5138960000000 1.0
C      1  0.5691200000000  0.5493370000000  0.5025960000000 1.0
C      1  0.5849640000000  0.4459030000000  0.4788640000000 1.0
C      1  0.5732210000000  0.4769100000000  0.4870270000000 1.0
C      1  0.5439130000000  0.5717230000000  0.5076050000000 1.0
C      1  0.5194600000000  0.4501480000000  0.5720780000000 1.0
C      1  0.4415100000000  0.5029190000000  0.4717770000000 1.0
C      1  0.4702530000000  0.5158680000000  0.5577360000000 1.0
C      1  0.5713960000000  0.5365210000000  0.5286580000000 1.0
C      1  0.5488270000000  0.4656790000000  0.5359450000000 1.0
C      1  0.4181820000000  0.5412840000000  0.4925660000000 1.0
C      1  0.5745760000000  0.5302090000000  0.4785270000000 1.0
C      1  0.5378840000000  0.4395710000000  0.5464240000000 1.0
C      1  0.5026610000000  0.5158450000000  0.5192970000000 1.0
C      1  0.4505940000000  0.5383280000000  0.5511290000000 1.0
C      1  0.5484200000000  0.4651160000000  0.5817800000000 1.0
C      1  0.4402720000000  0.4804930000000  0.5229330000000 1.0
C      1  0.4779420000000  0.5215440000000  0.6059220000000 1.0
C      1  0.4708610000000  0.4250840000000  0.4573620000000 1.0
C      1  0.4533030000000  0.5167830000000  0.5005390000000 1.0
C      1  0.5097630000000  0.5522160000000  0.4958040000000 1.0
C      1  0.4444900000000  0.4588860000000  0.5575040000000 1.0
C      1  0.5474230000000  0.5380530000000  0.5765500000000 1.0
C      1  0.4973400000000  0.5179170000000  0.4095200000000 1.0
C      1  0.4790740000000  0.4492920000000  0.4358590000000 1.0
C      1  0.4924240000000  0.5892890000000  0.5281160000000 1.0
C      1  0.5060910000000  0.5227780000000  0.6009470000000 1.0
C      1  0.4925350000000  0.4323200000000  0.5611740000000 1.0
C      1  0.6015400000000  0.5039860000000  0.5069850000000 1.0
C      1  0.5201040000000  0.5437940000000  0.5878790000000 1.0
C      1  0.5204920000000  0.5755630000000  0.5320500000000 1.0
C      1  0.4751020000000  0.4955140000000  0.4093610000000 1.0
C      1  0.5296030000000  0.4761030000000  0.5135960000000 1.0
C      1  0.4309250000000  0.4970380000000  0.5843690000000 1.0
C      1  0.4117590000000  0.5145390000000  0.4834410000000 1.0
C      1  0.4529020000000  0.5628840000000  0.5621130000000 1.0
C      1  0.5027420000000  0.5218600000000  0.5494260000000 1.0
C      1  0.5736700000000  0.5053370000000  0.5355730000000 1.0
C      1  0.4688880000000  0.5883040000000  0.5035850000000 1.0
C      1  0.4475590000000  0.4487290000000  0.4499490000000 1.0
C      1  0.4765240000000  0.5593450000000  0.5292430000000 1.0
C      1  0.4797310000000  0.4306650000000  0.5057190000000 1.0
C      1  0.4682920000000  0.4423130000000  0.5739260000000 1.0
C      1  0.5386920000000  0.5473280000000  0.4767640000000 1.0
C      1  0.5400250000000  0.4862460000000  0.4190680000000 1.0
C      1  0.4289340000000  0.4442240000000  0.5104610000000 1.0
C      1  0.4623520000000  0.5427800000000  0.4341550000000 1.0
C      1  0.5016530000000  0.5426300000000  0.4641940000000 1.0
C      1  0.4868270000000  0.4690670000000  0.4111430000000 1.0
END
