TITL C-2622964-2985-392 0.000823515064945946 125000 -409.431491870965 0 0 75 (C1) n - 1
REM
REM in /nfs/bkarasulu/CARBON/AIRSS/Generating-Clusters/AIREBO/with-SteepDescent/Higher-Symm/SD-CG/HFTN-CG
REM
REM
REM
REM
REM
REM ./C.cell (b20cbc046b6831c77cfcea5457e17084)
REM
REM compiler GCC version 9.2.1 20190827 (Red Hat 9.2.1-1)
REM options -cpp -mtune=generic -march=x86-64 -g -O0 -fpre-include=/usr/include/finclude/math-vector-fortran.h
REM seed -305890467 403525332 758381085 -588866775 -509932708 -425700340 1905195572 -441904138 1761143089 1411129820 1557873691 1391042636 -438285401 314379715 -111353614 1285628645 -1756079509 -623138617 945008357 -2058593134 -183351552 -1847794721 1313373187 1098323384 1221237130 350589283 1245669244 -1605815757 44225109 1902835601 -1269088520 1748191948 360315939
REM
CELL 1.54180   50.00000   50.00000   50.00000   90.00000   90.00000   90.00000
LATT -1
SFAC C  
C      1  0.4349560000000  0.5089020000000  0.5102930000000 1.0
C      1  0.4763830000000  0.4472700000000  0.5493090000000 1.0
C      1  0.5175640000000  0.4315960000000  0.5665100000000 1.0
C      1  0.4590840000000  0.5228490000000  0.5234830000000 1.0
C      1  0.5649690000000  0.5250180000000  0.4984250000000 1.0
C      1  0.4716920000000  0.4989800000000  0.4389610000000 1.0
C      1  0.5164040000000  0.4805860000000  0.4917680000000 1.0
C      1  0.4394990000000  0.4913840000000  0.4612370000000 1.0
C      1  0.5376770000000  0.5492990000000  0.4824400000000 1.0
C      1  0.4957710000000  0.5361950000000  0.5124780000000 1.0
C      1  0.4804790000000  0.4701990000000  0.5274180000000 1.0
C      1  0.5235550000000  0.5373020000000  0.4260690000000 1.0
C      1  0.4595180000000  0.5297660000000  0.4311710000000 1.0
C      1  0.5220470000000  0.5517890000000  0.4536340000000 1.0
C      1  0.4846520000000  0.5764520000000  0.4824280000000 1.0
C      1  0.5353340000000  0.5058320000000  0.5249510000000 1.0
C      1  0.5095140000000  0.5304060000000  0.4850010000000 1.0
C      1  0.4950560000000  0.5676850000000  0.5131170000000 1.0
C      1  0.5100050000000  0.4717660000000  0.4199190000000 1.0
C      1  0.5286350000000  0.4291470000000  0.5436880000000 1.0
C      1  0.5528050000000  0.4529110000000  0.4502270000000 1.0
C      1  0.4497530000000  0.4715850000000  0.5321710000000 1.0
C      1  0.4426350000000  0.5549310000000  0.4741570000000 1.0
C      1  0.4493550000000  0.4373340000000  0.4980520000000 1.0
C      1  0.4429950000000  0.4671020000000  0.4849120000000 1.0
C      1  0.4837380000000  0.5284570000000  0.4629690000000 1.0
C      1  0.4712720000000  0.4637710000000  0.5785230000000 1.0
C      1  0.5637500000000  0.4677380000000  0.5038120000000 1.0
C      1  0.4744090000000  0.5525730000000  0.5453280000000 1.0
C      1  0.5557000000000  0.5511190000000  0.5083370000000 1.0
C      1  0.5030260000000  0.5983260000000  0.5003280000000 1.0
C      1  0.5364350000000  0.5080540000000  0.4910320000000 1.0
C      1  0.5512870000000  0.5533140000000  0.5350390000000 1.0
C      1  0.4267260000000  0.5209470000000  0.4875720000000 1.0
C      1  0.4731990000000  0.4313980000000  0.5223370000000 1.0
C      1  0.5540900000000  0.4426150000000  0.4967960000000 1.0
C      1  0.5527190000000  0.4743490000000  0.5616490000000 1.0
C      1  0.5228780000000  0.5129990000000  0.5739300000000 1.0
C      1  0.5906940000000  0.5191150000000  0.4917740000000 1.0
C      1  0.4924110000000  0.4860840000000  0.5050540000000 1.0
C      1  0.5001180000000  0.5660760000000  0.5439190000000 1.0
C      1  0.4747020000000  0.5533390000000  0.4311040000000 1.0
C      1  0.4889310000000  0.4400460000000  0.4934580000000 1.0
C      1  0.5274280000000  0.4428350000000  0.4582900000000 1.0
C      1  0.5449810000000  0.5014350000000  0.4412130000000 1.0
C      1  0.4709200000000  0.4112390000000  0.4948670000000 1.0
C      1  0.5072900000000  0.4473240000000  0.4394890000000 1.0
C      1  0.4925170000000  0.5607900000000  0.4583350000000 1.0
C      1  0.4578310000000  0.5655410000000  0.4944020000000 1.0
C      1  0.5613170000000  0.4863550000000  0.4829010000000 1.0
C      1  0.5213900000000  0.4963240000000  0.4275860000000 1.0
C      1  0.4982000000000  0.5246440000000  0.5793850000000 1.0
C      1  0.4500410000000  0.5236810000000  0.4629640000000 1.0
C      1  0.5209480000000  0.4478920000000  0.4913110000000 1.0
C      1  0.4770780000000  0.5114450000000  0.4985440000000 1.0
C      1  0.4768140000000  0.5198150000000  0.5541180000000 1.0
C      1  0.4981700000000  0.5179340000000  0.4340360000000 1.0
C      1  0.5270870000000  0.4531960000000  0.5243410000000 1.0
C      1  0.4734440000000  0.4581280000000  0.4739980000000 1.0
C      1  0.4791500000000  0.4719180000000  0.4258750000000 1.0
C      1  0.5360160000000  0.5270620000000  0.5502600000000 1.0
C      1  0.5492810000000  0.4781960000000  0.5301190000000 1.0
C      1  0.4361410000000  0.4815440000000  0.5109110000000 1.0
C      1  0.4452350000000  0.4736220000000  0.5590030000000 1.0
C      1  0.4625610000000  0.4962560000000  0.5716940000000 1.0
C      1  0.4716940000000  0.4913760000000  0.4716160000000 1.0
C      1  0.5402980000000  0.5231820000000  0.4608240000000 1.0
C      1  0.4776020000000  0.4485630000000  0.4458900000000 1.0
C      1  0.5104700000000  0.4782920000000  0.5397110000000 1.0
C      1  0.5249080000000  0.5585690000000  0.5510590000000 1.0
C      1  0.4577970000000  0.5549670000000  0.5200950000000 1.0
C      1  0.5030420000000  0.5111340000000  0.5342780000000 1.0
C      1  0.5587200000000  0.4802000000000  0.4551560000000 1.0
C      1  0.5026810000000  0.4572380000000  0.5728060000000 1.0
C      1  0.5225230000000  0.4826950000000  0.5701410000000 1.0
END
