TITL C-2622964-2985-467 0.000777096731522837 125000 -821.063538440944 0 0 144 (C1) n - 1
REM
REM in /nfs/bkarasulu/CARBON/AIRSS/Generating-Clusters/AIREBO/with-SteepDescent/Higher-Symm/SD-CG/HFTN-CG
REM
REM
REM
REM
REM
REM ./C.cell (b20cbc046b6831c77cfcea5457e17084)
REM
REM compiler GCC version 9.2.1 20190827 (Red Hat 9.2.1-1)
REM options -cpp -mtune=generic -march=x86-64 -g -O0 -fpre-include=/usr/include/finclude/math-vector-fortran.h
REM seed -346730457 -253528158 228401107 38348794 1059190396 1403009717 -1324959639 -309445064 1235641897 446843190 -531962515 -160935361 843771831 -891195994 -90384404 -1082215613 184039231 2035950900 1785986720 1793109170 2059227965 1994930137 -1907968846 388606918 -1783085491 581800994 -186008276 211181291 377069359 126133316 -455564777 1813771730 -809924986
REM
CELL 1.54180   50.00000   50.00000   50.00000   90.00000   90.00000   90.00000
LATT -1
SFAC C  
C      1  0.5723070000000  0.4483120000000  0.5296220000000 1.0
C      1  0.5807980000000  0.4466470000000  0.4980920000000 1.0
C      1  0.5737860000000  0.4600470000000  0.4675950000000 1.0
C      1  0.5792590000000  0.4912410000000  0.4552660000000 1.0
C      1  0.5701190000000  0.5236680000000  0.4598960000000 1.0
C      1  0.5810430000000  0.5404300000000  0.4857200000000 1.0
C      1  0.5693400000000  0.5483010000000  0.5158310000000 1.0
C      1  0.5757800000000  0.5290260000000  0.5408770000000 1.0
C      1  0.5797120000000  0.4750260000000  0.5422900000000 1.0
C      1  0.5391320000000  0.4103870000000  0.5189800000000 1.0
C      1  0.5439370000000  0.4254120000000  0.4482880000000 1.0
C      1  0.5430370000000  0.4697050000000  0.4191920000000 1.0
C      1  0.5355940000000  0.5346390000000  0.4191790000000 1.0
C      1  0.5404040000000  0.5793810000000  0.4636330000000 1.0
C      1  0.5378680000000  0.5887370000000  0.5235830000000 1.0
C      1  0.5400470000000  0.5522960000000  0.5666270000000 1.0
C      1  0.5389300000000  0.4976380000000  0.5808620000000 1.0
C      1  0.5372260000000  0.4383290000000  0.5652980000000 1.0
C      1  0.6179610000000  0.5289920000000  0.5156900000000 1.0
C      1  0.6016880000000  0.5149840000000  0.5339030000000 1.0
C      1  0.6024080000000  0.4874710000000  0.5337000000000 1.0
C      1  0.6195600000000  0.4706630000000  0.5190160000000 1.0
C      1  0.6102930000000  0.4573470000000  0.4959380000000 1.0
C      1  0.6189330000000  0.4669930000000  0.4710300000000 1.0
C      1  0.6095290000000  0.4911990000000  0.4603600000000 1.0
C      1  0.6199620000000  0.5161050000000  0.4681010000000 1.0
C      1  0.6100070000000  0.5320910000000  0.4889240000000 1.0
C      1  0.5140300000000  0.4174180000000  0.4488220000000 1.0
C      1  0.5160470000000  0.4706510000000  0.4105890000000 1.0
C      1  0.5094570000000  0.5356340000000  0.4101600000000 1.0
C      1  0.5115230000000  0.5875850000000  0.4563880000000 1.0
C      1  0.5093800000000  0.5983690000000  0.5224090000000 1.0
C      1  0.5121420000000  0.5600760000000  0.5752410000000 1.0
C      1  0.5109280000000  0.4989810000000  0.5940500000000 1.0
C      1  0.5075210000000  0.4365880000000  0.5732590000000 1.0
C      1  0.5115960000000  0.4051810000000  0.5146140000000 1.0
C      1  0.4196730000000  0.5396550000000  0.5274870000000 1.0
C      1  0.4184030000000  0.5096930000000  0.5423320000000 1.0
C      1  0.4225950000000  0.4795460000000  0.5316410000000 1.0
C      1  0.4237270000000  0.4478760000000  0.5198820000000 1.0
C      1  0.4189110000000  0.4560610000000  0.4871010000000 1.0
C      1  0.4086500000000  0.4754960000000  0.4618430000000 1.0
C      1  0.4187520000000  0.5066480000000  0.4634530000000 1.0
C      1  0.4223270000000  0.5377250000000  0.4698630000000 1.0
C      1  0.4103190000000  0.5502830000000  0.4990900000000 1.0
C      1  0.5137430000000  0.4771090000000  0.5394800000000 1.0
C      1  0.5187810000000  0.4554880000000  0.5176450000000 1.0
C      1  0.5182610000000  0.4554540000000  0.4861500000000 1.0
C      1  0.5193980000000  0.4765930000000  0.4622650000000 1.0
C      1  0.5219830000000  0.5089260000000  0.4625370000000 1.0
C      1  0.5148130000000  0.5400480000000  0.4714730000000 1.0
C      1  0.5170580000000  0.5501070000000  0.5004640000000 1.0
C      1  0.5145350000000  0.5366750000000  0.5294910000000 1.0
C      1  0.5180680000000  0.5087630000000  0.5442710000000 1.0
C      1  0.4960230000000  0.5553550000000  0.5498530000000 1.0
C      1  0.4963810000000  0.5096240000000  0.5694930000000 1.0
C      1  0.4931820000000  0.4607880000000  0.5610960000000 1.0
C      1  0.4949050000000  0.4315920000000  0.5216700000000 1.0
C      1  0.4988940000000  0.4329820000000  0.4702090000000 1.0
C      1  0.4971710000000  0.4683100000000  0.4379020000000 1.0
C      1  0.4922310000000  0.5178580000000  0.4246280000000 1.0
C      1  0.4981870000000  0.5603410000000  0.4550810000000 1.0
C      1  0.4961320000000  0.5765370000000  0.5046380000000 1.0
C      1  0.4244110000000  0.4146330000000  0.5127290000000 1.0
C      1  0.4248480000000  0.4355580000000  0.4604460000000 1.0
C      1  0.4121430000000  0.4680340000000  0.4344510000000 1.0
C      1  0.4221160000000  0.5221350000000  0.4333640000000 1.0
C      1  0.4231050000000  0.5713470000000  0.4748630000000 1.0
C      1  0.4188780000000  0.5772840000000  0.5140760000000 1.0
C      1  0.4178310000000  0.5496450000000  0.5577830000000 1.0
C      1  0.4164870000000  0.5058850000000  0.5749520000000 1.0
C      1  0.4252810000000  0.4387370000000  0.5526120000000 1.0
C      1  0.4683930000000  0.3975810000000  0.4922860000000 1.0
C      1  0.4752400000000  0.4181960000000  0.4234910000000 1.0
C      1  0.4606990000000  0.4895590000000  0.4033640000000 1.0
C      1  0.4692040000000  0.5595910000000  0.4076520000000 1.0
C      1  0.4620830000000  0.6020220000000  0.4699900000000 1.0
C      1  0.4677870000000  0.6004460000000  0.5441230000000 1.0
C      1  0.4707680000000  0.5480860000000  0.5948030000000 1.0
C      1  0.4686860000000  0.4792220000000  0.6018420000000 1.0
C      1  0.4657600000000  0.4160000000000  0.5644000000000 1.0
C      1  0.4801120000000  0.4835430000000  0.4614220000000 1.0
C      1  0.4899870000000  0.5122420000000  0.4570540000000 1.0
C      1  0.4742550000000  0.5335180000000  0.4723780000000 1.0
C      1  0.4772470000000  0.5483740000000  0.5016030000000 1.0
C      1  0.4746460000000  0.5373330000000  0.5305920000000 1.0
C      1  0.4757320000000  0.5086150000000  0.5434660000000 1.0
C      1  0.4738860000000  0.4774360000000  0.5385840000000 1.0
C      1  0.4797590000000  0.4605760000000  0.5121180000000 1.0
C      1  0.4786980000000  0.4580950000000  0.4811340000000 1.0
C      1  0.4931010000000  0.4871520000000  0.6109060000000 1.0
C      1  0.4902950000000  0.4161930000000  0.5785770000000 1.0
C      1  0.4939660000000  0.3874410000000  0.5007480000000 1.0
C      1  0.4979750000000  0.4050230000000  0.4308720000000 1.0
C      1  0.4836620000000  0.4723160000000  0.4005920000000 1.0
C      1  0.4932500000000  0.5541590000000  0.3959900000000 1.0
C      1  0.4809100000000  0.5952760000000  0.4497130000000 1.0
C      1  0.4915520000000  0.6118830000000  0.5376140000000 1.0
C      1  0.4953680000000  0.5596210000000  0.5967590000000 1.0
C      1  0.5704760000000  0.5795230000000  0.5207710000000 1.0
C      1  0.5731580000000  0.5475310000000  0.5690090000000 1.0
C      1  0.5632240000000  0.4842160000000  0.5615770000000 1.0
C      1  0.5692240000000  0.4294370000000  0.5579860000000 1.0
C      1  0.5562430000000  0.4242420000000  0.4981980000000 1.0
C      1  0.5760670000000  0.4362090000000  0.4456000000000 1.0
C      1  0.5571760000000  0.4926490000000  0.4323110000000 1.0
C      1  0.5646870000000  0.5415580000000  0.4313180000000 1.0
C      1  0.5677850000000  0.5687440000000  0.4813570000000 1.0
C      1  0.5379200000000  0.4319540000000  0.4783630000000 1.0
C      1  0.5444740000000  0.4593620000000  0.4501500000000 1.0
C      1  0.5388420000000  0.5121330000000  0.4378440000000 1.0
C      1  0.5445860000000  0.5460630000000  0.4581890000000 1.0
C      1  0.5394730000000  0.5719930000000  0.4966890000000 1.0
C      1  0.5410940000000  0.5563170000000  0.5333800000000 1.0
C      1  0.5469350000000  0.5204430000000  0.5569240000000 1.0
C      1  0.5343830000000  0.4697670000000  0.5632610000000 1.0
C      1  0.5414270000000  0.4390470000000  0.5321230000000 1.0
C      1  0.4683350000000  0.4152640000000  0.5352230000000 1.0
C      1  0.4697860000000  0.4199760000000  0.4730530000000 1.0
C      1  0.4788190000000  0.4475970000000  0.4191350000000 1.0
C      1  0.4673910000000  0.5150440000000  0.4121490000000 1.0
C      1  0.4699810000000  0.5658690000000  0.4383970000000 1.0
C      1  0.4676190000000  0.5866410000000  0.4956340000000 1.0
C      1  0.4675800000000  0.5699220000000  0.5525790000000 1.0
C      1  0.4680900000000  0.5195380000000  0.5810220000000 1.0
C      1  0.4633620000000  0.4626050000000  0.5741820000000 1.0
C      1  0.4456170000000  0.4963340000000  0.5851010000000 1.0
C      1  0.4474330000000  0.4368600000000  0.5693050000000 1.0
C      1  0.4499050000000  0.4034220000000  0.5128960000000 1.0
C      1  0.4548020000000  0.4296810000000  0.4453980000000 1.0
C      1  0.4373180000000  0.4794610000000  0.4179170000000 1.0
C      1  0.4481520000000  0.5371370000000  0.4215510000000 1.0
C      1  0.4345810000000  0.5986970000000  0.4643000000000 1.0
C      1  0.4492020000000  0.5864350000000  0.5213560000000 1.0
C      1  0.4478940000000  0.5522020000000  0.5708130000000 1.0
C      1  0.4451330000000  0.4822700000000  0.5538340000000 1.0
C      1  0.4564890000000  0.4420090000000  0.5214350000000 1.0
C      1  0.4496020000000  0.4450920000000  0.4817140000000 1.0
C      1  0.4587600000000  0.4620860000000  0.4467460000000 1.0
C      1  0.4425630000000  0.4902300000000  0.4475180000000 1.0
C      1  0.4501860000000  0.5443090000000  0.4550810000000 1.0
C      1  0.4482030000000  0.5599000000000  0.4915660000000 1.0
C      1  0.4468640000000  0.5542190000000  0.5309170000000 1.0
C      1  0.4466520000000  0.5221730000000  0.5547210000000 1.0
END
