TITL C-2622955-8511-190 -0.0345240879399907 125000 -623.496809913448 0 0 114 (C1) n - 1
REM
REM in /nfs/bkarasulu/CARBON/AIRSS/Generating-Clusters/AIREBO/with-SteepDescent/Higher-Symm/SD-CG/HFTN-CG
REM
REM
REM
REM
REM
REM ./C.cell (b20cbc046b6831c77cfcea5457e17084)
REM
REM compiler GCC version 9.2.1 20190827 (Red Hat 9.2.1-1)
REM options -cpp -mtune=generic -march=x86-64 -g -O0 -fpre-include=/usr/include/finclude/math-vector-fortran.h
REM seed -1152211421 1993815559 94249582 211589018 -1194036260 -2143541639 2023036507 -1616993634 666394383 -1173491406 -602412929 -1946790473 1228393420 -554336638 1114310538 1608109292 664657795 -122046086 -835102584 473525046 566172101 -1555221348 -1419554588 -319067031 1421893089 1438592482 -1889982629 -547731832 694938970 -894343847 1384024767 1628481578 446306246
REM
CELL 1.54180   50.00000   50.00000   50.00000   90.00000   90.00000   90.00000
LATT -1
SFAC C  
C      1  0.4580740000000  0.5435620000000  0.5037880000000 1.0
C      1  0.5154580000000  0.5482680000000  0.4520010000000 1.0
C      1  0.5220840000000  0.5451170000000  0.5265780000000 1.0
C      1  0.4970110000000  0.5213510000000  0.4116120000000 1.0
C      1  0.5667550000000  0.5289230000000  0.5548730000000 1.0
C      1  0.4187390000000  0.5242250000000  0.5308660000000 1.0
C      1  0.4596300000000  0.5001720000000  0.5158200000000 1.0
C      1  0.5168850000000  0.4973060000000  0.4694180000000 1.0
C      1  0.5360260000000  0.5038270000000  0.5267440000000 1.0
C      1  0.4853080000000  0.5336070000000  0.4860260000000 1.0
C      1  0.5191150000000  0.5364730000000  0.4836860000000 1.0
C      1  0.4945710000000  0.5338960000000  0.5186720000000 1.0
C      1  0.5297110000000  0.6055110000000  0.4715300000000 1.0
C      1  0.5193090000000  0.5948060000000  0.5335860000000 1.0
C      1  0.4638560000000  0.6009710000000  0.5052700000000 1.0
C      1  0.5803850000000  0.5248160000000  0.5109420000000 1.0
C      1  0.4463940000000  0.5246760000000  0.5674370000000 1.0
C      1  0.4616140000000  0.5187290000000  0.4299150000000 1.0
C      1  0.4591340000000  0.4565270000000  0.4941570000000 1.0
C      1  0.5099020000000  0.4583040000000  0.4669960000000 1.0
C      1  0.5150540000000  0.4611010000000  0.5422260000000 1.0
C      1  0.4603690000000  0.4931780000000  0.4184320000000 1.0
C      1  0.5789620000000  0.4962280000000  0.5147520000000 1.0
C      1  0.4426800000000  0.4947070000000  0.5651150000000 1.0
C      1  0.4608030000000  0.4162030000000  0.4876540000000 1.0
C      1  0.5271070000000  0.4228940000000  0.4740630000000 1.0
C      1  0.5117230000000  0.4164110000000  0.5465710000000 1.0
C      1  0.5361020000000  0.5925450000000  0.4417150000000 1.0
C      1  0.5428150000000  0.5784680000000  0.5509980000000 1.0
C      1  0.4464840000000  0.5736130000000  0.5021160000000 1.0
C      1  0.4767680000000  0.5754310000000  0.5460630000000 1.0
C      1  0.4879890000000  0.5771570000000  0.4547640000000 1.0
C      1  0.5561450000000  0.5767520000000  0.5021270000000 1.0
C      1  0.4788940000000  0.4229990000000  0.5386510000000 1.0
C      1  0.4734220000000  0.4080230000000  0.4574550000000 1.0
C      1  0.5350990000000  0.4330280000000  0.5023550000000 1.0
C      1  0.4486490000000  0.5374170000000  0.4474100000000 1.0
C      1  0.5698820000000  0.5314080000000  0.4819970000000 1.0
C      1  0.4785470000000  0.5150460000000  0.5633070000000 1.0
C      1  0.4427400000000  0.4782720000000  0.5351580000000 1.0
C      1  0.4902140000000  0.4764020000000  0.4196620000000 1.0
C      1  0.5598830000000  0.4834270000000  0.5370070000000 1.0
C      1  0.5096380000000  0.4865020000000  0.5233450000000 1.0
C      1  0.4714380000000  0.4868420000000  0.4920630000000 1.0
C      1  0.5166100000000  0.4747590000000  0.4930240000000 1.0
C      1  0.5359940000000  0.4983000000000  0.4178410000000 1.0
C      1  0.5395450000000  0.4979240000000  0.5778630000000 1.0
C      1  0.4153890000000  0.4906570000000  0.4948730000000 1.0
C      1  0.5313830000000  0.4415420000000  0.4466560000000 1.0
C      1  0.5293060000000  0.4315900000000  0.5649130000000 1.0
C      1  0.4338270000000  0.4257810000000  0.4945380000000 1.0
C      1  0.4685080000000  0.4471280000000  0.4635940000000 1.0
C      1  0.5502120000000  0.4536800000000  0.4840940000000 1.0
C      1  0.4889920000000  0.4466360000000  0.5585930000000 1.0
C      1  0.5764830000000  0.5430600000000  0.5329510000000 1.0
C      1  0.4340170000000  0.5403090000000  0.5485650000000 1.0
C      1  0.4908940000000  0.5281880000000  0.4426160000000 1.0
C      1  0.5248520000000  0.5231890000000  0.5807480000000 1.0
C      1  0.4202530000000  0.5162820000000  0.4808680000000 1.0
C      1  0.5641300000000  0.5143840000000  0.4220580000000 1.0
C      1  0.5823710000000  0.4534550000000  0.5077980000000 1.0
C      1  0.4521330000000  0.4552430000000  0.5711560000000 1.0
C      1  0.4574110000000  0.4390380000000  0.4205880000000 1.0
C      1  0.4845460000000  0.4346760000000  0.5896360000000 1.0
C      1  0.4412830000000  0.4284350000000  0.4554200000000 1.0
C      1  0.5742610000000  0.4438030000000  0.4699450000000 1.0
C      1  0.4523670000000  0.5594120000000  0.5326890000000 1.0
C      1  0.5133060000000  0.5769130000000  0.4320650000000 1.0
C      1  0.5635600000000  0.5689190000000  0.5318850000000 1.0
C      1  0.5703380000000  0.5283130000000  0.4517500000000 1.0
C      1  0.4989890000000  0.5237850000000  0.5877470000000 1.0
C      1  0.4237050000000  0.5317020000000  0.4584880000000 1.0
C      1  0.4859450000000  0.5067280000000  0.5308970000000 1.0
C      1  0.4855350000000  0.5052790000000  0.4671800000000 1.0
C      1  0.5433940000000  0.5171670000000  0.4979020000000 1.0
C      1  0.4989790000000  0.4715690000000  0.5882050000000 1.0
C      1  0.4238710000000  0.4636970000000  0.4545510000000 1.0
C      1  0.5632710000000  0.4799590000000  0.4570070000000 1.0
C      1  0.4480310000000  0.4662320000000  0.4351020000000 1.0
C      1  0.5799920000000  0.4797000000000  0.4866250000000 1.0
C      1  0.4730230000000  0.4819760000000  0.5736840000000 1.0
C      1  0.5226780000000  0.4772760000000  0.5711450000000 1.0
C      1  0.4298930000000  0.4699870000000  0.4831880000000 1.0
C      1  0.5404780000000  0.4991500000000  0.4501800000000 1.0
C      1  0.4898980000000  0.5443550000000  0.5503060000000 1.0
C      1  0.4680880000000  0.5529870000000  0.4640140000000 1.0
C      1  0.5472650000000  0.5532820000000  0.4817150000000 1.0
C      1  0.4512950000000  0.4388350000000  0.5479670000000 1.0
C      1  0.4811880000000  0.4273460000000  0.4305620000000 1.0
C      1  0.5609390000000  0.4405850000000  0.5201730000000 1.0
C      1  0.4763170000000  0.4768740000000  0.4506940000000 1.0
C      1  0.5471550000000  0.4860480000000  0.4927580000000 1.0
C      1  0.4751000000000  0.4702480000000  0.5418350000000 1.0
C      1  0.4386450000000  0.5211640000000  0.5059330000000 1.0
C      1  0.5395220000000  0.5314930000000  0.4397160000000 1.0
C      1  0.5348680000000  0.5261980000000  0.5499950000000 1.0
C      1  0.4156230000000  0.4938140000000  0.5235260000000 1.0
C      1  0.5101080000000  0.4971760000000  0.4093340000000 1.0
C      1  0.5628690000000  0.5006430000000  0.5625910000000 1.0
C      1  0.4744430000000  0.6032170000000  0.5306520000000 1.0
C      1  0.5155930000000  0.5760050000000  0.4716960000000 1.0
C      1  0.5272940000000  0.5708770000000  0.5152560000000 1.0
C      1  0.4635900000000  0.5847840000000  0.4753340000000 1.0
C      1  0.5546450000000  0.5832800000000  0.4690280000000 1.0
C      1  0.5091310000000  0.5721100000000  0.5559560000000 1.0
C      1  0.5015840000000  0.4499660000000  0.4344600000000 1.0
C      1  0.5478690000000  0.4528450000000  0.5457370000000 1.0
C      1  0.4381090000000  0.4483650000000  0.5196330000000 1.0
C      1  0.5588220000000  0.4526180000000  0.4448760000000 1.0
C      1  0.5155800000000  0.4418870000000  0.5879810000000 1.0
C      1  0.4156260000000  0.4349700000000  0.4707940000000 1.0
C      1  0.4963490000000  0.4279850000000  0.4673980000000 1.0
C      1  0.5111420000000  0.4360170000000  0.5195910000000 1.0
C      1  0.4802130000000  0.4330850000000  0.5069380000000 1.0
END
