TITL C-2622967-6265-25 -2437.26107988165 125000 -503.949461615655 0 0 90 (C1) n - 1
REM
REM in /nfs/bkarasulu/CARBON/AIRSS/Generating-Clusters/AIREBO/with-SteepDescent/Higher-Symm/SD-CG/HFTN-CG
REM
REM
REM
REM
REM
REM ./C.cell (b20cbc046b6831c77cfcea5457e17084)
REM
REM compiler GCC version 9.2.1 20190827 (Red Hat 9.2.1-1)
REM options -cpp -mtune=generic -march=x86-64 -g -O0 -fpre-include=/usr/include/finclude/math-vector-fortran.h
REM seed -89158825 -619958041 -345143397 1012234308 923884089 -780222614 958130284 -602042059 -1247317053 -603659456 -1335064837 854038821 176078230 1948128180 -1722478960 1467545943 144368874 -548753859 -915333225 89598467 -862565021 2063502713 1953838775 1207153242 223490225 1362781581 -641900152 -360997786 956828186 -588770622 1280367259 -92885253 1830479010
REM
CELL 1.54180   50.00000   50.00000   50.00000   90.00000   90.00000   90.00000
LATT -1
SFAC C  
C      1  0.4665310000000  0.5217480000000  0.4317330000000 1.0
C      1  0.4549990000000  0.4689830000000  0.4982740000000 1.0
C      1  0.4718510000000  0.4916890000000  0.4359200000000 1.0
C      1  0.5643500000000  0.5701810000000  0.4883680000000 1.0
C      1  0.5084990000000  0.5693830000000  0.5476310000000 1.0
C      1  0.5525210000000  0.4208220000000  0.5255470000000 1.0
C      1  0.5127030000000  0.5525230000000  0.4755100000000 1.0
C      1  0.4844510000000  0.5280320000000  0.4049770000000 1.0
C      1  0.5572140000000  0.4697380000000  0.4677220000000 1.0
C      1  0.5634470000000  0.5158170000000  0.4981590000000 1.0
C      1  0.5884660000000  0.5060280000000  0.5042120000000 1.0
C      1  0.4905610000000  0.4741140000000  0.4817010000000 1.0
C      1  0.4443520000000  0.4374190000000  0.5044440000000 1.0
C      1  0.5099900000000  0.5490180000000  0.4359520000000 1.0
C      1  0.5312080000000  0.5228630000000  0.5464370000000 1.0
C      1  0.4166870000000  0.5550700000000  0.4960880000000 1.0
C      1  0.4802800000000  0.5463250000000  0.4836560000000 1.0
C      1  0.4209960000000  0.4552800000000  0.5190210000000 1.0
C      1  0.4935780000000  0.4474700000000  0.4369180000000 1.0
C      1  0.5509950000000  0.5142580000000  0.4349510000000 1.0
C      1  0.4575290000000  0.5528000000000  0.5216830000000 1.0
C      1  0.4492800000000  0.4404540000000  0.4709400000000 1.0
C      1  0.6145110000000  0.4644600000000  0.5102310000000 1.0
C      1  0.4332960000000  0.5681010000000  0.4781210000000 1.0
C      1  0.4199870000000  0.4818760000000  0.5126080000000 1.0
C      1  0.5912460000000  0.4781290000000  0.5062530000000 1.0
C      1  0.4824880000000  0.5640400000000  0.5418650000000 1.0
C      1  0.5526860000000  0.4438070000000  0.5409480000000 1.0
C      1  0.5301870000000  0.5117360000000  0.4158500000000 1.0
C      1  0.5190550000000  0.4612840000000  0.5455940000000 1.0
C      1  0.4977190000000  0.4209560000000  0.4840630000000 1.0
C      1  0.5252820000000  0.4065430000000  0.4863490000000 1.0
C      1  0.5179950000000  0.4894900000000  0.5792100000000 1.0
C      1  0.4669600000000  0.5337960000000  0.5689700000000 1.0
C      1  0.4990020000000  0.4889600000000  0.4562120000000 1.0
C      1  0.5247420000000  0.4718980000000  0.4417390000000 1.0
C      1  0.4456360000000  0.4750750000000  0.4370110000000 1.0
C      1  0.4844160000000  0.5382860000000  0.4513930000000 1.0
C      1  0.4375630000000  0.5219420000000  0.4442460000000 1.0
C      1  0.4306650000000  0.5393230000000  0.5152080000000 1.0
C      1  0.5338980000000  0.4707100000000  0.4924550000000 1.0
C      1  0.5096390000000  0.5155830000000  0.5137880000000 1.0
C      1  0.5480010000000  0.4193720000000  0.4973250000000 1.0
C      1  0.5121370000000  0.5334970000000  0.4125780000000 1.0
C      1  0.5153970000000  0.5712040000000  0.4988270000000 1.0
C      1  0.4663250000000  0.4168630000000  0.4885170000000 1.0
C      1  0.5090480000000  0.4573640000000  0.5775240000000 1.0
C      1  0.4780540000000  0.4904460000000  0.5087880000000 1.0
C      1  0.4919820000000  0.4788510000000  0.5960930000000 1.0
C      1  0.5213880000000  0.4986790000000  0.4876680000000 1.0
C      1  0.4309050000000  0.4740050000000  0.5609990000000 1.0
C      1  0.4801980000000  0.4511950000000  0.5127690000000 1.0
C      1  0.4670270000000  0.5835580000000  0.5106500000000 1.0
C      1  0.5420520000000  0.5077110000000  0.5204650000000 1.0
C      1  0.4770920000000  0.4908570000000  0.5436200000000 1.0
C      1  0.4280220000000  0.5120380000000  0.4649950000000 1.0
C      1  0.4555820000000  0.4837540000000  0.5669810000000 1.0
C      1  0.5178310000000  0.4861430000000  0.4153280000000 1.0
C      1  0.5088360000000  0.4502720000000  0.4951190000000 1.0
C      1  0.4618500000000  0.4194620000000  0.5754920000000 1.0
C      1  0.5594160000000  0.4414370000000  0.4841420000000 1.0
C      1  0.4853460000000  0.4578900000000  0.5422740000000 1.0
C      1  0.4718700000000  0.4378960000000  0.5608990000000 1.0
C      1  0.4676700000000  0.4919680000000  0.5914460000000 1.0
C      1  0.4906350000000  0.4716480000000  0.4212350000000 1.0
C      1  0.5629870000000  0.4926840000000  0.4549070000000 1.0
C      1  0.5415940000000  0.5309550000000  0.5763670000000 1.0
C      1  0.5337920000000  0.5916590000000  0.4427170000000 1.0
C      1  0.5060370000000  0.5197160000000  0.4686500000000 1.0
C      1  0.5459700000000  0.4753630000000  0.5302120000000 1.0
C      1  0.5313220000000  0.5654090000000  0.4518260000000 1.0
C      1  0.4267600000000  0.5113760000000  0.5134590000000 1.0
C      1  0.4363080000000  0.4647790000000  0.4605510000000 1.0
C      1  0.5571120000000  0.5548140000000  0.4667170000000 1.0
C      1  0.4846830000000  0.5335020000000  0.5148540000000 1.0
C      1  0.5240330000000  0.5518020000000  0.5606460000000 1.0
C      1  0.5231180000000  0.4408990000000  0.4379250000000 1.0
C      1  0.4710770000000  0.5232740000000  0.5443180000000 1.0
C      1  0.5370300000000  0.5096220000000  0.5926350000000 1.0
C      1  0.5461150000000  0.5772170000000  0.5065550000000 1.0
C      1  0.4933290000000  0.5918680000000  0.5121110000000 1.0
C      1  0.5092410000000  0.4996380000000  0.5503970000000 1.0
C      1  0.4306120000000  0.4865450000000  0.4823640000000 1.0
C      1  0.4819790000000  0.4455010000000  0.4660120000000 1.0
C      1  0.4603780000000  0.5693580000000  0.4854470000000 1.0
C      1  0.5602580000000  0.5246070000000  0.4663160000000 1.0
C      1  0.5645680000000  0.4652660000000  0.5063950000000 1.0
C      1  0.5230280000000  0.5892380000000  0.5284540000000 1.0
C      1  0.5085460000000  0.4823950000000  0.5210930000000 1.0
C      1  0.4659970000000  0.5203950000000  0.5933820000000 1.0
END
