TITL C-2622963-3633-499 0.00521722007384296 125000 -1088.6008023024 0 0 198 (C1) n - 1
REM
REM in /nfs/bkarasulu/CARBON/AIRSS/Generating-Clusters/AIREBO/with-SteepDescent/Higher-Symm/SD-CG/HFTN-CG
REM
REM
REM
REM
REM
REM ./C.cell (b20cbc046b6831c77cfcea5457e17084)
REM
REM compiler GCC version 9.2.1 20190827 (Red Hat 9.2.1-1)
REM options -cpp -mtune=generic -march=x86-64 -g -O0 -fpre-include=/usr/include/finclude/math-vector-fortran.h
REM seed -244133249 -766873919 50377491 1166762645 1746407010 1563510481 -1727105607 -1534568762 -1083242678 1818036496 -1901365840 1044653326 281750070 -1205993235 -1215763491 -728269651 1901605941 1714671182 -1558404577 -1272898267 -357388599 734943265 1881539992 1989574630 -1809655470 359975314 1265542538 -1914604036 148938191 1916498397 -471186323 -1400732761 1789354395
REM
CELL 1.54180   50.00000   50.00000   50.00000   90.00000   90.00000   90.00000
LATT -1
SFAC C  
C      1  0.4782650000000  0.4391860000000  0.4886890000000 1.0
C      1  0.4545660000000  0.5460750000000  0.4919560000000 1.0
C      1  0.5632990000000  0.5180540000000  0.4878030000000 1.0
C      1  0.5223240000000  0.4491100000000  0.4058760000000 1.0
C      1  0.4493280000000  0.5046300000000  0.4040030000000 1.0
C      1  0.5314700000000  0.5397600000000  0.4037220000000 1.0
C      1  0.3967430000000  0.5593660000000  0.5373690000000 1.0
C      1  0.6032400000000  0.5649800000000  0.5310950000000 1.0
C      1  0.5019480000000  0.3812850000000  0.5357180000000 1.0
C      1  0.4528460000000  0.4742550000000  0.5919760000000 1.0
C      1  0.4997350000000  0.5522380000000  0.5883960000000 1.0
C      1  0.5419680000000  0.4711650000000  0.6068070000000 1.0
C      1  0.5658730000000  0.5308240000000  0.5867960000000 1.0
C      1  0.4891700000000  0.4148560000000  0.5822270000000 1.0
C      1  0.4377880000000  0.5394980000000  0.5828870000000 1.0
C      1  0.4328410000000  0.5019600000000  0.5946800000000 1.0
C      1  0.5338880000000  0.5541060000000  0.5901090000000 1.0
C      1  0.5310850000000  0.4432960000000  0.5913270000000 1.0
C      1  0.4156540000000  0.4908570000000  0.5674850000000 1.0
C      1  0.5304180000000  0.5799530000000  0.5682280000000 1.0
C      1  0.5515830000000  0.4325790000000  0.5663780000000 1.0
C      1  0.4208070000000  0.4505060000000  0.4334520000000 1.0
C      1  0.4903900000000  0.5948100000000  0.4366180000000 1.0
C      1  0.5787450000000  0.4500620000000  0.4362010000000 1.0
C      1  0.5447060000000  0.4955560000000  0.5401290000000 1.0
C      1  0.4791920000000  0.4529040000000  0.5412520000000 1.0
C      1  0.4803750000000  0.5363030000000  0.5409550000000 1.0
C      1  0.4749690000000  0.4537810000000  0.6088850000000 1.0
C      1  0.4762120000000  0.5397520000000  0.6102950000000 1.0
C      1  0.5443240000000  0.5024060000000  0.6200530000000 1.0
C      1  0.4796330000000  0.4957420000000  0.4928520000000 1.0
C      1  0.5062210000000  0.5251490000000  0.4950860000000 1.0
C      1  0.5114050000000  0.4934780000000  0.4913910000000 1.0
C      1  0.4242930000000  0.4362880000000  0.4644280000000 1.0
C      1  0.4867750000000  0.6108420000000  0.4652510000000 1.0
C      1  0.5924720000000  0.4627970000000  0.4637710000000 1.0
C      1  0.5652040000000  0.5438460000000  0.4048930000000 1.0
C      1  0.5040990000000  0.4207720000000  0.4106640000000 1.0
C      1  0.4336140000000  0.5349450000000  0.4065540000000 1.0
C      1  0.5133480000000  0.5946860000000  0.4729550000000 1.0
C      1  0.5684190000000  0.4420940000000  0.4739630000000 1.0
C      1  0.4096860000000  0.4731880000000  0.4691000000000 1.0
C      1  0.5609360000000  0.4283250000000  0.4373170000000 1.0
C      1  0.4093090000000  0.4790970000000  0.4300180000000 1.0
C      1  0.5217000000000  0.5811960000000  0.4366040000000 1.0
C      1  0.5194290000000  0.4661280000000  0.5191230000000 1.0
C      1  0.4600620000000  0.4941050000000  0.5183660000000 1.0
C      1  0.5154420000000  0.5380270000000  0.5222610000000 1.0
C      1  0.4107060000000  0.5099100000000  0.5393610000000 1.0
C      1  0.5475920000000  0.5738650000000  0.5392720000000 1.0
C      1  0.5396490000000  0.4233810000000  0.5363570000000 1.0
C      1  0.4760520000000  0.5748520000000  0.5318950000000 1.0
C      1  0.5880700000000  0.4751040000000  0.5189820000000 1.0
C      1  0.4405370000000  0.4486800000000  0.5320990000000 1.0
C      1  0.5901650000000  0.4363410000000  0.5281660000000 1.0
C      1  0.4015080000000  0.4561110000000  0.5280610000000 1.0
C      1  0.5085560000000  0.6092760000000  0.5285470000000 1.0
C      1  0.6116220000000  0.4549090000000  0.5097510000000 1.0
C      1  0.4167260000000  0.4321970000000  0.5142650000000 1.0
C      1  0.4798050000000  0.6044900000000  0.5156320000000 1.0
C      1  0.4293780000000  0.5364220000000  0.5392120000000 1.0
C      1  0.5597320000000  0.5437430000000  0.5387970000000 1.0
C      1  0.5081380000000  0.4205520000000  0.5313050000000 1.0
C      1  0.4258430000000  0.5011700000000  0.4921920000000 1.0
C      1  0.5346310000000  0.5660080000000  0.4909040000000 1.0
C      1  0.5369500000000  0.4366850000000  0.4979570000000 1.0
C      1  0.4860330000000  0.3917180000000  0.5146250000000 1.0
C      1  0.4133310000000  0.5683960000000  0.5158340000000 1.0
C      1  0.6025300000000  0.5472980000000  0.5082230000000 1.0
C      1  0.5170100000000  0.5111150000000  0.4427020000000 1.0
C      1  0.5080730000000  0.4783820000000  0.4449920000000 1.0
C      1  0.4839570000000  0.5005930000000  0.4400690000000 1.0
C      1  0.5926450000000  0.4795730000000  0.5520350000000 1.0
C      1  0.4283600000000  0.4275480000000  0.5558040000000 1.0
C      1  0.4707520000000  0.6022920000000  0.5604290000000 1.0
C      1  0.3873280000000  0.4958440000000  0.4852680000000 1.0
C      1  0.5749790000000  0.5963830000000  0.4962280000000 1.0
C      1  0.5596160000000  0.3926600000000  0.4899790000000 1.0
C      1  0.4047010000000  0.5426780000000  0.5609790000000 1.0
C      1  0.5836160000000  0.5619020000000  0.5511070000000 1.0
C      1  0.5148490000000  0.3991050000000  0.5560630000000 1.0
C      1  0.5029880000000  0.5650750000000  0.4599880000000 1.0
C      1  0.5606140000000  0.4741400000000  0.4654400000000 1.0
C      1  0.4423080000000  0.4651130000000  0.4636620000000 1.0
C      1  0.4837740000000  0.4836540000000  0.6176360000000 1.0
C      1  0.4954510000000  0.5156210000000  0.6137680000000 1.0
C      1  0.5150930000000  0.4930070000000  0.6198620000000 1.0
C      1  0.6130890000000  0.5209350000000  0.5123420000000 1.0
C      1  0.4576160000000  0.3935000000000  0.5157290000000 1.0
C      1  0.4287980000000  0.5932060000000  0.5207810000000 1.0
C      1  0.5215720000000  0.4122360000000  0.5812730000000 1.0
C      1  0.4099200000000  0.5255940000000  0.5854280000000 1.0
C      1  0.5640310000000  0.5595790000000  0.5751960000000 1.0
C      1  0.4964650000000  0.4514030000000  0.4626450000000 1.0
C      1  0.4660340000000  0.5220980000000  0.4523310000000 1.0
C      1  0.5450140000000  0.5220840000000  0.4593690000000 1.0
C      1  0.4333200000000  0.5886630000000  0.4421840000000 1.0
C      1  0.6041960000000  0.5192150000000  0.4348810000000 1.0
C      1  0.4613920000000  0.4034690000000  0.4385910000000 1.0
C      1  0.3993000000000  0.5006770000000  0.4543100000000 1.0
C      1  0.5436050000000  0.5954950000000  0.4586590000000 1.0
C      1  0.5581090000000  0.4133940000000  0.4649420000000 1.0
C      1  0.5450740000000  0.4894160000000  0.4898110000000 1.0
C      1  0.4630370000000  0.4684380000000  0.4879380000000 1.0
C      1  0.4864260000000  0.5495990000000  0.4831780000000 1.0
C      1  0.4486770000000  0.4103240000000  0.5381560000000 1.0
C      1  0.4492800000000  0.5936670000000  0.5411390000000 1.0
C      1  0.5940380000000  0.5050320000000  0.5294020000000 1.0
C      1  0.5046080000000  0.5998920000000  0.5580820000000 1.0
C      1  0.5798550000000  0.4482520000000  0.5556520000000 1.0
C      1  0.4121540000000  0.4581760000000  0.5583020000000 1.0
C      1  0.5076660000000  0.5280740000000  0.4163770000000 1.0
C      1  0.5243320000000  0.4759800000000  0.4167570000000 1.0
C      1  0.4705510000000  0.4886250000000  0.4153170000000 1.0
C      1  0.4927840000000  0.5685990000000  0.5609460000000 1.0
C      1  0.5557350000000  0.4711220000000  0.5573900000000 1.0
C      1  0.4452970000000  0.4650980000000  0.5615090000000 1.0
C      1  0.5271340000000  0.5403170000000  0.4795310000000 1.0
C      1  0.5175280000000  0.4607250000000  0.4875080000000 1.0
C      1  0.4540080000000  0.5146000000000  0.4823470000000 1.0
C      1  0.4666530000000  0.4562810000000  0.4112720000000 1.0
C      1  0.4823170000000  0.5486450000000  0.4099030000000 1.0
C      1  0.5520060000000  0.4899880000000  0.4144720000000 1.0
C      1  0.5005830000000  0.4157380000000  0.4991000000000 1.0
C      1  0.4209300000000  0.5501710000000  0.4947640000000 1.0
C      1  0.5799630000000  0.5478180000000  0.4907070000000 1.0
C      1  0.5580720000000  0.4721300000000  0.5107730000000 1.0
C      1  0.4420170000000  0.4696610000000  0.5104200000000 1.0
C      1  0.4986120000000  0.5626950000000  0.5095460000000 1.0
C      1  0.5337880000000  0.4266810000000  0.4261450000000 1.0
C      1  0.4228390000000  0.5069760000000  0.4226830000000 1.0
C      1  0.5412510000000  0.5628210000000  0.4229880000000 1.0
C      1  0.5777380000000  0.4703030000000  0.4173140000000 1.0
C      1  0.4370330000000  0.4433800000000  0.4044500000000 1.0
C      1  0.4823710000000  0.5815060000000  0.4057180000000 1.0
C      1  0.4798450000000  0.5480760000000  0.4438460000000 1.0
C      1  0.5610590000000  0.4960020000000  0.4445880000000 1.0
C      1  0.4672190000000  0.4537500000000  0.4451310000000 1.0
C      1  0.4137520000000  0.5258070000000  0.4720980000000 1.0
C      1  0.5626030000000  0.5723130000000  0.4747340000000 1.0
C      1  0.5265890000000  0.4114840000000  0.4776010000000 1.0
C      1  0.5055590000000  0.5196690000000  0.5443410000000 1.0
C      1  0.5114560000000  0.4884820000000  0.5410240000000 1.0
C      1  0.4780230000000  0.4834110000000  0.5423060000000 1.0
C      1  0.6247560000000  0.5064390000000  0.4909720000000 1.0
C      1  0.4402960000000  0.3953170000000  0.4927930000000 1.0
C      1  0.4341790000000  0.6094980000000  0.4975560000000 1.0
C      1  0.4556430000000  0.4251920000000  0.4715120000000 1.0
C      1  0.4522520000000  0.5769630000000  0.4840220000000 1.0
C      1  0.5884360000000  0.5001450000000  0.4774730000000 1.0
C      1  0.5210220000000  0.4984620000000  0.3911660000000 1.0
C      1  0.4923690000000  0.4802910000000  0.3932610000000 1.0
C      1  0.4909550000000  0.5143240000000  0.3917820000000 1.0
C      1  0.4504000000000  0.5284320000000  0.6069160000000 1.0
C      1  0.5475530000000  0.5284830000000  0.6096990000000 1.0
C      1  0.4979300000000  0.4386940000000  0.5995030000000 1.0
C      1  0.4141540000000  0.4701010000000  0.4997670000000 1.0
C      1  0.5148760000000  0.5896790000000  0.5039890000000 1.0
C      1  0.5696890000000  0.4423610000000  0.5052280000000 1.0
C      1  0.5891810000000  0.4977550000000  0.4264250000000 1.0
C      1  0.4473530000000  0.4290630000000  0.4327960000000 1.0
C      1  0.4630270000000  0.5749520000000  0.4329080000000 1.0
C      1  0.6104980000000  0.4756580000000  0.4858760000000 1.0
C      1  0.4220950000000  0.4180790000000  0.4918200000000 1.0
C      1  0.4667880000000  0.6058850000000  0.4878970000000 1.0
C      1  0.4843780000000  0.4825750000000  0.5836460000000 1.0
C      1  0.4978240000000  0.5201520000000  0.5832300000000 1.0
C      1  0.5337340000000  0.4804070000000  0.5768150000000 1.0
C      1  0.4922730000000  0.4466630000000  0.3919030000000 1.0
C      1  0.4626040000000  0.5310640000000  0.3895230000000 1.0
C      1  0.5506980000000  0.5147430000000  0.3944170000000 1.0
C      1  0.3860910000000  0.5432100000000  0.4640490000000 1.0
C      1  0.5839430000000  0.5697410000000  0.4485080000000 1.0
C      1  0.5238740000000  0.3792240000000  0.4769040000000 1.0
C      1  0.5249660000000  0.5111340000000  0.5709630000000 1.0
C      1  0.5059590000000  0.4685320000000  0.5680210000000 1.0
C      1  0.4734510000000  0.5069230000000  0.5665500000000 1.0
C      1  0.5502440000000  0.4081940000000  0.5109140000000 1.0
C      1  0.3990010000000  0.5035190000000  0.5129340000000 1.0
C      1  0.5533190000000  0.5837130000000  0.5118820000000 1.0
C      1  0.4342530000000  0.5576290000000  0.4275390000000 1.0
C      1  0.5889910000000  0.5438720000000  0.4283960000000 1.0
C      1  0.4884060000000  0.4055430000000  0.4329900000000 1.0
C      1  0.4674030000000  0.4325790000000  0.5202920000000 1.0
C      1  0.4552250000000  0.5490700000000  0.5242990000000 1.0
C      1  0.5645840000000  0.5161800000000  0.5217970000000 1.0
C      1  0.4334210000000  0.5957430000000  0.4683790000000 1.0
C      1  0.6122720000000  0.5145520000000  0.4614890000000 1.0
C      1  0.4548540000000  0.3932460000000  0.4659320000000 1.0
C      1  0.5438620000000  0.4536360000000  0.5334560000000 1.0
C      1  0.4391580000000  0.4924190000000  0.5429650000000 1.0
C      1  0.5192300000000  0.5596600000000  0.5434940000000 1.0
C      1  0.5109370000000  0.4236320000000  0.4499580000000 1.0
C      1  0.4345950000000  0.5288490000000  0.4459150000000 1.0
C      1  0.5589630000000  0.5469670000000  0.4440390000000 1.0
C      1  0.4991310000000  0.4372270000000  0.5595580000000 1.0
C      1  0.4536060000000  0.5296870000000  0.5589470000000 1.0
C      1  0.5529120000000  0.5220540000000  0.5595960000000 1.0
END
