TITL C-2622968-4806-103 0.0010638480474462 125000 -615.562290999293 0 0 119 (C1) n - 1
REM
REM in /nfs/bkarasulu/CARBON/AIRSS/Generating-Clusters/AIREBO/with-SteepDescent/Higher-Symm/SD-CG/HFTN-CG
REM
REM
REM
REM
REM
REM ./C.cell (b20cbc046b6831c77cfcea5457e17084)
REM
REM compiler GCC version 9.2.1 20190827 (Red Hat 9.2.1-1)
REM options -cpp -mtune=generic -march=x86-64 -g -O0 -fpre-include=/usr/include/finclude/math-vector-fortran.h
REM seed 246741888 2141816305 1515900462 2081512326 -460268878 -1676056674 324893893 1276654207 -1775175805 -2061920952 821547392 2108548511 -1239339587 -1166181992 -1736320675 -1612576690 -1730903901 -1993191184 -1501085406 189490956 584552684 -1921463885 604872935 -1968845739 -1129652397 -1548370588 -42377504 1152947883 -921485477 1444272963 -1542099462 248531485 -50803286
REM
CELL 1.54180   50.00000   50.00000   50.00000   90.00000   90.00000   90.00000
LATT -1
SFAC C  
C      1  0.4733920000000  0.5939880000000  0.4726310000000 1.0
C      1  0.4736170000000  0.4746070000000  0.5801530000000 1.0
C      1  0.5925610000000  0.4614560000000  0.4737510000000 1.0
C      1  0.4772750000000  0.4100000000000  0.5239410000000 1.0
C      1  0.5351890000000  0.4055570000000  0.4768160000000 1.0
C      1  0.5279530000000  0.5940760000000  0.5223900000000 1.0
C      1  0.4706100000000  0.5295360000000  0.4179840000000 1.0
C      1  0.5228910000000  0.5348410000000  0.5830640000000 1.0
C      1  0.5172700000000  0.4761610000000  0.4015180000000 1.0
C      1  0.5937550000000  0.5148880000000  0.5199730000000 1.0
C      1  0.4112330000000  0.5219040000000  0.4781810000000 1.0
C      1  0.4145550000000  0.4701760000000  0.5200350000000 1.0
C      1  0.3980800000000  0.4752260000000  0.4917590000000 1.0
C      1  0.5021350000000  0.4070510000000  0.4687040000000 1.0
C      1  0.4639210000000  0.4964620000000  0.4136900000000 1.0
C      1  0.3936650000000  0.5196550000000  0.5016750000000 1.0
C      1  0.6051300000000  0.5240590000000  0.4970580000000 1.0
C      1  0.6054990000000  0.4666700000000  0.4973740000000 1.0
C      1  0.4952130000000  0.5977170000000  0.5292300000000 1.0
C      1  0.5062610000000  0.5861020000000  0.4684190000000 1.0
C      1  0.5095190000000  0.4187980000000  0.5303520000000 1.0
C      1  0.4677020000000  0.5077300000000  0.5854000000000 1.0
C      1  0.5260300000000  0.5035630000000  0.4194090000000 1.0
C      1  0.5301510000000  0.4998070000000  0.5884700000000 1.0
C      1  0.5653540000000  0.5233890000000  0.5588800000000 1.0
C      1  0.5664850000000  0.5598670000000  0.5231160000000 1.0
C      1  0.5272190000000  0.5532490000000  0.5532140000000 1.0
C      1  0.5749570000000  0.4787290000000  0.4500480000000 1.0
C      1  0.4499420000000  0.4775200000000  0.5552450000000 1.0
C      1  0.4495870000000  0.5196710000000  0.4429390000000 1.0
C      1  0.5465010000000  0.4353470000000  0.4771700000000 1.0
C      1  0.4295800000000  0.4442740000000  0.5192310000000 1.0
C      1  0.4299330000000  0.5508890000000  0.4784960000000 1.0
C      1  0.5258480000000  0.4538460000000  0.4335860000000 1.0
C      1  0.4777500000000  0.4314540000000  0.5506520000000 1.0
C      1  0.4750340000000  0.5659140000000  0.4542840000000 1.0
C      1  0.4240840000000  0.4281770000000  0.4962630000000 1.0
C      1  0.5070290000000  0.4385240000000  0.4254250000000 1.0
C      1  0.4299940000000  0.5004370000000  0.4342130000000 1.0
C      1  0.4238840000000  0.5698020000000  0.5017570000000 1.0
C      1  0.5794280000000  0.5710680000000  0.4990620000000 1.0
C      1  0.5496560000000  0.4431200000000  0.5080680000000 1.0
C      1  0.5045500000000  0.5666920000000  0.5673780000000 1.0
C      1  0.4973290000000  0.5680510000000  0.4339950000000 1.0
C      1  0.4988530000000  0.4248960000000  0.5695660000000 1.0
C      1  0.4498880000000  0.5074100000000  0.5497980000000 1.0
C      1  0.5618440000000  0.5019870000000  0.4412710000000 1.0
C      1  0.5806740000000  0.5008660000000  0.5669560000000 1.0
C      1  0.4461430000000  0.5772970000000  0.5229370000000 1.0
C      1  0.5213990000000  0.4494520000000  0.5717950000000 1.0
C      1  0.5718520000000  0.5268070000000  0.4519320000000 1.0
C      1  0.4506910000000  0.4311120000000  0.4789260000000 1.0
C      1  0.5486670000000  0.4290940000000  0.5327370000000 1.0
C      1  0.5522540000000  0.5607560000000  0.4838400000000 1.0
C      1  0.5240530000000  0.5491680000000  0.4408260000000 1.0
C      1  0.4743730000000  0.5516870000000  0.5628470000000 1.0
C      1  0.4777670000000  0.4498470000000  0.4385260000000 1.0
C      1  0.5723480000000  0.4725390000000  0.5498780000000 1.0
C      1  0.4327150000000  0.4713510000000  0.4492940000000 1.0
C      1  0.4333680000000  0.5252690000000  0.5317310000000 1.0
C      1  0.5437450000000  0.4881880000000  0.5595510000000 1.0
C      1  0.5466020000000  0.5317530000000  0.4983230000000 1.0
C      1  0.4773300000000  0.5695810000000  0.5340850000000 1.0
C      1  0.5300700000000  0.5025110000000  0.4531640000000 1.0
C      1  0.4779120000000  0.5188150000000  0.5549120000000 1.0
C      1  0.4650060000000  0.4809080000000  0.4439130000000 1.0
C      1  0.5446550000000  0.4753140000000  0.5074960000000 1.0
C      1  0.4521400000000  0.4627600000000  0.4913960000000 1.0
C      1  0.4549820000000  0.5261140000000  0.5076760000000 1.0
C      1  0.4922760000000  0.4395790000000  0.4676450000000 1.0
C      1  0.5136610000000  0.4470540000000  0.5398490000000 1.0
C      1  0.5110990000000  0.5526350000000  0.4720750000000 1.0
C      1  0.4589350000000  0.5650820000000  0.4832380000000 1.0
C      1  0.4780870000000  0.4624710000000  0.5495440000000 1.0
C      1  0.5592840000000  0.4671080000000  0.4779090000000 1.0
C      1  0.4605330000000  0.4390410000000  0.5223290000000 1.0
C      1  0.5190210000000  0.4534850000000  0.4824820000000 1.0
C      1  0.5352320000000  0.5629760000000  0.5260660000000 1.0
C      1  0.4779630000000  0.5364220000000  0.4489250000000 1.0
C      1  0.5319010000000  0.5195830000000  0.5540380000000 1.0
C      1  0.5178170000000  0.4723790000000  0.4582360000000 1.0
C      1  0.5648510000000  0.5267870000000  0.5260850000000 1.0
C      1  0.4451830000000  0.5205360000000  0.4766480000000 1.0
C      1  0.4543610000000  0.4783560000000  0.5215320000000 1.0
C      1  0.4855730000000  0.4692850000000  0.4117190000000 1.0
C      1  0.4188470000000  0.4894060000000  0.4716830000000 1.0
C      1  0.4744830000000  0.4112770000000  0.4896470000000 1.0
C      1  0.4893270000000  0.5357100000000  0.5889030000000 1.0
C      1  0.5046950000000  0.5308070000000  0.4198100000000 1.0
C      1  0.5080660000000  0.4730470000000  0.5852370000000 1.0
C      1  0.4083070000000  0.5062050000000  0.5236800000000 1.0
C      1  0.5881450000000  0.5199520000000  0.4736020000000 1.0
C      1  0.5881050000000  0.4828310000000  0.5214880000000 1.0
C      1  0.4688990000000  0.5963570000000  0.5062560000000 1.0
C      1  0.5313180000000  0.5814950000000  0.4909340000000 1.0
C      1  0.5349600000000  0.4061600000000  0.5116640000000 1.0
C      1  0.4724050000000  0.5022560000000  0.5171520000000 1.0
C      1  0.5157870000000  0.4640870000000  0.5110640000000 1.0
C      1  0.5028840000000  0.5217360000000  0.4604450000000 1.0
C      1  0.4603280000000  0.4900940000000  0.4763130000000 1.0
C      1  0.5499290000000  0.4962890000000  0.5271100000000 1.0
C      1  0.5480260000000  0.5072920000000  0.4816850000000 1.0
C      1  0.5182090000000  0.5454180000000  0.5022280000000 1.0
C      1  0.4728170000000  0.5515620000000  0.5081720000000 1.0
C      1  0.4807720000000  0.4496660000000  0.4971180000000 1.0
C      1  0.5015320000000  0.4790130000000  0.5359890000000 1.0
C      1  0.4915430000000  0.4912020000000  0.4628410000000 1.0
C      1  0.5038160000000  0.5095090000000  0.5400390000000 1.0
C      1  0.4985060000000  0.5807810000000  0.5001780000000 1.0
C      1  0.4990930000000  0.5041060000000  0.5854610000000 1.0
C      1  0.5762980000000  0.4933850000000  0.4912080000000 1.0
C      1  0.5062110000000  0.4191800000000  0.4988460000000 1.0
C      1  0.4947120000000  0.4989960000000  0.4242050000000 1.0
C      1  0.4309340000000  0.4942330000000  0.5031070000000 1.0
C      1  0.5506970000000  0.4467490000000  0.5549200000000 1.0
C      1  0.5533000000000  0.5485240000000  0.4544180000000 1.0
C      1  0.4436040000000  0.5530850000000  0.5466780000000 1.0
C      1  0.4471510000000  0.4418970000000  0.4496350000000 1.0
C      1  0.4954760000000  0.5268850000000  0.5129860000000 1.0
END
