TITL C-2622965-4321-389 -0.00135087109684885 125000 -736.053324268362 0 0 141 (C1) n - 1
REM
REM in /nfs/bkarasulu/CARBON/AIRSS/Generating-Clusters/AIREBO/with-SteepDescent/Higher-Symm/SD-CG/HFTN-CG
REM
REM
REM
REM
REM
REM ./C.cell (b20cbc046b6831c77cfcea5457e17084)
REM
REM compiler GCC version 9.2.1 20190827 (Red Hat 9.2.1-1)
REM options -cpp -mtune=generic -march=x86-64 -g -O0 -fpre-include=/usr/include/finclude/math-vector-fortran.h
REM seed -227155665 -297588102 -421215229 1749427225 -1087826892 2103409271 -862540704 -88188238 2090307059 -1198181879 -1691829990 -624406373 -483851912 1266721107 -350581556 -886525940 37917460 33362507 -116613821 155806968 -136935049 1178110804 834897920 1185799500 -1730555037 1139098537 -1703206929 616633201 1287082747 -669115345 506941204 346913675 64348352
REM
CELL 1.54180   50.00000   50.00000   50.00000   90.00000   90.00000   90.00000
LATT -1
SFAC C  
C      1  0.5202500000000  0.6074650000000  0.5073320000000 1.0
C      1  0.5320520000000  0.4846440000000  0.6038130000000 1.0
C      1  0.5140690000000  0.4037920000000  0.4993370000000 1.0
C      1  0.5155150000000  0.5045660000000  0.4055690000000 1.0
C      1  0.5082540000000  0.5193930000000  0.5228190000000 1.0
C      1  0.5249000000000  0.4710650000000  0.5268740000000 1.0
C      1  0.5194850000000  0.4838980000000  0.4795030000000 1.0
C      1  0.5158630000000  0.5275090000000  0.4819400000000 1.0
C      1  0.4124780000000  0.4370980000000  0.4776490000000 1.0
C      1  0.4195230000000  0.5256660000000  0.4349650000000 1.0
C      1  0.4123260000000  0.5527400000000  0.5232710000000 1.0
C      1  0.4107380000000  0.4796930000000  0.5587730000000 1.0
C      1  0.5654410000000  0.5185370000000  0.5761380000000 1.0
C      1  0.5584950000000  0.4166680000000  0.5173350000000 1.0
C      1  0.5686240000000  0.4950410000000  0.4247400000000 1.0
C      1  0.5540590000000  0.5873450000000  0.4797030000000 1.0
C      1  0.4677270000000  0.4090330000000  0.5050820000000 1.0
C      1  0.4713180000000  0.4759290000000  0.3982280000000 1.0
C      1  0.4711060000000  0.5850330000000  0.4996160000000 1.0
C      1  0.4772090000000  0.5102540000000  0.5904220000000 1.0
C      1  0.5252780000000  0.4263490000000  0.4410220000000 1.0
C      1  0.5237970000000  0.5668090000000  0.4289880000000 1.0
C      1  0.5298020000000  0.5755750000000  0.5539070000000 1.0
C      1  0.5261370000000  0.4369440000000  0.5751360000000 1.0
C      1  0.4645110000000  0.4245240000000  0.4472500000000 1.0
C      1  0.4738720000000  0.5480310000000  0.4290330000000 1.0
C      1  0.4662670000000  0.5695520000000  0.5574740000000 1.0
C      1  0.4615230000000  0.4502710000000  0.5805820000000 1.0
C      1  0.5651710000000  0.4739450000000  0.4489560000000 1.0
C      1  0.5648620000000  0.5748980000000  0.4552660000000 1.0
C      1  0.5627250000000  0.5427720000000  0.5632950000000 1.0
C      1  0.5695680000000  0.4334390000000  0.5392750000000 1.0
C      1  0.5739750000000  0.4754570000000  0.5148960000000 1.0
C      1  0.5759280000000  0.4803400000000  0.4805980000000 1.0
C      1  0.5725960000000  0.5142000000000  0.4781760000000 1.0
C      1  0.5816560000000  0.5324500000000  0.5056620000000 1.0
C      1  0.4470460000000  0.4292540000000  0.5222020000000 1.0
C      1  0.4475200000000  0.4667850000000  0.4189840000000 1.0
C      1  0.4542180000000  0.5661890000000  0.4799130000000 1.0
C      1  0.4476620000000  0.5219210000000  0.5782570000000 1.0
C      1  0.5187560000000  0.5567430000000  0.4974200000000 1.0
C      1  0.5190750000000  0.5039870000000  0.5486060000000 1.0
C      1  0.5076590000000  0.4434910000000  0.5023860000000 1.0
C      1  0.5098590000000  0.5015830000000  0.4521050000000 1.0
C      1  0.4801440000000  0.4840710000000  0.4735100000000 1.0
C      1  0.4764010000000  0.5330920000000  0.4799120000000 1.0
C      1  0.4732720000000  0.5070850000000  0.5367490000000 1.0
C      1  0.4705680000000  0.4714350000000  0.5189340000000 1.0
C      1  0.4995560000000  0.5316320000000  0.5851330000000 1.0
C      1  0.4945850000000  0.4135990000000  0.5254260000000 1.0
C      1  0.5001680000000  0.4754870000000  0.4117640000000 1.0
C      1  0.4905680000000  0.5919400000000  0.4725420000000 1.0
C      1  0.4815730000000  0.5843430000000  0.5308930000000 1.0
C      1  0.4793770000000  0.4764180000000  0.5914790000000 1.0
C      1  0.4816090000000  0.4117640000000  0.4732770000000 1.0
C      1  0.4882990000000  0.5232380000000  0.4150290000000 1.0
C      1  0.5565070000000  0.4399120000000  0.4475130000000 1.0
C      1  0.5542750000000  0.5509640000000  0.4329670000000 1.0
C      1  0.5600580000000  0.5701740000000  0.5476950000000 1.0
C      1  0.5583750000000  0.4458410000000  0.5688880000000 1.0
C      1  0.4364660000000  0.4312970000000  0.4652600000000 1.0
C      1  0.4499080000000  0.5308190000000  0.4459910000000 1.0
C      1  0.4398230000000  0.5558200000000  0.5403210000000 1.0
C      1  0.4411820000000  0.4725360000000  0.5544870000000 1.0
C      1  0.4973000000000  0.4607200000000  0.5672170000000 1.0
C      1  0.5152940000000  0.4514070000000  0.4703820000000 1.0
C      1  0.5137290000000  0.5352070000000  0.4510700000000 1.0
C      1  0.5108380000000  0.5530650000000  0.5268640000000 1.0
C      1  0.6098330000000  0.4808790000000  0.4780730000000 1.0
C      1  0.6227660000000  0.5100730000000  0.4735250000000 1.0
C      1  0.6062990000000  0.5141740000000  0.4995700000000 1.0
C      1  0.6029050000000  0.4857800000000  0.5095170000000 1.0
C      1  0.4853820000000  0.4446430000000  0.5280740000000 1.0
C      1  0.4916130000000  0.4740620000000  0.4439700000000 1.0
C      1  0.4933810000000  0.5598450000000  0.4783870000000 1.0
C      1  0.4805660000000  0.5317550000000  0.5569250000000 1.0
C      1  0.5380410000000  0.5025620000000  0.4384420000000 1.0
C      1  0.5472780000000  0.5684030000000  0.4997570000000 1.0
C      1  0.5511000000000  0.4961050000000  0.5578640000000 1.0
C      1  0.5401300000000  0.4341050000000  0.4986610000000 1.0
C      1  0.5386120000000  0.4680850000000  0.4977400000000 1.0
C      1  0.5467490000000  0.5304980000000  0.4870400000000 1.0
C      1  0.5514620000000  0.5228350000000  0.5180060000000 1.0
C      1  0.5497410000000  0.4942240000000  0.5252320000000 1.0
C      1  0.4087520000000  0.4989540000000  0.4400060000000 1.0
C      1  0.4149140000000  0.5453250000000  0.4975130000000 1.0
C      1  0.4056490000000  0.5047230000000  0.5496280000000 1.0
C      1  0.4092850000000  0.4532890000000  0.5050990000000 1.0
C      1  0.5427860000000  0.5085810000000  0.5947830000000 1.0
C      1  0.5329280000000  0.4027870000000  0.5224230000000 1.0
C      1  0.5394520000000  0.4821370000000  0.4129590000000 1.0
C      1  0.5296600000000  0.6049810000000  0.4819700000000 1.0
C      1  0.5261310000000  0.5241440000000  0.5721220000000 1.0
C      1  0.5209790000000  0.4198320000000  0.5461340000000 1.0
C      1  0.5240970000000  0.4524560000000  0.4191880000000 1.0
C      1  0.5202420000000  0.5818440000000  0.4592860000000 1.0
C      1  0.5338970000000  0.4642860000000  0.4483210000000 1.0
C      1  0.5392950000000  0.5539670000000  0.4633470000000 1.0
C      1  0.5376160000000  0.5383730000000  0.5418200000000 1.0
C      1  0.5386540000000  0.4475310000000  0.5406900000000 1.0
C      1  0.4674840000000  0.5660190000000  0.4531330000000 1.0
C      1  0.4642940000000  0.5500540000000  0.5832770000000 1.0
C      1  0.4571950000000  0.4464610000000  0.5470640000000 1.0
C      1  0.4730980000000  0.4516750000000  0.4298670000000 1.0
C      1  0.5662020000000  0.5598230000000  0.5186980000000 1.0
C      1  0.5703630000000  0.4702800000000  0.5484980000000 1.0
C      1  0.5609060000000  0.4498220000000  0.4797530000000 1.0
C      1  0.5636060000000  0.5214800000000  0.4461940000000 1.0
C      1  0.4586830000000  0.4910930000000  0.5702680000000 1.0
C      1  0.4606490000000  0.4357900000000  0.4853120000000 1.0
C      1  0.4695260000000  0.4995330000000  0.4226460000000 1.0
C      1  0.4647910000000  0.5577620000000  0.5197120000000 1.0
C      1  0.4457200000000  0.5382560000000  0.4906250000000 1.0
C      1  0.4322920000000  0.5249750000000  0.5507320000000 1.0
C      1  0.4428960000000  0.4582560000000  0.5036560000000 1.0
C      1  0.4400140000000  0.4914760000000  0.4370770000000 1.0
C      1  0.4283930000000  0.4767510000000  0.4790580000000 1.0
C      1  0.4370030000000  0.5073660000000  0.4670020000000 1.0
C      1  0.4338740000000  0.5098130000000  0.5007980000000 1.0
C      1  0.4408580000000  0.4979670000000  0.5319080000000 1.0
C      1  0.4829780000000  0.4075360000000  0.5564350000000 1.0
C      1  0.4807910000000  0.4252310000000  0.4108160000000 1.0
C      1  0.4725080000000  0.5979560000000  0.4471100000000 1.0
C      1  0.4866660000000  0.5537920000000  0.6044700000000 1.0
C      1  0.4768160000000  0.5114740000000  0.4536550000000 1.0
C      1  0.4778810000000  0.5312820000000  0.5132150000000 1.0
C      1  0.4952870000000  0.4813630000000  0.5400880000000 1.0
C      1  0.4819840000000  0.4592440000000  0.4910020000000 1.0
C      1  0.5115650000000  0.4186250000000  0.4714350000000 1.0
C      1  0.5192810000000  0.5346810000000  0.4187390000000 1.0
C      1  0.5123930000000  0.5869500000000  0.5294380000000 1.0
C      1  0.5207650000000  0.4643360000000  0.5906880000000 1.0
C      1  0.4837410000000  0.4297220000000  0.5716420000000 1.0
C      1  0.4946590000000  0.4137400000000  0.4356180000000 1.0
C      1  0.4952540000000  0.5663140000000  0.4158960000000 1.0
C      1  0.4990090000000  0.5603240000000  0.5574930000000 1.0
C      1  0.4135530000000  0.4806790000000  0.5187160000000 1.0
C      1  0.4040790000000  0.4830540000000  0.4636330000000 1.0
C      1  0.4110130000000  0.5282520000000  0.4737340000000 1.0
C      1  0.4061220000000  0.5135520000000  0.5200870000000 1.0
C      1  0.4990600000000  0.5034990000000  0.4941930000000 1.0
END
