TITL C-2622967-6265-566 -0.00179905509641131 125000 -336.734780918835 0 0 60 (C1) n - 1
REM
REM in /nfs/bkarasulu/CARBON/AIRSS/Generating-Clusters/AIREBO/with-SteepDescent/Higher-Symm/SD-CG/HFTN-CG
REM
REM
REM
REM
REM
REM ./C.cell (b20cbc046b6831c77cfcea5457e17084)
REM
REM compiler GCC version 9.2.1 20190827 (Red Hat 9.2.1-1)
REM options -cpp -mtune=generic -march=x86-64 -g -O0 -fpre-include=/usr/include/finclude/math-vector-fortran.h
REM seed -1815039696 523840049 516704778 1078093920 -359738837 585339245 1216550264 1810306561 -1704088193 -313407293 586139090 369565989 -838431963 -1374807911 -1684569627 405942569 1133663511 1534189002 1241596202 359768624 1956221864 1523565120 1723896468 1952514306 85201462 1477109327 -1229084679 -632402801 1346047353 -1113126074 1850717665 1582249412 1111943410
REM
CELL 1.54180   50.00000   50.00000   50.00000   90.00000   90.00000   90.00000
LATT -1
SFAC C  
C      1  0.4851430000000  0.4482150000000  0.4536050000000 1.0
C      1  0.4863910000000  0.4847130000000  0.5675930000000 1.0
C      1  0.4842200000000  0.5671580000000  0.4771780000000 1.0
C      1  0.5169820000000  0.4461310000000  0.4517000000000 1.0
C      1  0.5170010000000  0.4811550000000  0.5698330000000 1.0
C      1  0.5142440000000  0.5668660000000  0.4800290000000 1.0
C      1  0.4781560000000  0.5532850000000  0.4505960000000 1.0
C      1  0.4829220000000  0.5143690000000  0.5711410000000 1.0
C      1  0.4823110000000  0.4318500000000  0.4794100000000 1.0
C      1  0.5119790000000  0.5508410000000  0.4539910000000 1.0
C      1  0.5150420000000  0.5120360000000  0.5711210000000 1.0
C      1  0.5125720000000  0.4343470000000  0.4790330000000 1.0
C      1  0.5188330000000  0.4841780000000  0.4290280000000 1.0
C      1  0.5208530000000  0.4463990000000  0.5500420000000 1.0
C      1  0.5159330000000  0.5697450000000  0.5198860000000 1.0
C      1  0.4865960000000  0.4819670000000  0.4303270000000 1.0
C      1  0.4893050000000  0.4531290000000  0.5433900000000 1.0
C      1  0.4856510000000  0.5683750000000  0.5229670000000 1.0
C      1  0.5237370000000  0.5142930000000  0.4265010000000 1.0
C      1  0.5147590000000  0.5552850000000  0.5468640000000 1.0
C      1  0.5162870000000  0.4320690000000  0.5232430000000 1.0
C      1  0.4924480000000  0.5135420000000  0.4305520000000 1.0
C      1  0.4824430000000  0.5552210000000  0.5495860000000 1.0
C      1  0.4851140000000  0.4317240000000  0.5189890000000 1.0
C      1  0.4858070000000  0.4821990000000  0.5260890000000 1.0
C      1  0.4826670000000  0.5302280000000  0.4938660000000 1.0
C      1  0.4827130000000  0.4845390000000  0.4699990000000 1.0
C      1  0.5192470000000  0.4809680000000  0.5300360000000 1.0
C      1  0.5148270000000  0.5307780000000  0.5018190000000 1.0
C      1  0.5144090000000  0.4846290000000  0.4772940000000 1.0
C      1  0.4842290000000  0.5145210000000  0.5215760000000 1.0
C      1  0.4835630000000  0.4680010000000  0.4963810000000 1.0
C      1  0.4838760000000  0.5158180000000  0.4629890000000 1.0
C      1  0.5149610000000  0.5108340000000  0.5265770000000 1.0
C      1  0.5149890000000  0.4667490000000  0.5035240000000 1.0
C      1  0.5149070000000  0.5163390000000  0.4746960000000 1.0
C      1  0.5583050000000  0.4865520000000  0.5257130000000 1.0
C      1  0.5546190000000  0.5284860000000  0.5010370000000 1.0
C      1  0.5542500000000  0.4857370000000  0.4760610000000 1.0
C      1  0.4462580000000  0.4877510000000  0.5242510000000 1.0
C      1  0.4438070000000  0.5307900000000  0.5022830000000 1.0
C      1  0.4434010000000  0.4869890000000  0.4751830000000 1.0
C      1  0.5544640000000  0.5155900000000  0.5266630000000 1.0
C      1  0.5544450000000  0.4719460000000  0.5008490000000 1.0
C      1  0.5546650000000  0.5141850000000  0.4762920000000 1.0
C      1  0.4448470000000  0.5161140000000  0.5267400000000 1.0
C      1  0.4442280000000  0.4732450000000  0.5001620000000 1.0
C      1  0.4430680000000  0.5161530000000  0.4770100000000 1.0
C      1  0.4608860000000  0.4718140000000  0.4501670000000 1.0
C      1  0.4618560000000  0.4731880000000  0.5484950000000 1.0
C      1  0.4654430000000  0.5570180000000  0.5009410000000 1.0
C      1  0.5325590000000  0.4726950000000  0.4539890000000 1.0
C      1  0.5424660000000  0.4711100000000  0.5511150000000 1.0
C      1  0.5367960000000  0.5557960000000  0.5002810000000 1.0
C      1  0.4553910000000  0.5322510000000  0.4544530000000 1.0
C      1  0.4698160000000  0.5276620000000  0.5467410000000 1.0
C      1  0.4604980000000  0.4440810000000  0.4998340000000 1.0
C      1  0.5351550000000  0.5280030000000  0.4521060000000 1.0
C      1  0.5307130000000  0.5275930000000  0.5479950000000 1.0
C      1  0.5369440000000  0.4427550000000  0.5001890000000 1.0
END
