TITL C-2622962-9663-795 0.00139465243506005 125000 -655.533094854946 0 0 119 (C1) n - 1
REM
REM in /nfs/bkarasulu/CARBON/AIRSS/Generating-Clusters/AIREBO/with-SteepDescent/Higher-Symm/SD-CG/HFTN-CG
REM
REM
REM
REM
REM
REM ./C.cell (b20cbc046b6831c77cfcea5457e17084)
REM
REM compiler GCC version 9.2.1 20190827 (Red Hat 9.2.1-1)
REM options -cpp -mtune=generic -march=x86-64 -g -O0 -fpre-include=/usr/include/finclude/math-vector-fortran.h
REM seed -1801502673 -2006951896 592966374 -198037058 1129389391 -1547146016 -648532423 -562435442 1819519657 679099519 1482382605 -1937143503 -1812250295 1869927311 -1111376557 -737191268 1678695752 583844787 1696348770 -627752900 980755526 -1227087569 -604719242 1886635875 -974381199 -207625232 1728251473 386710649 957401725 -1755583241 826456184 904068224 853920415
REM
CELL 1.54180   50.00000   50.00000   50.00000   90.00000   90.00000   90.00000
LATT -1
SFAC C  
C      1  0.4385170000000  0.4489690000000  0.5162300000000 1.0
C      1  0.4209060000000  0.5190630000000  0.5167090000000 1.0
C      1  0.4616860000000  0.5676740000000  0.5241070000000 1.0
C      1  0.5345380000000  0.5698170000000  0.5214330000000 1.0
C      1  0.5771950000000  0.5170500000000  0.5204020000000 1.0
C      1  0.5650940000000  0.4490160000000  0.5189050000000 1.0
C      1  0.5036970000000  0.4195350000000  0.5169780000000 1.0
C      1  0.5685080000000  0.5207430000000  0.5657580000000 1.0
C      1  0.5554480000000  0.4613970000000  0.5642890000000 1.0
C      1  0.5013350000000  0.4328480000000  0.5635310000000 1.0
C      1  0.4454670000000  0.4591240000000  0.5641540000000 1.0
C      1  0.4341450000000  0.5181740000000  0.5637830000000 1.0
C      1  0.4717770000000  0.5646420000000  0.5665410000000 1.0
C      1  0.5286920000000  0.5676040000000  0.5679270000000 1.0
C      1  0.5350070000000  0.4883350000000  0.4852690000000 1.0
C      1  0.5150500000000  0.4634780000000  0.4863660000000 1.0
C      1  0.4824990000000  0.4686070000000  0.4947430000000 1.0
C      1  0.4631210000000  0.4914510000000  0.4914300000000 1.0
C      1  0.4707750000000  0.5233720000000  0.4957600000000 1.0
C      1  0.5000910000000  0.5340020000000  0.4904110000000 1.0
C      1  0.5297550000000  0.5195450000000  0.4893340000000 1.0
C      1  0.4535470000000  0.4324810000000  0.5609340000000 1.0
C      1  0.4175150000000  0.4964120000000  0.5600620000000 1.0
C      1  0.4442040000000  0.5630210000000  0.5627940000000 1.0
C      1  0.5089830000000  0.5868180000000  0.5649100000000 1.0
C      1  0.5750960000000  0.5473540000000  0.5628340000000 1.0
C      1  0.5806200000000  0.4725450000000  0.5637750000000 1.0
C      1  0.5262970000000  0.4205820000000  0.5619420000000 1.0
C      1  0.4860560000000  0.5388550000000  0.4363510000000 1.0
C      1  0.5203200000000  0.5384020000000  0.4383420000000 1.0
C      1  0.5557950000000  0.4996730000000  0.4248230000000 1.0
C      1  0.5380830000000  0.4501570000000  0.4249120000000 1.0
C      1  0.4807370000000  0.4415240000000  0.4260560000000 1.0
C      1  0.4403110000000  0.4905690000000  0.4397990000000 1.0
C      1  0.4613450000000  0.5155860000000  0.4336410000000 1.0
C      1  0.5247670000000  0.4276470000000  0.4401400000000 1.0
C      1  0.4535660000000  0.4421290000000  0.4274610000000 1.0
C      1  0.4150050000000  0.5075530000000  0.4296930000000 1.0
C      1  0.4417310000000  0.5605850000000  0.4400110000000 1.0
C      1  0.5047390000000  0.5745610000000  0.4445240000000 1.0
C      1  0.5534700000000  0.5366840000000  0.4396160000000 1.0
C      1  0.5659900000000  0.4749610000000  0.4386740000000 1.0
C      1  0.5829730000000  0.4709180000000  0.4889150000000 1.0
C      1  0.5318620000000  0.4165740000000  0.4885300000000 1.0
C      1  0.4548080000000  0.4292720000000  0.4854880000000 1.0
C      1  0.4151710000000  0.4952880000000  0.4842280000000 1.0
C      1  0.4406460000000  0.5645610000000  0.4874820000000 1.0
C      1  0.5128390000000  0.5835530000000  0.4907950000000 1.0
C      1  0.5731320000000  0.5464910000000  0.4894400000000 1.0
C      1  0.4792610000000  0.4082750000000  0.4963190000000 1.0
C      1  0.4161080000000  0.4629750000000  0.4947720000000 1.0
C      1  0.4146840000000  0.5446400000000  0.4958070000000 1.0
C      1  0.4816390000000  0.5852340000000  0.5027770000000 1.0
C      1  0.5603950000000  0.5743860000000  0.5006800000000 1.0
C      1  0.5946700000000  0.5003940000000  0.4987330000000 1.0
C      1  0.5634050000000  0.4221440000000  0.4992530000000 1.0
C      1  0.4349530000000  0.5406450000000  0.5389240000000 1.0
C      1  0.4861940000000  0.5803220000000  0.5421150000000 1.0
C      1  0.5530330000000  0.5654130000000  0.5487290000000 1.0
C      1  0.5830250000000  0.4998880000000  0.5480050000000 1.0
C      1  0.5508560000000  0.4363070000000  0.5472210000000 1.0
C      1  0.4787990000000  0.4276450000000  0.5386800000000 1.0
C      1  0.4294260000000  0.4736350000000  0.5378050000000 1.0
C      1  0.5180630000000  0.5397720000000  0.5761680000000 1.0
C      1  0.5379600000000  0.5142250000000  0.5710740000000 1.0
C      1  0.5299290000000  0.4812100000000  0.5689310000000 1.0
C      1  0.5010450000000  0.4642850000000  0.5748830000000 1.0
C      1  0.4700070000000  0.4780470000000  0.5771470000000 1.0
C      1  0.4632490000000  0.5113570000000  0.5761900000000 1.0
C      1  0.4851210000000  0.5372490000000  0.5732740000000 1.0
C      1  0.4649230000000  0.5356000000000  0.5232990000000 1.0
C      1  0.5169740000000  0.5445340000000  0.5178180000000 1.0
C      1  0.5468690000000  0.5177840000000  0.5154330000000 1.0
C      1  0.5455160000000  0.4716060000000  0.5108470000000 1.0
C      1  0.5111880000000  0.4502550000000  0.5153640000000 1.0
C      1  0.4706240000000  0.4552510000000  0.5201990000000 1.0
C      1  0.4459580000000  0.4973830000000  0.5193400000000 1.0
C      1  0.5273780000000  0.4412860000000  0.4701770000000 1.0
C      1  0.4818760000000  0.4428410000000  0.4764360000000 1.0
C      1  0.4412920000000  0.4839440000000  0.4717700000000 1.0
C      1  0.4494500000000  0.5360940000000  0.4779950000000 1.0
C      1  0.4977700000000  0.5607170000000  0.4748020000000 1.0
C      1  0.5474050000000  0.5379670000000  0.4726370000000 1.0
C      1  0.5614270000000  0.4841620000000  0.4702570000000 1.0
C      1  0.5692450000000  0.5500310000000  0.5230350000000 1.0
C      1  0.5833460000000  0.4775930000000  0.5222510000000 1.0
C      1  0.5373980000000  0.4202840000000  0.5214910000000 1.0
C      1  0.4540370000000  0.4187250000000  0.5171480000000 1.0
C      1  0.4072710000000  0.4879120000000  0.5163150000000 1.0
C      1  0.4281950000000  0.5668210000000  0.5183000000000 1.0
C      1  0.5092570000000  0.5921020000000  0.5226450000000 1.0
C      1  0.5748080000000  0.4433600000000  0.4783950000000 1.0
C      1  0.5036970000000  0.4096830000000  0.4762240000000 1.0
C      1  0.4323600000000  0.4449700000000  0.4752750000000 1.0
C      1  0.4118020000000  0.5228870000000  0.4738580000000 1.0
C      1  0.4617910000000  0.5841400000000  0.4788820000000 1.0
C      1  0.5409830000000  0.5849680000000  0.4798190000000 1.0
C      1  0.5872030000000  0.5221310000000  0.4775320000000 1.0
C      1  0.5134260000000  0.5185170000000  0.4156400000000 1.0
C      1  0.5298840000000  0.4963450000000  0.4144780000000 1.0
C      1  0.5207370000000  0.4693440000000  0.4141870000000 1.0
C      1  0.4935340000000  0.4613150000000  0.4106910000000 1.0
C      1  0.4765760000000  0.4784750000000  0.3960290000000 1.0
C      1  0.4677840000000  0.5037840000000  0.4028770000000 1.0
C      1  0.4872040000000  0.5255750000000  0.4050670000000 1.0
C      1  0.4770850000000  0.4728080000000  0.5443060000000 1.0
C      1  0.4635030000000  0.4994810000000  0.5442450000000 1.0
C      1  0.4827860000000  0.5232870000000  0.5437010000000 1.0
C      1  0.5120360000000  0.5295880000000  0.5447890000000 1.0
C      1  0.5328030000000  0.5078820000000  0.5392700000000 1.0
C      1  0.5320470000000  0.4788050000000  0.5350820000000 1.0
C      1  0.5059610000000  0.4654540000000  0.5412150000000 1.0
C      1  0.4943630000000  0.4302490000000  0.4505910000000 1.0
C      1  0.4389750000000  0.4590420000000  0.4481350000000 1.0
C      1  0.4339190000000  0.5288820000000  0.4487240000000 1.0
C      1  0.4725440000000  0.5655530000000  0.4525090000000 1.0
C      1  0.5330830000000  0.5642510000000  0.4565110000000 1.0
C      1  0.5707500000000  0.5115010000000  0.4530640000000 1.0
C      1  0.5562250000000  0.4475800000000  0.4536290000000 1.0
END
