TITL C-2622956-4641-643 -0.00162364969743631 125000 -737.631468895711 0 0 137 (C1) n - 1
REM
REM in /nfs/bkarasulu/CARBON/AIRSS/Generating-Clusters/AIREBO/with-SteepDescent/Higher-Symm/SD-CG/HFTN-CG
REM
REM
REM
REM
REM
REM ./C.cell (b20cbc046b6831c77cfcea5457e17084)
REM
REM compiler GCC version 9.2.1 20190827 (Red Hat 9.2.1-1)
REM options -cpp -mtune=generic -march=x86-64 -g -O0 -fpre-include=/usr/include/finclude/math-vector-fortran.h
REM seed 871610982 2050793168 -1689971196 1151990481 -426520468 -393010427 878368424 -706682988 164742593 -1039521618 932169915 1636054990 1363038708 -1934304288 2052237782 -2314172 -1688557664 1936624501 2088913961 -92617106 1720994626 -1669317692 -2089663145 -329285155 -1662725150 -273800205 315506748 101229456 1011186343 -415839483 -643671749 63986049 1501590903
REM
CELL 1.54180   50.00000   50.00000   50.00000   90.00000   90.00000   90.00000
LATT -1
SFAC C  
C      1  0.5302440000000  0.4786250000000  0.5776320000000 1.0
C      1  0.5360000000000  0.4273980000000  0.5016500000000 1.0
C      1  0.5373590000000  0.4734470000000  0.4213300000000 1.0
C      1  0.5376150000000  0.5672150000000  0.4517660000000 1.0
C      1  0.5360050000000  0.5530770000000  0.5349170000000 1.0
C      1  0.5667360000000  0.5492540000000  0.5468040000000 1.0
C      1  0.5579560000000  0.4659350000000  0.5664980000000 1.0
C      1  0.5732170000000  0.4333640000000  0.4882740000000 1.0
C      1  0.5698490000000  0.4819950000000  0.4255530000000 1.0
C      1  0.5687380000000  0.5648520000000  0.4631370000000 1.0
C      1  0.5100030000000  0.4678140000000  0.4407780000000 1.0
C      1  0.5134860000000  0.5433590000000  0.4494230000000 1.0
C      1  0.5039690000000  0.5560790000000  0.5239000000000 1.0
C      1  0.5033220000000  0.4947850000000  0.5645760000000 1.0
C      1  0.5043900000000  0.4362570000000  0.5105410000000 1.0
C      1  0.4390230000000  0.5690370000000  0.5469290000000 1.0
C      1  0.4366080000000  0.4608130000000  0.5694220000000 1.0
C      1  0.4468670000000  0.4360540000000  0.5058130000000 1.0
C      1  0.4404930000000  0.4800680000000  0.4348040000000 1.0
C      1  0.4432500000000  0.5553150000000  0.4680880000000 1.0
C      1  0.5553950000000  0.5413110000000  0.5093480000000 1.0
C      1  0.5540990000000  0.5011570000000  0.5260410000000 1.0
C      1  0.5367160000000  0.4588590000000  0.5146760000000 1.0
C      1  0.5587740000000  0.4832390000000  0.4800740000000 1.0
C      1  0.5583790000000  0.5207520000000  0.4662700000000 1.0
C      1  0.4807930000000  0.4195300000000  0.4620530000000 1.0
C      1  0.4754970000000  0.5039980000000  0.4032730000000 1.0
C      1  0.4815200000000  0.5853780000000  0.4800370000000 1.0
C      1  0.4776050000000  0.5555110000000  0.5747900000000 1.0
C      1  0.4858440000000  0.4341000000000  0.5708960000000 1.0
C      1  0.5179310000000  0.5753520000000  0.4995950000000 1.0
C      1  0.5191470000000  0.5247320000000  0.5706340000000 1.0
C      1  0.5171500000000  0.4379280000000  0.5420400000000 1.0
C      1  0.5200970000000  0.4377050000000  0.4529600000000 1.0
C      1  0.5230560000000  0.5251700000000  0.4223000000000 1.0
C      1  0.5007070000000  0.5571440000000  0.4141540000000 1.0
C      1  0.5079170000000  0.5997170000000  0.5292780000000 1.0
C      1  0.4968830000000  0.5075510000000  0.6019170000000 1.0
C      1  0.4976690000000  0.3981590000000  0.5231130000000 1.0
C      1  0.5026120000000  0.4373240000000  0.4160060000000 1.0
C      1  0.5008940000000  0.5263130000000  0.3996050000000 1.0
C      1  0.5047220000000  0.6047470000000  0.4956160000000 1.0
C      1  0.5012210000000  0.5394640000000  0.5932560000000 1.0
C      1  0.4988640000000  0.4133270000000  0.5469590000000 1.0
C      1  0.5045450000000  0.4131820000000  0.4385660000000 1.0
C      1  0.4753630000000  0.5398950000000  0.5151480000000 1.0
C      1  0.4741440000000  0.4973110000000  0.5472540000000 1.0
C      1  0.4811030000000  0.4604600000000  0.5098060000000 1.0
C      1  0.4866940000000  0.4821330000000  0.4610220000000 1.0
C      1  0.4921330000000  0.5215440000000  0.4644290000000 1.0
C      1  0.5574370000000  0.4524440000000  0.5385530000000 1.0
C      1  0.5639940000000  0.4539220000000  0.4636620000000 1.0
C      1  0.5714250000000  0.5130420000000  0.4376800000000 1.0
C      1  0.5724490000000  0.5648480000000  0.4970000000000 1.0
C      1  0.5703100000000  0.5181980000000  0.5486160000000 1.0
C      1  0.4555270000000  0.5183740000000  0.5324590000000 1.0
C      1  0.4580890000000  0.4714340000000  0.5453010000000 1.0
C      1  0.4590320000000  0.4591040000000  0.4839760000000 1.0
C      1  0.4642160000000  0.5067210000000  0.4679180000000 1.0
C      1  0.4472690000000  0.5460020000000  0.4990670000000 1.0
C      1  0.4038730000000  0.5305190000000  0.4939050000000 1.0
C      1  0.3940530000000  0.5303600000000  0.5404480000000 1.0
C      1  0.4127120000000  0.4787220000000  0.5546890000000 1.0
C      1  0.4103970000000  0.4724390000000  0.5043810000000 1.0
C      1  0.3981150000000  0.4954190000000  0.4597270000000 1.0
C      1  0.4142270000000  0.4622810000000  0.5307310000000 1.0
C      1  0.4088470000000  0.4734160000000  0.4719100000000 1.0
C      1  0.4079810000000  0.5214050000000  0.4653920000000 1.0
C      1  0.4025790000000  0.5451270000000  0.5172380000000 1.0
C      1  0.4083760000000  0.5057790000000  0.5525900000000 1.0
C      1  0.5283830000000  0.5263800000000  0.5004420000000 1.0
C      1  0.5234070000000  0.5065550000000  0.5236750000000 1.0
C      1  0.5096000000000  0.4792180000000  0.5118870000000 1.0
C      1  0.5266220000000  0.4810990000000  0.4825110000000 1.0
C      1  0.5258580000000  0.5118770000000  0.4707390000000 1.0
C      1  0.4857190000000  0.5110930000000  0.4332910000000 1.0
C      1  0.4846560000000  0.5558820000000  0.4891720000000 1.0
C      1  0.4806100000000  0.5274320000000  0.5614420000000 1.0
C      1  0.4786390000000  0.4476590000000  0.5412120000000 1.0
C      1  0.4846940000000  0.4493920000000  0.4672820000000 1.0
C      1  0.4651230000000  0.5742850000000  0.5542120000000 1.0
C      1  0.4673040000000  0.4602330000000  0.5823710000000 1.0
C      1  0.4569480000000  0.4146560000000  0.4813830000000 1.0
C      1  0.4630130000000  0.4784550000000  0.4191730000000 1.0
C      1  0.4661050000000  0.5704840000000  0.4570670000000 1.0
C      1  0.4326980000000  0.4281600000000  0.5607860000000 1.0
C      1  0.4307070000000  0.4329790000000  0.4754420000000 1.0
C      1  0.4285260000000  0.5046230000000  0.4354960000000 1.0
C      1  0.4224000000000  0.5741110000000  0.4866590000000 1.0
C      1  0.4284850000000  0.5484050000000  0.5626730000000 1.0
C      1  0.5087270000000  0.5684660000000  0.5763820000000 1.0
C      1  0.5058150000000  0.4513570000000  0.5923940000000 1.0
C      1  0.5064410000000  0.4010370000000  0.4708330000000 1.0
C      1  0.5072040000000  0.4922750000000  0.4015990000000 1.0
C      1  0.5087970000000  0.5920730000000  0.4635200000000 1.0
C      1  0.5174810000000  0.4009470000000  0.4972920000000 1.0
C      1  0.5152420000000  0.4618610000000  0.4015730000000 1.0
C      1  0.5151990000000  0.5813440000000  0.4331410000000 1.0
C      1  0.5213710000000  0.5782240000000  0.5520030000000 1.0
C      1  0.5140660000000  0.4817110000000  0.6053160000000 1.0
C      1  0.5815970000000  0.5406440000000  0.4508130000000 1.0
C      1  0.5824280000000  0.5664000000000  0.5254350000000 1.0
C      1  0.5730180000000  0.4872510000000  0.5503730000000 1.0
C      1  0.5706170000000  0.4437780000000  0.5131670000000 1.0
C      1  0.5817430000000  0.4787480000000  0.4552570000000 1.0
C      1  0.5444990000000  0.4300200000000  0.4712730000000 1.0
C      1  0.5472770000000  0.5058580000000  0.4169530000000 1.0
C      1  0.5439190000000  0.5751060000000  0.4836790000000 1.0
C      1  0.5451720000000  0.5383710000000  0.5707850000000 1.0
C      1  0.5298630000000  0.4467820000000  0.5686960000000 1.0
C      1  0.4385650000000  0.5264840000000  0.4574710000000 1.0
C      1  0.4280590000000  0.5651260000000  0.5189650000000 1.0
C      1  0.4318810000000  0.5232340000000  0.5510800000000 1.0
C      1  0.4397000000000  0.4457510000000  0.5325450000000 1.0
C      1  0.4351890000000  0.4622610000000  0.4598530000000 1.0
C      1  0.5164070000000  0.5004480000000  0.4415490000000 1.0
C      1  0.5144490000000  0.5481150000000  0.4830810000000 1.0
C      1  0.5066920000000  0.5264710000000  0.5404190000000 1.0
C      1  0.5052690000000  0.4687380000000  0.5428090000000 1.0
C      1  0.5125350000000  0.4529160000000  0.4820150000000 1.0
C      1  0.4840470000000  0.5577630000000  0.4403370000000 1.0
C      1  0.4847080000000  0.5810630000000  0.5365910000000 1.0
C      1  0.4793360000000  0.4851180000000  0.5866630000000 1.0
C      1  0.4801730000000  0.4136730000000  0.5026820000000 1.0
C      1  0.4820330000000  0.4593350000000  0.4233900000000 1.0
C      1  0.6503830000000  0.5061010000000  0.5057020000000 1.0
C      1  0.4520830000000  0.5117100000000  0.4992910000000 1.0
C      1  0.5663110000000  0.5111880000000  0.4979220000000 1.0
C      1  0.3625840000000  0.4960420000000  0.4922050000000 1.0
C      1  0.5978290000000  0.5107260000000  0.5011100000000 1.0
C      1  0.4833150000000  0.4999460000000  0.5058700000000 1.0
C      1  0.3875270000000  0.4946680000000  0.4982260000000 1.0
C      1  0.6238380000000  0.5079310000000  0.5046000000000 1.0
C      1  0.3367450000000  0.4983220000000  0.4884630000000 1.0
C      1  0.4209310000000  0.5027950000000  0.4981630000000 1.0
C      1  0.7026320000000  0.4989510000000  0.5079970000000 1.0
C      1  0.6765940000000  0.5019630000000  0.5080250000000 1.0
END
