TITL C-2622962-9663-681 0.00158008736030021 125000 -291.609590008473 0 0 55 (C1) n - 1
REM
REM in /nfs/bkarasulu/CARBON/AIRSS/Generating-Clusters/AIREBO/with-SteepDescent/Higher-Symm/SD-CG/HFTN-CG
REM
REM
REM
REM
REM
REM ./C.cell (b20cbc046b6831c77cfcea5457e17084)
REM
REM compiler GCC version 9.2.1 20190827 (Red Hat 9.2.1-1)
REM options -cpp -mtune=generic -march=x86-64 -g -O0 -fpre-include=/usr/include/finclude/math-vector-fortran.h
REM seed -885929247 2067188465 -1934916273 867175372 258404692 -1668595491 -1910218917 -128385620 -1072834693 -2094242384 -949448415 -1850320262 -669417210 864751784 1003506210 -446979954 -2026391984 -1845712121 121268084 59662074 562833574 1110682017 1640158449 375966314 956024323 -111078052 -1572391644 1129308844 -91208202 -227704764 -1919837273 1498935464 -648982827
REM
CELL 1.54180   50.00000   50.00000   50.00000   90.00000   90.00000   90.00000
LATT -1
SFAC C  
C      1  0.5187430000000  0.4733780000000  0.4410460000000 1.0
C      1  0.4779450000000  0.4428000000000  0.4635210000000 1.0
C      1  0.5397850000000  0.5121370000000  0.4105180000000 1.0
C      1  0.5058670000000  0.5629140000000  0.5274060000000 1.0
C      1  0.5573520000000  0.5104990000000  0.5619810000000 1.0
C      1  0.5331290000000  0.5094860000000  0.5743410000000 1.0
C      1  0.4953170000000  0.4487250000000  0.4435770000000 1.0
C      1  0.5315240000000  0.5682340000000  0.4881600000000 1.0
C      1  0.4470620000000  0.4838190000000  0.4679670000000 1.0
C      1  0.4609630000000  0.5304450000000  0.4558490000000 1.0
C      1  0.5371370000000  0.4173100000000  0.4886490000000 1.0
C      1  0.4561320000000  0.5669450000000  0.4965820000000 1.0
C      1  0.4679550000000  0.4388990000000  0.5409560000000 1.0
C      1  0.4897540000000  0.5298470000000  0.4421180000000 1.0
C      1  0.4848830000000  0.5273530000000  0.4942280000000 1.0
C      1  0.4892540000000  0.5200300000000  0.5491690000000 1.0
C      1  0.4515820000000  0.4514080000000  0.4637630000000 1.0
C      1  0.4290160000000  0.5071790000000  0.5215460000000 1.0
C      1  0.4529930000000  0.5517790000000  0.5472730000000 1.0
C      1  0.4418070000000  0.4930180000000  0.5002760000000 1.0
C      1  0.5396040000000  0.4997510000000  0.4378640000000 1.0
C      1  0.4924130000000  0.4365110000000  0.5236130000000 1.0
C      1  0.4325090000000  0.4621420000000  0.4890350000000 1.0
C      1  0.5009800000000  0.5002840000000  0.4471520000000 1.0
C      1  0.5265190000000  0.5029240000000  0.4694500000000 1.0
C      1  0.5236540000000  0.5510700000000  0.5094190000000 1.0
C      1  0.5293350000000  0.4638650000000  0.5428620000000 1.0
C      1  0.5395400000000  0.4668220000000  0.5660690000000 1.0
C      1  0.5078050000000  0.5167980000000  0.5684430000000 1.0
C      1  0.5183640000000  0.5219160000000  0.4965980000000 1.0
C      1  0.4149560000000  0.5090990000000  0.5504570000000 1.0
C      1  0.5655790000000  0.5053690000000  0.4555130000000 1.0
C      1  0.5687860000000  0.4671930000000  0.5001810000000 1.0
C      1  0.5649050000000  0.5036180000000  0.5370860000000 1.0
C      1  0.5825010000000  0.4443680000000  0.4976730000000 1.0
C      1  0.4512530000000  0.4583320000000  0.5304600000000 1.0
C      1  0.4721500000000  0.5633960000000  0.5227570000000 1.0
C      1  0.4753390000000  0.4947120000000  0.4940430000000 1.0
C      1  0.5715790000000  0.4963130000000  0.5117720000000 1.0
C      1  0.4966900000000  0.5442700000000  0.4671750000000 1.0
C      1  0.5396300000000  0.4817550000000  0.4926080000000 1.0
C      1  0.5645420000000  0.5021890000000  0.4817510000000 1.0
C      1  0.5081360000000  0.4900160000000  0.5024170000000 1.0
C      1  0.4955960000000  0.5774500000000  0.5518850000000 1.0
C      1  0.5189770000000  0.4448060000000  0.4230130000000 1.0
C      1  0.4589880000000  0.5448430000000  0.4808160000000 1.0
C      1  0.4885500000000  0.4429040000000  0.4906380000000 1.0
C      1  0.5200290000000  0.4349050000000  0.4956070000000 1.0
C      1  0.5143330000000  0.4613640000000  0.5158480000000 1.0
C      1  0.4386930000000  0.5297280000000  0.5433770000000 1.0
C      1  0.4720100000000  0.4995560000000  0.4605520000000 1.0
C      1  0.5134010000000  0.5668240000000  0.4673450000000 1.0
C      1  0.4810200000000  0.5317500000000  0.5270210000000 1.0
C      1  0.4698700000000  0.5722930000000  0.5616230000000 1.0
C      1  0.4735620000000  0.4646610000000  0.5089460000000 1.0
END
