TITL C-2622955-8511-250 0.000823989892675873 125000 -377.026374219968 0 0 79 (C1) n - 1
REM
REM in /nfs/bkarasulu/CARBON/AIRSS/Generating-Clusters/AIREBO/with-SteepDescent/Higher-Symm/SD-CG/HFTN-CG
REM
REM
REM
REM
REM
REM ./C.cell (b20cbc046b6831c77cfcea5457e17084)
REM
REM compiler GCC version 9.2.1 20190827 (Red Hat 9.2.1-1)
REM options -cpp -mtune=generic -march=x86-64 -g -O0 -fpre-include=/usr/include/finclude/math-vector-fortran.h
REM seed 1438973909 1275657746 1055800131 -1244276403 -1917462712 242133374 2056800439 1413268167 2001426385 1782545942 -533513381 2078773321 -1663252358 491367119 -1994217321 -1370692118 -1205472333 -44821822 1719263214 1037717169 1795805938 -740216832 2147042000 2090876623 -855499278 1756203319 624386734 -430447389 -1043314841 1788125997 1943410082 -72606237 777343192
REM
CELL 1.54180   50.00000   50.00000   50.00000   90.00000   90.00000   90.00000
LATT -1
SFAC C  
C      1  0.4637000000000  0.4513550000000  0.5055490000000 1.0
C      1  0.4512450000000  0.5055600000000  0.4638900000000 1.0
C      1  0.5033580000000  0.4646030000000  0.4512130000000 1.0
C      1  0.4617200000000  0.5515290000000  0.4916690000000 1.0
C      1  0.5384290000000  0.4593770000000  0.4940840000000 1.0
C      1  0.5401680000000  0.5579340000000  0.5033180000000 1.0
C      1  0.4546290000000  0.4967400000000  0.5347750000000 1.0
C      1  0.5456180000000  0.5048530000000  0.5426760000000 1.0
C      1  0.5507530000000  0.4932880000000  0.4608960000000 1.0
C      1  0.5010530000000  0.5347270000000  0.5472520000000 1.0
C      1  0.4894530000000  0.4598520000000  0.5506830000000 1.0
C      1  0.4950720000000  0.5327010000000  0.4493850000000 1.0
C      1  0.5185100000000  0.4969690000000  0.5235390000000 1.0
C      1  0.4978010000000  0.5294170000000  0.5142830000000 1.0
C      1  0.5380920000000  0.5240110000000  0.5019340000000 1.0
C      1  0.5175500000000  0.5005970000000  0.4586880000000 1.0
C      1  0.4844250000000  0.4981330000000  0.4661150000000 1.0
C      1  0.4852430000000  0.4954230000000  0.5302820000000 1.0
C      1  0.4993190000000  0.4679670000000  0.4848770000000 1.0
C      1  0.5037970000000  0.5280760000000  0.4819540000000 1.0
C      1  0.4999950000000  0.4621290000000  0.5184010000000 1.0
C      1  0.5291560000000  0.4920970000000  0.4942500000000 1.0
C      1  0.4627130000000  0.5184470000000  0.4994850000000 1.0
C      1  0.4653180000000  0.4844700000000  0.4978200000000 1.0
C      1  0.4456600000000  0.5470670000000  0.5213030000000 1.0
C      1  0.5473270000000  0.5242730000000  0.4473090000000 1.0
C      1  0.5213890000000  0.4487300000000  0.5471290000000 1.0
C      1  0.4489270000000  0.4547030000000  0.4756760000000 1.0
C      1  0.5497880000000  0.5476630000000  0.4721880000000 1.0
C      1  0.5480900000000  0.4541060000000  0.5265110000000 1.0
C      1  0.5429950000000  0.4724660000000  0.5532890000000 1.0
C      1  0.4476150000000  0.5256540000000  0.5472960000000 1.0
C      1  0.4530090000000  0.4751290000000  0.4504610000000 1.0
C      1  0.5249400000000  0.5482150000000  0.4495790000000 1.0
C      1  0.4739150000000  0.4496190000000  0.4549730000000 1.0
C      1  0.4708990000000  0.5500110000000  0.5436240000000 1.0
C      1  0.5723500000000  0.4963630000000  0.4343790000000 1.0
C      1  0.4937770000000  0.4330850000000  0.5713820000000 1.0
C      1  0.4455320000000  0.5773160000000  0.4952290000000 1.0
C      1  0.5708330000000  0.5057550000000  0.5654710000000 1.0
C      1  0.4345010000000  0.5057380000000  0.5947170000000 1.0
C      1  0.4263170000000  0.5178140000000  0.4448630000000 1.0
C      1  0.4943390000000  0.5569890000000  0.4255910000000 1.0
C      1  0.4941820000000  0.4539630000000  0.4208440000000 1.0
C      1  0.4996410000000  0.5618020000000  0.5683690000000 1.0
C      1  0.4513410000000  0.4198430000000  0.5087610000000 1.0
C      1  0.5617260000000  0.5741360000000  0.5137510000000 1.0
C      1  0.5557530000000  0.4335740000000  0.4802770000000 1.0
C      1  0.5751970000000  0.4576670000000  0.5091120000000 1.0
C      1  0.4489630000000  0.5044390000000  0.5730240000000 1.0
C      1  0.5007480000000  0.5720990000000  0.4516400000000 1.0
C      1  0.5741280000000  0.5390620000000  0.4943270000000 1.0
C      1  0.4258680000000  0.4596650000000  0.4961090000000 1.0
C      1  0.4233260000000  0.5443530000000  0.4995600000000 1.0
C      1  0.4576440000000  0.4959530000000  0.4258280000000 1.0
C      1  0.5435920000000  0.5009330000000  0.4228500000000 1.0
C      1  0.5365670000000  0.4900390000000  0.5784970000000 1.0
C      1  0.5004890000000  0.4223460000000  0.5429050000000 1.0
C      1  0.4952060000000  0.5735540000000  0.5402680000000 1.0
C      1  0.4939080000000  0.4268540000000  0.4592120000000 1.0
C      1  0.4274030000000  0.5222420000000  0.4815200000000 1.0
C      1  0.5258260000000  0.4760510000000  0.4283660000000 1.0
C      1  0.4820950000000  0.4264890000000  0.5198980000000 1.0
C      1  0.4370180000000  0.4736270000000  0.5213400000000 1.0
C      1  0.5674740000000  0.5231240000000  0.5240810000000 1.0
C      1  0.5657170000000  0.4780670000000  0.4861770000000 1.0
C      1  0.5227470000000  0.5176160000000  0.5641880000000 1.0
C      1  0.4707630000000  0.4838360000000  0.5654070000000 1.0
C      1  0.4793600000000  0.5117950000000  0.4282200000000 1.0
C      1  0.4845970000000  0.5696270000000  0.4741880000000 1.0
C      1  0.5225210000000  0.4375130000000  0.4734450000000 1.0
C      1  0.5135020000000  0.5717850000000  0.5192550000000 1.0
C      1  0.4994390000000  0.4970430000000  0.5598540000000 1.0
C      1  0.5006820000000  0.4368830000000  0.4971120000000 1.0
C      1  0.4353250000000  0.4983030000000  0.4998050000000 1.0
C      1  0.5044080000000  0.4987690000000  0.4305750000000 1.0
C      1  0.5009160000000  0.5563740000000  0.4964510000000 1.0
C      1  0.5664230000000  0.5065000000000  0.4950710000000 1.0
C      1  0.4960180000000  0.4991540000000  0.4981040000000 1.0
END
