TITL C-2622961-1971-501 0.00255850926556874 125000 -246.005096554586 0 0 42 (C1) n - 1
REM
REM in /nfs/bkarasulu/CARBON/AIRSS/Generating-Clusters/AIREBO/with-SteepDescent/Higher-Symm/SD-CG/HFTN-CG
REM
REM
REM
REM
REM
REM ./C.cell (b20cbc046b6831c77cfcea5457e17084)
REM
REM compiler GCC version 9.2.1 20190827 (Red Hat 9.2.1-1)
REM options -cpp -mtune=generic -march=x86-64 -g -O0 -fpre-include=/usr/include/finclude/math-vector-fortran.h
REM seed 42935245 -186118076 -982418365 1065327429 515901155 1445425029 -444918953 490313529 -156883687 1939438491 1679103411 71113126 433857481 -579934540 -251748578 -1577543832 -1872650457 313333885 -2025762238 1340303171 -1126449823 -1617025144 1340903426 -169797798 69414668 -1967337826 -2094972994 -349730677 1975985551 -370649846 1363960942 -1864909077 1222233430
REM
CELL 1.54180   50.00000   50.00000   50.00000   90.00000   90.00000   90.00000
LATT -1
SFAC C  
C      1  0.4936890000000  0.5586490000000  0.4632910000000 1.0
C      1  0.5120310000000  0.5686130000000  0.5317490000000 1.0
C      1  0.4855110000000  0.5612000000000  0.5335350000000 1.0
C      1  0.5210120000000  0.5611720000000  0.4609730000000 1.0
C      1  0.5425470000000  0.4693210000000  0.5081600000000 1.0
C      1  0.4468320000000  0.4730450000000  0.4803500000000 1.0
C      1  0.5538610000000  0.4692490000000  0.4790570000000 1.0
C      1  0.4486820000000  0.4662430000000  0.5080160000000 1.0
C      1  0.4370720000000  0.4824810000000  0.5277010000000 1.0
C      1  0.5685780000000  0.4917620000000  0.4682620000000 1.0
C      1  0.4369140000000  0.4993560000000  0.4737570000000 1.0
C      1  0.5553070000000  0.4930970000000  0.5242580000000 1.0
C      1  0.5568710000000  0.5156210000000  0.5071540000000 1.0
C      1  0.4411820000000  0.5172750000000  0.4960120000000 1.0
C      1  0.5766910000000  0.5110880000000  0.4874670000000 1.0
C      1  0.4275540000000  0.5075240000000  0.5189200000000 1.0
C      1  0.5142010000000  0.4831760000000  0.4539280000000 1.0
C      1  0.4872590000000  0.4845720000000  0.5601740000000 1.0
C      1  0.5150280000000  0.4881070000000  0.5539970000000 1.0
C      1  0.4863760000000  0.4840600000000  0.4532860000000 1.0
C      1  0.4708310000000  0.4644250000000  0.4670570000000 1.0
C      1  0.5290610000000  0.4635000000000  0.5388250000000 1.0
C      1  0.4734740000000  0.4567810000000  0.5464390000000 1.0
C      1  0.5292250000000  0.4615030000000  0.4648710000000 1.0
C      1  0.5148350000000  0.5351600000000  0.5263490000000 1.0
C      1  0.4847920000000  0.5292210000000  0.4730480000000 1.0
C      1  0.5190960000000  0.5296260000000  0.4735150000000 1.0
C      1  0.4809330000000  0.5299920000000  0.5255880000000 1.0
C      1  0.4846840000000  0.4464860000000  0.4839300000000 1.0
C      1  0.5119650000000  0.4544650000000  0.5117150000000 1.0
C      1  0.4788200000000  0.4533610000000  0.5159930000000 1.0
C      1  0.5140810000000  0.4432950000000  0.4803880000000 1.0
C      1  0.4750820000000  0.5098660000000  0.4514380000000 1.0
C      1  0.5243730000000  0.5199340000000  0.5510400000000 1.0
C      1  0.4715010000000  0.5121560000000  0.5480220000000 1.0
C      1  0.5277040000000  0.5078270000000  0.4528910000000 1.0
C      1  0.5467760000000  0.4973360000000  0.5502260000000 1.0
C      1  0.4469190000000  0.5094540000000  0.4492120000000 1.0
C      1  0.5549360000000  0.5044340000000  0.4467940000000 1.0
C      1  0.4541760000000  0.4836170000000  0.5523020000000 1.0
C      1  0.4680100000000  0.5262510000000  0.4985540000000 1.0
C      1  0.5315290000000  0.5274230000000  0.5017580000000 1.0
END
