TITL C-2622966-9038-642 0.000737521196026495 125000 -747.850382341187 0 0 141 (C1) n - 1
REM
REM in /nfs/bkarasulu/CARBON/AIRSS/Generating-Clusters/AIREBO/with-SteepDescent/Higher-Symm/SD-CG/HFTN-CG
REM
REM
REM
REM
REM
REM ./C.cell (b20cbc046b6831c77cfcea5457e17084)
REM
REM compiler GCC version 9.2.1 20190827 (Red Hat 9.2.1-1)
REM options -cpp -mtune=generic -march=x86-64 -g -O0 -fpre-include=/usr/include/finclude/math-vector-fortran.h
REM seed 1442274168 959163540 756226885 -132404297 659951247 -2010514292 1799821290 -1107278843 899414710 31369519 1082187875 -970641221 -1404478944 -741790162 -18908438 -1747323246 458924446 -1605174842 2058065640 -998309815 -1688439740 1573669476 1173605452 1547670678 1045068577 558786459 1289122899 1118660970 1395599839 887565869 232443356 -1970065713 -1991176769
REM
CELL 1.54180   50.00000   50.00000   50.00000   90.00000   90.00000   90.00000
LATT -1
SFAC C  
C      1  0.5560060000000  0.5412990000000  0.5770630000000 1.0
C      1  0.4754540000000  0.5627720000000  0.5799280000000 1.0
C      1  0.4311450000000  0.4927540000000  0.5877930000000 1.0
C      1  0.4809840000000  0.4296720000000  0.5832950000000 1.0
C      1  0.5534180000000  0.4576000000000  0.5727650000000 1.0
C      1  0.4510570000000  0.4653810000000  0.4324700000000 1.0
C      1  0.5304740000000  0.4453920000000  0.4555400000000 1.0
C      1  0.5627060000000  0.5049360000000  0.4531430000000 1.0
C      1  0.5152000000000  0.5610900000000  0.4513150000000 1.0
C      1  0.4524720000000  0.5257420000000  0.4531310000000 1.0
C      1  0.5267030000000  0.5748390000000  0.5467630000000 1.0
C      1  0.4355200000000  0.5697700000000  0.5381000000000 1.0
C      1  0.4113360000000  0.4586810000000  0.5418580000000 1.0
C      1  0.5237190000000  0.4199760000000  0.5429410000000 1.0
C      1  0.5759930000000  0.4927990000000  0.5476570000000 1.0
C      1  0.4708380000000  0.6031710000000  0.4913140000000 1.0
C      1  0.3954990000000  0.4948170000000  0.5003890000000 1.0
C      1  0.4587250000000  0.4016240000000  0.4885340000000 1.0
C      1  0.5889660000000  0.4425990000000  0.4968980000000 1.0
C      1  0.5800600000000  0.5703070000000  0.4894700000000 1.0
C      1  0.4992090000000  0.5835270000000  0.4712470000000 1.0
C      1  0.4356340000000  0.5233070000000  0.4930160000000 1.0
C      1  0.4533590000000  0.4407230000000  0.4857940000000 1.0
C      1  0.5457260000000  0.4286720000000  0.4809330000000 1.0
C      1  0.5696010000000  0.5183080000000  0.4836710000000 1.0
C      1  0.4623020000000  0.4720200000000  0.5585150000000 1.0
C      1  0.5110660000000  0.4624540000000  0.5550780000000 1.0
C      1  0.5419880000000  0.5065200000000  0.5636440000000 1.0
C      1  0.5071200000000  0.5445550000000  0.5636400000000 1.0
C      1  0.4605570000000  0.5278980000000  0.5593390000000 1.0
C      1  0.5226270000000  0.4137990000000  0.4457150000000 1.0
C      1  0.5959710000000  0.5010110000000  0.4516500000000 1.0
C      1  0.5248710000000  0.5934270000000  0.4430930000000 1.0
C      1  0.4345820000000  0.5515710000000  0.4561310000000 1.0
C      1  0.4296020000000  0.4538600000000  0.4536830000000 1.0
C      1  0.5633480000000  0.4436260000000  0.5173640000000 1.0
C      1  0.5706250000000  0.5552450000000  0.5113630000000 1.0
C      1  0.4873900000000  0.5807650000000  0.5082200000000 1.0
C      1  0.4011190000000  0.5221480000000  0.5200720000000 1.0
C      1  0.4453830000000  0.4168460000000  0.5166720000000 1.0
C      1  0.5461540000000  0.5319230000000  0.5042150000000 1.0
C      1  0.4836970000000  0.5469070000000  0.5096460000000 1.0
C      1  0.4519050000000  0.4995490000000  0.5111230000000 1.0
C      1  0.4772180000000  0.4483370000000  0.5088690000000 1.0
C      1  0.5423040000000  0.4662340000000  0.5108560000000 1.0
C      1  0.5147350000000  0.4726230000000  0.4946770000000 1.0
C      1  0.5319710000000  0.5019650000000  0.4965570000000 1.0
C      1  0.5072300000000  0.5252350000000  0.4981280000000 1.0
C      1  0.4803820000000  0.5074620000000  0.4963620000000 1.0
C      1  0.4808800000000  0.4757360000000  0.4939780000000 1.0
C      1  0.5670260000000  0.5570700000000  0.4415760000000 1.0
C      1  0.4671480000000  0.5792980000000  0.4479050000000 1.0
C      1  0.4154790000000  0.4963020000000  0.4491160000000 1.0
C      1  0.4625290000000  0.4273460000000  0.4368430000000 1.0
C      1  0.5755100000000  0.4447290000000  0.4475150000000 1.0
C      1  0.5316160000000  0.5601300000000  0.5164980000000 1.0
C      1  0.4509110000000  0.5406660000000  0.5161020000000 1.0
C      1  0.4325120000000  0.4771160000000  0.5234860000000 1.0
C      1  0.5033030000000  0.4281680000000  0.5172310000000 1.0
C      1  0.5928980000000  0.4869390000000  0.5257230000000 1.0
C      1  0.4971520000000  0.4673230000000  0.4574710000000 1.0
C      1  0.5211310000000  0.4866830000000  0.4577810000000 1.0
C      1  0.5207000000000  0.5158600000000  0.4608130000000 1.0
C      1  0.4916600000000  0.5194720000000  0.4580040000000 1.0
C      1  0.4807820000000  0.4929380000000  0.4536380000000 1.0
C      1  0.4897140000000  0.4149340000000  0.4822540000000 1.0
C      1  0.5816810000000  0.4608900000000  0.4744130000000 1.0
C      1  0.5646580000000  0.5766180000000  0.4668190000000 1.0
C      1  0.4509030000000  0.5806900000000  0.4777600000000 1.0
C      1  0.4150470000000  0.4818020000000  0.4798710000000 1.0
C      1  0.5048980000000  0.4446950000000  0.4779610000000 1.0
C      1  0.5565880000000  0.4808270000000  0.4858760000000 1.0
C      1  0.5272520000000  0.5443120000000  0.4783440000000 1.0
C      1  0.4711540000000  0.5354280000000  0.4798670000000 1.0
C      1  0.4488440000000  0.4802570000000  0.4832940000000 1.0
C      1  0.5069060000000  0.5746810000000  0.5748160000000 1.0
C      1  0.4387810000000  0.5190760000000  0.5839310000000 1.0
C      1  0.4611930000000  0.4497280000000  0.5841810000000 1.0
C      1  0.5285560000000  0.4393310000000  0.5688490000000 1.0
C      1  0.5721930000000  0.5124350000000  0.5747890000000 1.0
C      1  0.4813150000000  0.4522020000000  0.4370170000000 1.0
C      1  0.5489680000000  0.4739310000000  0.4558620000000 1.0
C      1  0.5474420000000  0.5351980000000  0.4526280000000 1.0
C      1  0.4824720000000  0.5521340000000  0.4534880000000 1.0
C      1  0.4489630000000  0.4919180000000  0.4531360000000 1.0
C      1  0.5064140000000  0.5265970000000  0.4077940000000 1.0
C      1  0.4811020000000  0.5109240000000  0.4050360000000 1.0
C      1  0.4883500000000  0.4826640000000  0.3997600000000 1.0
C      1  0.5176960000000  0.4787320000000  0.4061710000000 1.0
C      1  0.5293380000000  0.5066340000000  0.4082990000000 1.0
C      1  0.4784300000000  0.5144450000000  0.5847030000000 1.0
C      1  0.4795780000000  0.4866250000000  0.5827510000000 1.0
C      1  0.5062970000000  0.4794740000000  0.5798960000000 1.0
C      1  0.5218990000000  0.5027460000000  0.5822580000000 1.0
C      1  0.5044030000000  0.5245930000000  0.5853140000000 1.0
C      1  0.4178270000000  0.5482510000000  0.5181380000000 1.0
C      1  0.4292480000000  0.4433430000000  0.5173460000000 1.0
C      1  0.5359410000000  0.4268580000000  0.5118640000000 1.0
C      1  0.5918780000000  0.5010030000000  0.5009830000000 1.0
C      1  0.5191990000000  0.5790860000000  0.4962980000000 1.0
C      1  0.5696240000000  0.4233710000000  0.4676710000000 1.0
C      1  0.5852120000000  0.5397140000000  0.4643800000000 1.0
C      1  0.4927330000000  0.6015600000000  0.4452500000000 1.0
C      1  0.4148240000000  0.5205070000000  0.4709150000000 1.0
C      1  0.4556480000000  0.4203620000000  0.4622410000000 1.0
C      1  0.4518470000000  0.5605060000000  0.5585630000000 1.0
C      1  0.4297230000000  0.4748370000000  0.5630950000000 1.0
C      1  0.4929390000000  0.4268940000000  0.5557470000000 1.0
C      1  0.5557050000000  0.4728070000000  0.5478840000000 1.0
C      1  0.5367030000000  0.5443180000000  0.5528170000000 1.0
C      1  0.4574200000000  0.5146920000000  0.4213430000000 1.0
C      1  0.4667890000000  0.4648390000000  0.4022510000000 1.0
C      1  0.5278950000000  0.4572910000000  0.4237700000000 1.0
C      1  0.5547750000000  0.5121540000000  0.4208590000000 1.0
C      1  0.5045730000000  0.5523610000000  0.4202080000000 1.0
C      1  0.5100200000000  0.4283850000000  0.5918540000000 1.0
C      1  0.5672060000000  0.4804340000000  0.5853680000000 1.0
C      1  0.5367680000000  0.5636480000000  0.5876450000000 1.0
C      1  0.4536310000000  0.5446540000000  0.5949360000000 1.0
C      1  0.4425500000000  0.4666110000000  0.5999940000000 1.0
C      1  0.5574910000000  0.4485430000000  0.4262380000000 1.0
C      1  0.5678290000000  0.5367460000000  0.4158890000000 1.0
C      1  0.4822050000000  0.5709850000000  0.4184930000000 1.0
C      1  0.4302200000000  0.5042590000000  0.4201100000000 1.0
C      1  0.4602370000000  0.4355470000000  0.4075830000000 1.0
C      1  0.4220130000000  0.4509580000000  0.4863690000000 1.0
C      1  0.5076320000000  0.4001300000000  0.4609990000000 1.0
C      1  0.5985630000000  0.4866280000000  0.4757760000000 1.0
C      1  0.5389010000000  0.5875730000000  0.4698590000000 1.0
C      1  0.4290530000000  0.5560010000000  0.4863580000000 1.0
C      1  0.4030260000000  0.4905360000000  0.5324630000000 1.0
C      1  0.4782890000000  0.4087990000000  0.5136890000000 1.0
C      1  0.5935650000000  0.4582540000000  0.5236620000000 1.0
C      1  0.5582140000000  0.5719650000000  0.5340650000000 1.0
C      1  0.4542580000000  0.5737700000000  0.5113830000000 1.0
C      1  0.4826950000000  0.4527440000000  0.5408510000000 1.0
C      1  0.5271540000000  0.4804400000000  0.5348580000000 1.0
C      1  0.5336680000000  0.5197550000000  0.5334260000000 1.0
C      1  0.4882190000000  0.5349040000000  0.5408390000000 1.0
C      1  0.4699240000000  0.4995500000000  0.5400170000000 1.0
C      1  0.5035120000000  0.5046580000000  0.5381430000000 1.0
END
