TITL C-2622960-5345-695 -0.00094058274879027 125000 -307.199210022467 0 0 50 (C1) n - 1
REM
REM in /nfs/bkarasulu/CARBON/AIRSS/Generating-Clusters/AIREBO/with-SteepDescent/Higher-Symm/SD-CG/HFTN-CG
REM
REM
REM
REM
REM
REM ./C.cell (b20cbc046b6831c77cfcea5457e17084)
REM
REM compiler GCC version 9.2.1 20190827 (Red Hat 9.2.1-1)
REM options -cpp -mtune=generic -march=x86-64 -g -O0 -fpre-include=/usr/include/finclude/math-vector-fortran.h
REM seed -1248172458 -1306977112 1742368789 136674977 -253617647 760526785 1827593095 -509010985 200113610 -1561076760 490047020 -323445993 -1381740226 199378021 -393513507 1567162629 604400213 -1241005099 1635175313 4284693 445151534 -962809190 -354729548 988708178 156215764 -13430278 1862594260 -1755439545 892739154 1208036881 15491662 -1612886045 -1867673153
REM
CELL 1.54180   50.00000   50.00000   50.00000   90.00000   90.00000   90.00000
LATT -1
SFAC C  
C      1  0.5414740000000  0.5101630000000  0.5139630000000 1.0
C      1  0.5020020000000  0.5292140000000  0.5121640000000 1.0
C      1  0.4708620000000  0.5320350000000  0.5110350000000 1.0
C      1  0.4633040000000  0.4794360000000  0.5126520000000 1.0
C      1  0.4920220000000  0.4695190000000  0.5118030000000 1.0
C      1  0.5374870000000  0.4773870000000  0.5134990000000 1.0
C      1  0.5501030000000  0.5202870000000  0.4839190000000 1.0
C      1  0.5168600000000  0.5273330000000  0.4851830000000 1.0
C      1  0.4583330000000  0.5208620000000  0.4888840000000 1.0
C      1  0.4544340000000  0.4921940000000  0.4894370000000 1.0
C      1  0.5078640000000  0.4685900000000  0.4851420000000 1.0
C      1  0.5429110000000  0.4661190000000  0.4834870000000 1.0
C      1  0.4862250000000  0.5263870000000  0.4225900000000 1.0
C      1  0.4674720000000  0.5043020000000  0.4211210000000 1.0
C      1  0.4791730000000  0.4778580000000  0.4227410000000 1.0
C      1  0.5074940000000  0.4730640000000  0.4178030000000 1.0
C      1  0.5257260000000  0.4959250000000  0.4161370000000 1.0
C      1  0.5147340000000  0.5229930000000  0.4177700000000 1.0
C      1  0.4870170000000  0.5308250000000  0.5784570000000 1.0
C      1  0.4660210000000  0.5106540000000  0.5798750000000 1.0
C      1  0.4723140000000  0.4808080000000  0.5673770000000 1.0
C      1  0.5040290000000  0.4749390000000  0.5733210000000 1.0
C      1  0.5232690000000  0.4954290000000  0.5790870000000 1.0
C      1  0.5152160000000  0.5233120000000  0.5788530000000 1.0
C      1  0.5171420000000  0.4563540000000  0.4405660000000 1.0
C      1  0.5463870000000  0.4929660000000  0.4378820000000 1.0
C      1  0.5286430000000  0.5363070000000  0.4405510000000 1.0
C      1  0.4827700000000  0.5396760000000  0.4488600000000 1.0
C      1  0.4490780000000  0.5070150000000  0.4445160000000 1.0
C      1  0.4722270000000  0.4662630000000  0.4491290000000 1.0
C      1  0.5152680000000  0.4573690000000  0.5528990000000 1.0
C      1  0.5457390000000  0.4921550000000  0.5593620000000 1.0
C      1  0.5285590000000  0.5355630000000  0.5550480000000 1.0
C      1  0.4831210000000  0.5469790000000  0.5537510000000 1.0
C      1  0.4522900000000  0.5117750000000  0.5521340000000 1.0
C      1  0.4707940000000  0.4512210000000  0.5514690000000 1.0
C      1  0.4588400000000  0.5296560000000  0.4614790000000 1.0
C      1  0.4523880000000  0.4828440000000  0.4620820000000 1.0
C      1  0.4960980000000  0.4559440000000  0.4605570000000 1.0
C      1  0.5410040000000  0.4683100000000  0.4514160000000 1.0
C      1  0.5479990000000  0.5180480000000  0.4516180000000 1.0
C      1  0.5085260000000  0.5427530000000  0.4605590000000 1.0
C      1  0.4616410000000  0.5352170000000  0.5378430000000 1.0
C      1  0.4555070000000  0.4856520000000  0.5381510000000 1.0
C      1  0.4940260000000  0.4503000000000  0.5353030000000 1.0
C      1  0.5394320000000  0.4687700000000  0.5429030000000 1.0
C      1  0.5468170000000  0.5167940000000  0.5435590000000 1.0
C      1  0.5077780000000  0.5456320000000  0.5381460000000 1.0
C      1  0.5267180000000  0.4957750000000  0.4796880000000 1.0
C      1  0.5098140000000  0.4970230000000  0.5156690000000 1.0
END
