TITL C-2622957-9142-637 -3.46870314557257e-06 125000 -266.672473705176 0 0 47 (C1) n - 1
REM
REM in /nfs/bkarasulu/CARBON/AIRSS/Generating-Clusters/AIREBO/with-SteepDescent/Higher-Symm/SD-CG/HFTN-CG
REM
REM
REM
REM
REM
REM ./C.cell (b20cbc046b6831c77cfcea5457e17084)
REM
REM compiler GCC version 9.2.1 20190827 (Red Hat 9.2.1-1)
REM options -cpp -mtune=generic -march=x86-64 -g -O0 -fpre-include=/usr/include/finclude/math-vector-fortran.h
REM seed -891383191 -268381468 258623382 1997618746 -946154282 -393463366 -1807994782 -1644255170 1904193783 284103288 -505482259 -1450127688 -175305694 -1913533430 -1093351061 -1214340028 -1290911301 344014053 -1114740120 -1677044271 1088476627 2130939525 1789423934 1574124229 1402383322 1610124167 661487183 753635083 -556369956 553684196 -766358058 1999223752 -1882658220
REM
CELL 1.54180   50.00000   50.00000   50.00000   90.00000   90.00000   90.00000
LATT -1
SFAC C  
C      1  0.5338370000000  0.5126940000000  0.4691560000000 1.0
C      1  0.5417210000000  0.5103130000000  0.4426860000000 1.0
C      1  0.5308420000000  0.4870100000000  0.4266680000000 1.0
C      1  0.5050390000000  0.4954490000000  0.4131480000000 1.0
C      1  0.4815700000000  0.4826820000000  0.4207700000000 1.0
C      1  0.4574570000000  0.4974510000000  0.4224620000000 1.0
C      1  0.4571290000000  0.5223590000000  0.4359470000000 1.0
C      1  0.4690100000000  0.5244060000000  0.4614440000000 1.0
C      1  0.4830810000000  0.5477670000000  0.4681700000000 1.0
C      1  0.5036260000000  0.5462730000000  0.4880220000000 1.0
C      1  0.5298620000000  0.5387580000000  0.4799280000000 1.0
C      1  0.5567110000000  0.5066700000000  0.5789150000000 1.0
C      1  0.5662750000000  0.5210520000000  0.5996620000000 1.0
C      1  0.5679600000000  0.5450920000000  0.6118690000000 1.0
C      1  0.5527220000000  0.5647600000000  0.6225720000000 1.0
C      1  0.5313960000000  0.5803670000000  0.6165740000000 1.0
C      1  0.5061650000000  0.5784770000000  0.6069150000000 1.0
C      1  0.4917780000000  0.5683810000000  0.5863810000000 1.0
C      1  0.4859070000000  0.5463150000000  0.5720140000000 1.0
C      1  0.4946900000000  0.5260490000000  0.5566070000000 1.0
C      1  0.5097280000000  0.5027480000000  0.5532320000000 1.0
C      1  0.5363030000000  0.5041750000000  0.5615370000000 1.0
C      1  0.4988420000000  0.4795350000000  0.5417820000000 1.0
C      1  0.5035010000000  0.4541460000000  0.5523010000000 1.0
C      1  0.4964110000000  0.4297250000000  0.5610650000000 1.0
C      1  0.4868240000000  0.4052860000000  0.5547560000000 1.0
C      1  0.4661990000000  0.3924830000000  0.5427770000000 1.0
C      1  0.4521230000000  0.3930680000000  0.5196150000000 1.0
C      1  0.4393600000000  0.4108690000000  0.5037010000000 1.0
C      1  0.4423100000000  0.4345830000000  0.4911230000000 1.0
C      1  0.4489640000000  0.4605390000000  0.4934230000000 1.0
C      1  0.4661490000000  0.4821780000000  0.4969450000000 1.0
C      1  0.4835960000000  0.4806450000000  0.5185530000000 1.0
C      1  0.5298260000000  0.4909020000000  0.4846100000000 1.0
C      1  0.5567820000000  0.5292930000000  0.4298140000000 1.0
C      1  0.5497830000000  0.4776740000000  0.4075230000000 1.0
C      1  0.5060930000000  0.5151270000000  0.3940530000000 1.0
C      1  0.4814420000000  0.4562270000000  0.4263660000000 1.0
C      1  0.4348100000000  0.4877550000000  0.4113180000000 1.0
C      1  0.4452880000000  0.5438500000000  0.4246090000000 1.0
C      1  0.4665110000000  0.5038700000000  0.4798530000000 1.0
C      1  0.4772310000000  0.5714170000000  0.4564940000000 1.0
C      1  0.4983120000000  0.5524160000000  0.5137830000000 1.0
C      1  0.5505330000000  0.5559680000000  0.4823900000000 1.0
C      1  0.5212280000000  0.4447060000000  0.4641860000000 1.0
C      1  0.5242820000000  0.4641590000000  0.4465910000000 1.0
C      1  0.5164590000000  0.4268710000000  0.4827960000000 1.0
END
