TITL C-2622960-5345-726 0.000871909489274545 125000 -355.865239182675 0 0 65 (C1) n - 1
REM
REM in /nfs/bkarasulu/CARBON/AIRSS/Generating-Clusters/AIREBO/with-SteepDescent/Higher-Symm/SD-CG/HFTN-CG
REM
REM
REM
REM
REM
REM ./C.cell (b20cbc046b6831c77cfcea5457e17084)
REM
REM compiler GCC version 9.2.1 20190827 (Red Hat 9.2.1-1)
REM options -cpp -mtune=generic -march=x86-64 -g -O0 -fpre-include=/usr/include/finclude/math-vector-fortran.h
REM seed 1585927417 -1822947851 20951225 -1176016103 1365737824 -1559243618 1610530099 603547686 -1789819205 -1537117807 1509636665 1807652453 -1867753725 756885592 1389453444 -1218730714 -2100816898 -1026082630 12215601 2038818106 -301284618 -1228609362 1659992597 1612089992 758282847 -1039204793 2101182877 -1332679353 909623912 24794059 -379114109 1832141293 1422979190
REM
CELL 1.54180   50.00000   50.00000   50.00000   90.00000   90.00000   90.00000
LATT -1
SFAC C  
C      1  0.4715610000000  0.5638690000000  0.5429380000000 1.0
C      1  0.5714150000000  0.5269950000000  0.5405320000000 1.0
C      1  0.5282430000000  0.4362470000000  0.5420290000000 1.0
C      1  0.4295020000000  0.4715590000000  0.5398430000000 1.0
C      1  0.4723030000000  0.4288880000000  0.4576570000000 1.0
C      1  0.5646910000000  0.4715870000000  0.4555210000000 1.0
C      1  0.5265270000000  0.5703770000000  0.4574630000000 1.0
C      1  0.4372700000000  0.5281260000000  0.4563040000000 1.0
C      1  0.4675740000000  0.5167710000000  0.5254800000000 1.0
C      1  0.5254970000000  0.5365770000000  0.5252990000000 1.0
C      1  0.5324170000000  0.4835750000000  0.5252260000000 1.0
C      1  0.4768990000000  0.4628820000000  0.5259210000000 1.0
C      1  0.4632260000000  0.4765900000000  0.4711560000000 1.0
C      1  0.5174460000000  0.4675830000000  0.4721740000000 1.0
C      1  0.5373030000000  0.5237320000000  0.4710980000000 1.0
C      1  0.4850820000000  0.5315330000000  0.4722040000000 1.0
C      1  0.4539220000000  0.5480250000000  0.5269780000000 1.0
C      1  0.5569430000000  0.5484360000000  0.5279610000000 1.0
C      1  0.5465610000000  0.4526530000000  0.5276060000000 1.0
C      1  0.4451820000000  0.4508940000000  0.5276110000000 1.0
C      1  0.4515660000000  0.4446880000000  0.4694960000000 1.0
C      1  0.5484660000000  0.4535520000000  0.4704660000000 1.0
C      1  0.5481630000000  0.5558500000000  0.4693100000000 1.0
C      1  0.4542710000000  0.5460340000000  0.4705400000000 1.0
C      1  0.4776460000000  0.4856110000000  0.5484180000000 1.0
C      1  0.4893960000000  0.5169610000000  0.5506950000000 1.0
C      1  0.5220240000000  0.5147770000000  0.5479830000000 1.0
C      1  0.5103620000000  0.4831630000000  0.5500290000000 1.0
C      1  0.4838140000000  0.5095690000000  0.4474230000000 1.0
C      1  0.4863820000000  0.4768640000000  0.4487900000000 1.0
C      1  0.5177460000000  0.4887920000000  0.4466480000000 1.0
C      1  0.5153200000000  0.5213930000000  0.4481950000000 1.0
C      1  0.5105150000000  0.5825530000000  0.4764820000000 1.0
C      1  0.5798180000000  0.4880360000000  0.4716610000000 1.0
C      1  0.4874680000000  0.4163120000000  0.4771640000000 1.0
C      1  0.4208390000000  0.5135160000000  0.4728970000000 1.0
C      1  0.5131260000000  0.4202590000000  0.5254810000000 1.0
C      1  0.5834300000000  0.5111680000000  0.5212270000000 1.0
C      1  0.4887200000000  0.5789370000000  0.5273060000000 1.0
C      1  0.4168810000000  0.4869740000000  0.5205990000000 1.0
C      1  0.5471790000000  0.4822550000000  0.4350880000000 1.0
C      1  0.4856090000000  0.4464100000000  0.4386880000000 1.0
C      1  0.4542480000000  0.5161160000000  0.4361970000000 1.0
C      1  0.5147190000000  0.5521080000000  0.4381830000000 1.0
C      1  0.5525620000000  0.5148940000000  0.5591010000000 1.0
C      1  0.4822420000000  0.5459070000000  0.5629770000000 1.0
C      1  0.4472340000000  0.4846370000000  0.5588030000000 1.0
C      1  0.5165960000000  0.4537690000000  0.5618650000000 1.0
C      1  0.5988710000000  0.5006480000000  0.4944550000000 1.0
C      1  0.4959560000000  0.4017400000000  0.5054470000000 1.0
C      1  0.4018450000000  0.4968530000000  0.4930390000000 1.0
C      1  0.5013260000000  0.5977350000000  0.5038290000000 1.0
C      1  0.5647260000000  0.5069680000000  0.4945530000000 1.0
C      1  0.4945270000000  0.4358390000000  0.5025090000000 1.0
C      1  0.4358920000000  0.4933500000000  0.4947440000000 1.0
C      1  0.5020290000000  0.5632320000000  0.5016770000000 1.0
C      1  0.5371010000000  0.4638100000000  0.4988310000000 1.0
C      1  0.4584370000000  0.4578470000000  0.4985430000000 1.0
C      1  0.4660450000000  0.5366650000000  0.4991520000000 1.0
C      1  0.5444720000000  0.5418560000000  0.4984290000000 1.0
C      1  0.5332230000000  0.5034890000000  0.4981220000000 1.0
C      1  0.4973450000000  0.4668870000000  0.4990460000000 1.0
C      1  0.4670040000000  0.4968300000000  0.4982280000000 1.0
C      1  0.5056850000000  0.5324420000000  0.4992440000000 1.0
C      1  0.4993930000000  0.5000970000000  0.4985800000000 1.0
END
