TITL C-2622960-5345-776 -0.00373414017680146 125000 -763.182913644091 0 0 141 (C1) n - 1
REM
REM in /nfs/bkarasulu/CARBON/AIRSS/Generating-Clusters/AIREBO/with-SteepDescent/Higher-Symm/SD-CG/HFTN-CG
REM
REM
REM
REM
REM
REM ./C.cell (b20cbc046b6831c77cfcea5457e17084)
REM
REM compiler GCC version 9.2.1 20190827 (Red Hat 9.2.1-1)
REM options -cpp -mtune=generic -march=x86-64 -g -O0 -fpre-include=/usr/include/finclude/math-vector-fortran.h
REM seed 898057381 648827131 -1923109892 -117553676 220595609 2096844092 152688850 -482217632 2051677439 -840974255 367041090 -1721122228 -789987195 1221183922 -1913149837 1519248926 -608701640 -654256331 689002217 1087678797 936883776 -2018944286 958155337 -175456884 1156799210 -2139969249 880313735 -1662313336 -577150231 1281809103 -1812976333 -1689011468 -107025772
REM
CELL 1.54180   50.00000   50.00000   50.00000   90.00000   90.00000   90.00000
LATT -1
SFAC C  
C      1  0.5372160000000  0.5672060000000  0.4335320000000 1.0
C      1  0.4585160000000  0.5674930000000  0.4302630000000 1.0
C      1  0.5125410000000  0.5154890000000  0.4539880000000 1.0
C      1  0.4870030000000  0.4999460000000  0.4614970000000 1.0
C      1  0.5940020000000  0.4815190000000  0.4867930000000 1.0
C      1  0.4115880000000  0.4739310000000  0.4784360000000 1.0
C      1  0.5149690000000  0.4621830000000  0.4116190000000 1.0
C      1  0.4816870000000  0.4564350000000  0.4055940000000 1.0
C      1  0.5426240000000  0.5412910000000  0.4160580000000 1.0
C      1  0.4611410000000  0.5425040000000  0.4120820000000 1.0
C      1  0.5601720000000  0.4560640000000  0.4695290000000 1.0
C      1  0.4379510000000  0.4416040000000  0.4499430000000 1.0
C      1  0.5254400000000  0.4814260000000  0.5626350000000 1.0
C      1  0.4714390000000  0.4820430000000  0.5758780000000 1.0
C      1  0.4470180000000  0.5808040000000  0.4746960000000 1.0
C      1  0.5418460000000  0.5823230000000  0.4791820000000 1.0
C      1  0.5390730000000  0.4075920000000  0.5096320000000 1.0
C      1  0.4629540000000  0.4177820000000  0.5136260000000 1.0
C      1  0.6018000000000  0.5089800000000  0.4589250000000 1.0
C      1  0.4009680000000  0.5071250000000  0.4601510000000 1.0
C      1  0.4871310000000  0.5038570000000  0.6057120000000 1.0
C      1  0.5194740000000  0.4974310000000  0.6052180000000 1.0
C      1  0.4624620000000  0.5820490000000  0.5341340000000 1.0
C      1  0.5431670000000  0.5776830000000  0.5426380000000 1.0
C      1  0.4453470000000  0.5215570000000  0.4298250000000 1.0
C      1  0.5599730000000  0.5233170000000  0.4346960000000 1.0
C      1  0.5718830000000  0.5010160000000  0.4704550000000 1.0
C      1  0.4327230000000  0.4973620000000  0.4656650000000 1.0
C      1  0.5222370000000  0.4367760000000  0.5132410000000 1.0
C      1  0.4893690000000  0.4391890000000  0.5133300000000 1.0
C      1  0.5198740000000  0.4922540000000  0.5308640000000 1.0
C      1  0.4773320000000  0.4894690000000  0.5249800000000 1.0
C      1  0.5837460000000  0.5001920000000  0.5377070000000 1.0
C      1  0.4221050000000  0.5028450000000  0.5474030000000 1.0
C      1  0.4496130000000  0.4959760000000  0.4204940000000 1.0
C      1  0.5549510000000  0.4966260000000  0.4272380000000 1.0
C      1  0.4077580000000  0.4817560000000  0.4389460000000 1.0
C      1  0.5941150000000  0.4811150000000  0.4439410000000 1.0
C      1  0.5210850000000  0.5833780000000  0.5216620000000 1.0
C      1  0.4913090000000  0.5817270000000  0.5181860000000 1.0
C      1  0.5982740000000  0.5278990000000  0.4838600000000 1.0
C      1  0.4021450000000  0.5261890000000  0.4883810000000 1.0
C      1  0.4444910000000  0.4915610000000  0.5891040000000 1.0
C      1  0.5574370000000  0.4870050000000  0.5647820000000 1.0
C      1  0.5678060000000  0.5569190000000  0.5456710000000 1.0
C      1  0.4335740000000  0.5677060000000  0.5232290000000 1.0
C      1  0.5176690000000  0.4944240000000  0.4089920000000 1.0
C      1  0.4866270000000  0.4978060000000  0.4058900000000 1.0
C      1  0.4436370000000  0.5294610000000  0.4628630000000 1.0
C      1  0.5561430000000  0.5310300000000  0.4676120000000 1.0
C      1  0.5120330000000  0.5096140000000  0.5026410000000 1.0
C      1  0.4820730000000  0.5055710000000  0.4946870000000 1.0
C      1  0.5302710000000  0.4096450000000  0.5414800000000 1.0
C      1  0.4659290000000  0.4324610000000  0.5442630000000 1.0
C      1  0.4906720000000  0.4703240000000  0.6013550000000 1.0
C      1  0.5221410000000  0.4672600000000  0.5933740000000 1.0
C      1  0.4059410000000  0.5107500000000  0.5185320000000 1.0
C      1  0.6011370000000  0.5209050000000  0.5170990000000 1.0
C      1  0.5949740000000  0.5523340000000  0.5285120000000 1.0
C      1  0.4087170000000  0.5443120000000  0.5233050000000 1.0
C      1  0.4627810000000  0.4312760000000  0.5709290000000 1.0
C      1  0.5492260000000  0.4259230000000  0.5600650000000 1.0
C      1  0.4478690000000  0.5228610000000  0.5502930000000 1.0
C      1  0.5445380000000  0.5150030000000  0.5524390000000 1.0
C      1  0.4332140000000  0.4592210000000  0.5197070000000 1.0
C      1  0.5678290000000  0.4381410000000  0.5425160000000 1.0
C      1  0.4159140000000  0.4263290000000  0.4924410000000 1.0
C      1  0.5880820000000  0.4311370000000  0.4999530000000 1.0
C      1  0.5188720000000  0.4530080000000  0.4428110000000 1.0
C      1  0.4865560000000  0.4513160000000  0.4377740000000 1.0
C      1  0.4164630000000  0.4465310000000  0.4723360000000 1.0
C      1  0.5858460000000  0.4552140000000  0.4861770000000 1.0
C      1  0.5256330000000  0.4868400000000  0.4411810000000 1.0
C      1  0.4774810000000  0.4830620000000  0.4351350000000 1.0
C      1  0.5530390000000  0.5638090000000  0.4584780000000 1.0
C      1  0.4412910000000  0.5622860000000  0.4538300000000 1.0
C      1  0.5241780000000  0.5304080000000  0.4791970000000 1.0
C      1  0.4738320000000  0.5339500000000  0.4778510000000 1.0
C      1  0.4272730000000  0.5805980000000  0.4942390000000 1.0
C      1  0.5558270000000  0.5603460000000  0.4980700000000 1.0
C      1  0.4723760000000  0.5539750000000  0.5787240000000 1.0
C      1  0.5312230000000  0.5486380000000  0.5790140000000 1.0
C      1  0.5451580000000  0.4573570000000  0.5000250000000 1.0
C      1  0.4478790000000  0.4746160000000  0.4947410000000 1.0
C      1  0.5146300000000  0.4397630000000  0.5462530000000 1.0
C      1  0.4824200000000  0.4605340000000  0.5348100000000 1.0
C      1  0.5313980000000  0.4442770000000  0.5754880000000 1.0
C      1  0.4711610000000  0.4456560000000  0.5924810000000 1.0
C      1  0.4456920000000  0.5184210000000  0.5986640000000 1.0
C      1  0.5670030000000  0.5160230000000  0.5790410000000 1.0
C      1  0.4062080000000  0.5592310000000  0.4953710000000 1.0
C      1  0.5877900000000  0.5534510000000  0.4985690000000 1.0
C      1  0.4215710000000  0.4871970000000  0.5743400000000 1.0
C      1  0.5705390000000  0.4690770000000  0.5413990000000 1.0
C      1  0.4290130000000  0.4632420000000  0.4286420000000 1.0
C      1  0.5707220000000  0.4630720000000  0.4408320000000 1.0
C      1  0.5642540000000  0.5269830000000  0.5310880000000 1.0
C      1  0.4480630000000  0.5390440000000  0.5239390000000 1.0
C      1  0.5421970000000  0.5008660000000  0.4990580000000 1.0
C      1  0.4491990000000  0.5055130000000  0.5021860000000 1.0
C      1  0.4467000000000  0.5381250000000  0.5776530000000 1.0
C      1  0.5591420000000  0.5450370000000  0.5742640000000 1.0
C      1  0.5223090000000  0.5558670000000  0.5017060000000 1.0
C      1  0.4817740000000  0.5563940000000  0.4976110000000 1.0
C      1  0.4752980000000  0.5804170000000  0.4776360000000 1.0
C      1  0.5092120000000  0.5790200000000  0.4797710000000 1.0
C      1  0.5129320000000  0.4716230000000  0.4783170000000 1.0
C      1  0.4816710000000  0.4714120000000  0.4742740000000 1.0
C      1  0.5679100000000  0.4237970000000  0.5179010000000 1.0
C      1  0.4334140000000  0.4302220000000  0.5132920000000 1.0
C      1  0.4738240000000  0.4452790000000  0.4869210000000 1.0
C      1  0.5138940000000  0.4417990000000  0.4806640000000 1.0
C      1  0.5110150000000  0.5587860000000  0.4542890000000 1.0
C      1  0.4797890000000  0.5472310000000  0.4473980000000 1.0
C      1  0.4803680000000  0.4134760000000  0.4840870000000 1.0
C      1  0.5139890000000  0.4085170000000  0.4862780000000 1.0
C      1  0.4501450000000  0.4685900000000  0.4645490000000 1.0
C      1  0.5421670000000  0.4844930000000  0.4708080000000 1.0
C      1  0.4533200000000  0.4663920000000  0.4082250000000 1.0
C      1  0.5485300000000  0.4647070000000  0.4174080000000 1.0
C      1  0.4773030000000  0.5456790000000  0.5273580000000 1.0
C      1  0.5091550000000  0.5432730000000  0.5306140000000 1.0
C      1  0.4440270000000  0.4882100000000  0.5309980000000 1.0
C      1  0.5489670000000  0.4793430000000  0.5210080000000 1.0
C      1  0.4104330000000  0.4800990000000  0.5073140000000 1.0
C      1  0.6123380000000  0.4948640000000  0.5013790000000 1.0
C      1  0.5227450000000  0.4218060000000  0.4557790000000 1.0
C      1  0.4692300000000  0.4332210000000  0.4575680000000 1.0
C      1  0.4840840000000  0.5251820000000  0.5822140000000 1.0
C      1  0.5158970000000  0.5228050000000  0.5855460000000 1.0
C      1  0.4709380000000  0.5194790000000  0.3890400000000 1.0
C      1  0.5318570000000  0.5164960000000  0.3976750000000 1.0
C      1  0.5132150000000  0.5363510000000  0.4288220000000 1.0
C      1  0.4850330000000  0.5226880000000  0.4259590000000 1.0
C      1  0.4336030000000  0.5302480000000  0.4953460000000 1.0
C      1  0.5577160000000  0.5276170000000  0.5014300000000 1.0
C      1  0.4845560000000  0.5649210000000  0.5537020000000 1.0
C      1  0.5170710000000  0.5637150000000  0.5561710000000 1.0
C      1  0.4780750000000  0.5072040000000  0.5539840000000 1.0
C      1  0.5105930000000  0.5170330000000  0.5522220000000 1.0
C      1  0.4970500000000  0.4638990000000  0.5626400000000 1.0
END
