TITL C-2622962-9663-175 0.000383108006042343 125000 -566.012280328533 0 0 106 (C1) n - 1
REM
REM in /nfs/bkarasulu/CARBON/AIRSS/Generating-Clusters/AIREBO/with-SteepDescent/Higher-Symm/SD-CG/HFTN-CG
REM
REM
REM
REM
REM
REM ./C.cell (b20cbc046b6831c77cfcea5457e17084)
REM
REM compiler GCC version 9.2.1 20190827 (Red Hat 9.2.1-1)
REM options -cpp -mtune=generic -march=x86-64 -g -O0 -fpre-include=/usr/include/finclude/math-vector-fortran.h
REM seed 1609541442 -1299559002 -478396555 -961347962 -1716435215 -698566265 1872715267 610079256 29698676 1915920262 -233131886 2095986099 35486704 2137755211 490391059 -1191280053 -1130998868 -1821761240 491256797 2021691545 -197498685 -1813673326 604025793 -1694709491 -7613769 -829282925 -1433077254 676512035 -1456501051 -1761634353 688459670 -1267141170 353654689
REM
CELL 1.54180   50.00000   50.00000   50.00000   90.00000   90.00000   90.00000
LATT -1
SFAC C  
C      1  0.5517420000000  0.5776100000000  0.5261640000000 1.0
C      1  0.5544550000000  0.5542620000000  0.5634140000000 1.0
C      1  0.5552290000000  0.5091340000000  0.5816020000000 1.0
C      1  0.5515410000000  0.4634510000000  0.5751530000000 1.0
C      1  0.5514210000000  0.4278250000000  0.5423150000000 1.0
C      1  0.5553930000000  0.4169590000000  0.4951360000000 1.0
C      1  0.5488690000000  0.4377800000000  0.4492030000000 1.0
C      1  0.5562390000000  0.4678060000000  0.4238370000000 1.0
C      1  0.5569490000000  0.5162560000000  0.4200200000000 1.0
C      1  0.5517120000000  0.5565720000000  0.4443880000000 1.0
C      1  0.5524650000000  0.5785580000000  0.4777830000000 1.0
C      1  0.5162350000000  0.4948600000000  0.3989120000000 1.0
C      1  0.5147560000000  0.5474260000000  0.4119760000000 1.0
C      1  0.5121340000000  0.5854230000000  0.4490740000000 1.0
C      1  0.5104810000000  0.5961660000000  0.5028430000000 1.0
C      1  0.5115740000000  0.5820080000000  0.5563320000000 1.0
C      1  0.5119970000000  0.5376480000000  0.5896430000000 1.0
C      1  0.5092750000000  0.4836270000000  0.5902010000000 1.0
C      1  0.5117320000000  0.4379150000000  0.5660080000000 1.0
C      1  0.5114470000000  0.4028490000000  0.5202190000000 1.0
C      1  0.5111500000000  0.4097970000000  0.4649840000000 1.0
C      1  0.5125060000000  0.4477960000000  0.4218490000000 1.0
C      1  0.4295810000000  0.5148100000000  0.5492850000000 1.0
C      1  0.4191860000000  0.4881730000000  0.5459320000000 1.0
C      1  0.4257980000000  0.4616150000000  0.5360540000000 1.0
C      1  0.4241530000000  0.4505620000000  0.5081620000000 1.0
C      1  0.4151090000000  0.4606820000000  0.4812460000000 1.0
C      1  0.4318980000000  0.4729880000000  0.4593750000000 1.0
C      1  0.4312310000000  0.5000590000000  0.4491390000000 1.0
C      1  0.4194610000000  0.5235220000000  0.4615530000000 1.0
C      1  0.4284290000000  0.5447740000000  0.4789330000000 1.0
C      1  0.4177700000000  0.5482610000000  0.5053030000000 1.0
C      1  0.4259330000000  0.5400830000000  0.5311860000000 1.0
C      1  0.4996120000000  0.5511380000000  0.4828900000000 1.0
C      1  0.5075650000000  0.5520030000000  0.5159400000000 1.0
C      1  0.5048160000000  0.5394700000000  0.5454750000000 1.0
C      1  0.4951150000000  0.5110720000000  0.5473980000000 1.0
C      1  0.5181140000000  0.4883770000000  0.5515290000000 1.0
C      1  0.5095160000000  0.4612520000000  0.5336740000000 1.0
C      1  0.5037290000000  0.4484620000000  0.5092060000000 1.0
C      1  0.5128230000000  0.4516160000000  0.4805460000000 1.0
C      1  0.4924420000000  0.4688600000000  0.4594880000000 1.0
C      1  0.5024860000000  0.4969790000000  0.4480750000000 1.0
C      1  0.5052070000000  0.5297570000000  0.4570470000000 1.0
C      1  0.4568270000000  0.5099030000000  0.4348650000000 1.0
C      1  0.4717830000000  0.5240170000000  0.4596310000000 1.0
C      1  0.4595120000000  0.5510350000000  0.4762560000000 1.0
C      1  0.4754410000000  0.5457820000000  0.5066230000000 1.0
C      1  0.4577860000000  0.5412540000000  0.5340720000000 1.0
C      1  0.4629160000000  0.5165640000000  0.5569000000000 1.0
C      1  0.4661200000000  0.4828550000000  0.5537000000000 1.0
C      1  0.4528170000000  0.4517140000000  0.5506430000000 1.0
C      1  0.4512490000000  0.4380980000000  0.5029210000000 1.0
C      1  0.4694510000000  0.4612970000000  0.4911620000000 1.0
C      1  0.4596290000000  0.4598020000000  0.4606250000000 1.0
C      1  0.5450910000000  0.4575440000000  0.4740230000000 1.0
C      1  0.5543900000000  0.4795720000000  0.4498290000000 1.0
C      1  0.5529190000000  0.5072970000000  0.4470350000000 1.0
C      1  0.5390880000000  0.5314210000000  0.4605370000000 1.0
C      1  0.5490140000000  0.5522690000000  0.4845720000000 1.0
C      1  0.5414740000000  0.5490640000000  0.5149210000000 1.0
C      1  0.5540800000000  0.5346910000000  0.5423690000000 1.0
C      1  0.5567250000000  0.5088290000000  0.5529600000000 1.0
C      1  0.5498160000000  0.4772840000000  0.5457710000000 1.0
C      1  0.5568010000000  0.4518620000000  0.5271630000000 1.0
C      1  0.5576950000000  0.4453550000000  0.4998400000000 1.0
C      1  0.5326260000000  0.4665930000000  0.4083350000000 1.0
C      1  0.5350820000000  0.5211430000000  0.4047500000000 1.0
C      1  0.5322490000000  0.5695070000000  0.4291330000000 1.0
C      1  0.5303930000000  0.5944150000000  0.4752790000000 1.0
C      1  0.5297700000000  0.5943280000000  0.5308380000000 1.0
C      1  0.5310290000000  0.5618050000000  0.5751110000000 1.0
C      1  0.5308830000000  0.5098110000000  0.5930370000000 1.0
C      1  0.5267090000000  0.4567440000000  0.5851090000000 1.0
C      1  0.5239520000000  0.4207350000000  0.5463710000000 1.0
C      1  0.5309250000000  0.4055950000000  0.4923550000000 1.0
C      1  0.5243030000000  0.4288930000000  0.4400750000000 1.0
C      1  0.4704060000000  0.4484760000000  0.5795600000000 1.0
C      1  0.4644650000000  0.4318590000000  0.5301310000000 1.0
C      1  0.4648240000000  0.4095780000000  0.4932840000000 1.0
C      1  0.4625450000000  0.4280850000000  0.4501100000000 1.0
C      1  0.4672180000000  0.4845610000000  0.4158430000000 1.0
C      1  0.4688100000000  0.5232930000000  0.4070650000000 1.0
C      1  0.4677650000000  0.5608390000000  0.4447460000000 1.0
C      1  0.4635490000000  0.5848000000000  0.4767290000000 1.0
C      1  0.4660310000000  0.5733630000000  0.5339310000000 1.0
C      1  0.4635430000000  0.5465100000000  0.5730360000000 1.0
C      1  0.4659260000000  0.5107390000000  0.5902700000000 1.0
C      1  0.4971050000000  0.4783010000000  0.4210480000000 1.0
C      1  0.4959470000000  0.5220280000000  0.4024210000000 1.0
C      1  0.4960400000000  0.5569200000000  0.4387560000000 1.0
C      1  0.4932670000000  0.5817890000000  0.4771380000000 1.0
C      1  0.4930920000000  0.5803570000000  0.5278290000000 1.0
C      1  0.4925510000000  0.5566980000000  0.5692380000000 1.0
C      1  0.4923360000000  0.5112800000000  0.5984430000000 1.0
C      1  0.4945300000000  0.4673970000000  0.5642010000000 1.0
C      1  0.4913720000000  0.4268790000000  0.5243790000000 1.0
C      1  0.4919080000000  0.4032810000000  0.4922790000000 1.0
C      1  0.4907700000000  0.4350900000000  0.4604530000000 1.0
C      1  0.5503100000000  0.5005230000000  0.5003770000000 1.0
C      1  0.5231660000000  0.5007850000000  0.5001700000000 1.0
C      1  0.4453620000000  0.4995080000000  0.5019520000000 1.0
C      1  0.5767030000000  0.5023100000000  0.4990480000000 1.0
C      1  0.4960060000000  0.4993480000000  0.5029540000000 1.0
C      1  0.4702940000000  0.4886280000000  0.4981080000000 1.0
C      1  0.4184710000000  0.5004570000000  0.5005260000000 1.0
END
