TITL C-2622962-9663-331 0.000565350658211267 125000 -960.961591214016 0 0 180 (C1) n - 1
REM
REM in /nfs/bkarasulu/CARBON/AIRSS/Generating-Clusters/AIREBO/with-SteepDescent/Higher-Symm/SD-CG/HFTN-CG
REM
REM
REM
REM
REM
REM ./C.cell (b20cbc046b6831c77cfcea5457e17084)
REM
REM compiler GCC version 9.2.1 20190827 (Red Hat 9.2.1-1)
REM options -cpp -mtune=generic -march=x86-64 -g -O0 -fpre-include=/usr/include/finclude/math-vector-fortran.h
REM seed -262113705 -1090584244 884629666 1323492537 -1202331299 -310807133 1284848452 -1545037153 -156438215 2143667983 -1935149732 -19311901 389372264 -1568795173 -757616810 -1713885004 -156850474 -1621660571 -2056160015 -2010587568 962734510 128243675 -767151137 94465844 -929270461 -1528571158 42277921 -1469215374 -2052134367 -603489594 1962527864 965096707 1403982769
REM
CELL 1.54180   50.00000   50.00000   50.00000   90.00000   90.00000   90.00000
LATT -1
SFAC C  
C      1  0.5676530000000  0.4109430000000  0.4719890000000 1.0
C      1  0.4818930000000  0.3883000000000  0.4586120000000 1.0
C      1  0.3911690000000  0.4544440000000  0.4679920000000 1.0
C      1  0.4168310000000  0.5375450000000  0.4786600000000 1.0
C      1  0.4660250000000  0.5967340000000  0.4746210000000 1.0
C      1  0.5524050000000  0.5736330000000  0.4691870000000 1.0
C      1  0.5842230000000  0.5020480000000  0.4773990000000 1.0
C      1  0.5844060000000  0.4414800000000  0.5397420000000 1.0
C      1  0.5125480000000  0.3938050000000  0.5522710000000 1.0
C      1  0.4342330000000  0.4376620000000  0.5416460000000 1.0
C      1  0.3924150000000  0.5148110000000  0.5646840000000 1.0
C      1  0.4386880000000  0.5877320000000  0.5629030000000 1.0
C      1  0.5465580000000  0.6018990000000  0.5429260000000 1.0
C      1  0.5909220000000  0.5215130000000  0.5546770000000 1.0
C      1  0.5207310000000  0.5300090000000  0.4473690000000 1.0
C      1  0.5349460000000  0.5023360000000  0.4532760000000 1.0
C      1  0.5135140000000  0.4533260000000  0.4557740000000 1.0
C      1  0.4839580000000  0.4595690000000  0.4623770000000 1.0
C      1  0.4480620000000  0.5065580000000  0.4734670000000 1.0
C      1  0.4678500000000  0.5327740000000  0.4695020000000 1.0
C      1  0.4969370000000  0.5451740000000  0.4631780000000 1.0
C      1  0.4598540000000  0.4421010000000  0.5817830000000 1.0
C      1  0.4167900000000  0.4906420000000  0.5844610000000 1.0
C      1  0.4642150000000  0.5505190000000  0.5896560000000 1.0
C      1  0.5046060000000  0.5655980000000  0.5759090000000 1.0
C      1  0.5416680000000  0.5521930000000  0.5819610000000 1.0
C      1  0.5572480000000  0.4795020000000  0.5953660000000 1.0
C      1  0.5266830000000  0.4550290000000  0.5893350000000 1.0
C      1  0.5127220000000  0.4821790000000  0.5258780000000 1.0
C      1  0.4809060000000  0.4700760000000  0.5274380000000 1.0
C      1  0.4603900000000  0.4970630000000  0.5303400000000 1.0
C      1  0.4596150000000  0.5296750000000  0.5404940000000 1.0
C      1  0.4868420000000  0.5471830000000  0.5321670000000 1.0
C      1  0.5356150000000  0.5270960000000  0.5340860000000 1.0
C      1  0.5443420000000  0.4948500000000  0.5276510000000 1.0
C      1  0.5663980000000  0.5932580000000  0.5178090000000 1.0
C      1  0.6066550000000  0.5088920000000  0.5347640000000 1.0
C      1  0.5743750000000  0.4153870000000  0.5243420000000 1.0
C      1  0.4846160000000  0.3995590000000  0.5319880000000 1.0
C      1  0.4031710000000  0.4421730000000  0.5285740000000 1.0
C      1  0.3843400000000  0.5338280000000  0.5393750000000 1.0
C      1  0.4547340000000  0.6112270000000  0.5476380000000 1.0
C      1  0.5171470000000  0.4780540000000  0.5581780000000 1.0
C      1  0.5093200000000  0.4455410000000  0.5643620000000 1.0
C      1  0.4624430000000  0.4910020000000  0.5637380000000 1.0
C      1  0.4528680000000  0.5076350000000  0.5843770000000 1.0
C      1  0.4959590000000  0.5252060000000  0.5564810000000 1.0
C      1  0.5270280000000  0.5266070000000  0.5650020000000 1.0
C      1  0.5420620000000  0.4968940000000  0.5704050000000 1.0
C      1  0.5801220000000  0.4257790000000  0.4557920000000 1.0
C      1  0.4867260000000  0.3960430000000  0.4348770000000 1.0
C      1  0.4031290000000  0.4386080000000  0.4519990000000 1.0
C      1  0.4056890000000  0.5396970000000  0.4538370000000 1.0
C      1  0.4736290000000  0.5984670000000  0.4482030000000 1.0
C      1  0.5588400000000  0.5854820000000  0.4453360000000 1.0
C      1  0.5904110000000  0.5103550000000  0.4521590000000 1.0
C      1  0.5388450000000  0.5037290000000  0.6111840000000 1.0
C      1  0.5345740000000  0.4707820000000  0.6184150000000 1.0
C      1  0.5043890000000  0.4755510000000  0.6048720000000 1.0
C      1  0.4866870000000  0.4918480000000  0.6157120000000 1.0
C      1  0.4742020000000  0.5134060000000  0.6024750000000 1.0
C      1  0.4951080000000  0.5363500000000  0.5885920000000 1.0
C      1  0.5260470000000  0.5270420000000  0.5991820000000 1.0
C      1  0.5978250000000  0.4659670000000  0.4674860000000 1.0
C      1  0.5288070000000  0.4166830000000  0.4508200000000 1.0
C      1  0.4527240000000  0.4152850000000  0.4580800000000 1.0
C      1  0.4038040000000  0.4999090000000  0.4542010000000 1.0
C      1  0.4316080000000  0.5695210000000  0.4598930000000 1.0
C      1  0.5209270000000  0.5955990000000  0.4525470000000 1.0
C      1  0.5798290000000  0.5511710000000  0.4514000000000 1.0
C      1  0.5453160000000  0.4207160000000  0.5161990000000 1.0
C      1  0.4682290000000  0.4138960000000  0.5118850000000 1.0
C      1  0.4086920000000  0.4723270000000  0.5138600000000 1.0
C      1  0.4116820000000  0.5468140000000  0.5307680000000 1.0
C      1  0.4940860000000  0.6001810000000  0.5185240000000 1.0
C      1  0.5675000000000  0.5606600000000  0.5121050000000 1.0
C      1  0.5941840000000  0.4805790000000  0.5269570000000 1.0
C      1  0.5639870000000  0.4685330000000  0.5369670000000 1.0
C      1  0.5260880000000  0.4240260000000  0.5440510000000 1.0
C      1  0.4606470000000  0.4434220000000  0.5210250000000 1.0
C      1  0.4279660000000  0.4887070000000  0.5362730000000 1.0
C      1  0.4553250000000  0.5584460000000  0.5581540000000 1.0
C      1  0.5153790000000  0.5612550000000  0.5441680000000 1.0
C      1  0.5744360000000  0.5437780000000  0.5407910000000 1.0
C      1  0.5317670000000  0.4187680000000  0.4170130000000 1.0
C      1  0.4562920000000  0.4350640000000  0.4310580000000 1.0
C      1  0.4333710000000  0.5244810000000  0.4041020000000 1.0
C      1  0.4465980000000  0.5614340000000  0.4386120000000 1.0
C      1  0.5313660000000  0.5980530000000  0.4006930000000 1.0
C      1  0.5617560000000  0.5433410000000  0.4295210000000 1.0
C      1  0.5633470000000  0.4665740000000  0.4317210000000 1.0
C      1  0.5416670000000  0.4634620000000  0.4077690000000 1.0
C      1  0.5403450000000  0.4360820000000  0.3973940000000 1.0
C      1  0.5492210000000  0.4293690000000  0.3724890000000 1.0
C      1  0.4626850000000  0.5289810000000  0.4076590000000 1.0
C      1  0.4922940000000  0.5355000000000  0.4090480000000 1.0
C      1  0.5234530000000  0.5276270000000  0.3979490000000 1.0
C      1  0.5318060000000  0.4955600000000  0.4043110000000 1.0
C      1  0.5985810000000  0.5536150000000  0.5002250000000 1.0
C      1  0.6243580000000  0.4353140000000  0.5030830000000 1.0
C      1  0.5227950000000  0.3784470000000  0.4953940000000 1.0
C      1  0.4418500000000  0.3984250000000  0.5031630000000 1.0
C      1  0.3778000000000  0.4857960000000  0.5076610000000 1.0
C      1  0.4180940000000  0.5725760000000  0.5167180000000 1.0
C      1  0.5175380000000  0.6116590000000  0.4975680000000 1.0
C      1  0.5283000000000  0.5086620000000  0.4860160000000 1.0
C      1  0.5238590000000  0.4760990000000  0.4948170000000 1.0
C      1  0.4961640000000  0.4563620000000  0.5003100000000 1.0
C      1  0.4673800000000  0.4669150000000  0.4855720000000 1.0
C      1  0.4671780000000  0.4958710000000  0.4969450000000 1.0
C      1  0.4830450000000  0.5373430000000  0.4995920000000 1.0
C      1  0.5207160000000  0.5417980000000  0.4872920000000 1.0
C      1  0.4825470000000  0.6036030000000  0.5479250000000 1.0
C      1  0.5670160000000  0.5606690000000  0.5640930000000 1.0
C      1  0.5928900000000  0.4819440000000  0.5609100000000 1.0
C      1  0.5523380000000  0.4296370000000  0.5613730000000 1.0
C      1  0.4837950000000  0.4047660000000  0.5646810000000 1.0
C      1  0.4257410000000  0.4752360000000  0.5645330000000 1.0
C      1  0.4248030000000  0.5462530000000  0.5593610000000 1.0
C      1  0.5019870000000  0.4234830000000  0.4308740000000 1.0
C      1  0.4333670000000  0.4404030000000  0.4539330000000 1.0
C      1  0.4187670000000  0.5189520000000  0.4331920000000 1.0
C      1  0.4707120000000  0.5750330000000  0.4329260000000 1.0
C      1  0.5344580000000  0.5839510000000  0.4242660000000 1.0
C      1  0.5721750000000  0.5161240000000  0.4309470000000 1.0
C      1  0.5716980000000  0.4558780000000  0.4575310000000 1.0
C      1  0.3856400000000  0.5008780000000  0.5342210000000 1.0
C      1  0.4412100000000  0.5859210000000  0.5295230000000 1.0
C      1  0.5327550000000  0.5896400000000  0.5144320000000 1.0
C      1  0.6005670000000  0.5279400000000  0.5120070000000 1.0
C      1  0.6039410000000  0.4269230000000  0.5194490000000 1.0
C      1  0.5141740000000  0.3957890000000  0.5184090000000 1.0
C      1  0.4246640000000  0.4198980000000  0.5142800000000 1.0
C      1  0.6011040000000  0.5589020000000  0.4722090000000 1.0
C      1  0.6206820000000  0.4582320000000  0.4877780000000 1.0
C      1  0.5324610000000  0.3921370000000  0.4740690000000 1.0
C      1  0.4417260000000  0.3919330000000  0.4764730000000 1.0
C      1  0.3800970000000  0.4950410000000  0.4780930000000 1.0
C      1  0.4140430000000  0.5785010000000  0.4862760000000 1.0
C      1  0.5202360000000  0.6169980000000  0.4712350000000 1.0
C      1  0.4383370000000  0.4605340000000  0.4753700000000 1.0
C      1  0.4199330000000  0.5103280000000  0.4914670000000 1.0
C      1  0.4687540000000  0.5667900000000  0.4903570000000 1.0
C      1  0.5226660000000  0.5731660000000  0.4752630000000 1.0
C      1  0.5609180000000  0.5172180000000  0.4904850000000 1.0
C      1  0.5475090000000  0.4570690000000  0.4794620000000 1.0
C      1  0.5050810000000  0.4307620000000  0.4797710000000 1.0
C      1  0.5699310000000  0.5163480000000  0.5211590000000 1.0
C      1  0.5510530000000  0.4513920000000  0.5106020000000 1.0
C      1  0.5050190000000  0.4285340000000  0.5177470000000 1.0
C      1  0.4334200000000  0.4513650000000  0.5043010000000 1.0
C      1  0.4139090000000  0.5143220000000  0.5209480000000 1.0
C      1  0.4708440000000  0.5755300000000  0.5223210000000 1.0
C      1  0.5332530000000  0.5556590000000  0.5157770000000 1.0
C      1  0.4511450000000  0.5281500000000  0.4396300000000 1.0
C      1  0.4968160000000  0.5575760000000  0.4315150000000 1.0
C      1  0.5289920000000  0.5504120000000  0.4228310000000 1.0
C      1  0.5512000000000  0.4951950000000  0.4298610000000 1.0
C      1  0.5205440000000  0.4688710000000  0.4320190000000 1.0
C      1  0.4826160000000  0.4507930000000  0.4307080000000 1.0
C      1  0.4605690000000  0.4957430000000  0.4437480000000 1.0
C      1  0.4402780000000  0.5563990000000  0.4880180000000 1.0
C      1  0.5003140000000  0.5760690000000  0.4953740000000 1.0
C      1  0.5641650000000  0.5467510000000  0.4812560000000 1.0
C      1  0.5979260000000  0.4808190000000  0.4973450000000 1.0
C      1  0.5383730000000  0.4244780000000  0.4827580000000 1.0
C      1  0.4781210000000  0.4126950000000  0.4806220000000 1.0
C      1  0.4102860000000  0.4795540000000  0.4806640000000 1.0
C      1  0.5542590000000  0.4591480000000  0.5682610000000 1.0
C      1  0.4841190000000  0.4311970000000  0.5737450000000 1.0
C      1  0.4384680000000  0.4510960000000  0.5666980000000 1.0
C      1  0.4226290000000  0.5220630000000  0.5785090000000 1.0
C      1  0.4828410000000  0.5782590000000  0.5609190000000 1.0
C      1  0.5392940000000  0.5779520000000  0.5601450000000 1.0
C      1  0.5754950000000  0.5031430000000  0.5698990000000 1.0
C      1  0.4941830000000  0.5089410000000  0.4878670000000 1.0
C      1  0.4907640000000  0.4959450000000  0.5562070000000 1.0
C      1  0.4900800000000  0.4839800000000  0.4315250000000 1.0
C      1  0.5003210000000  0.5033030000000  0.4074090000000 1.0
C      1  0.5016400000000  0.5036340000000  0.4567510000000 1.0
END
