TITL C-2622968-4806-287 -4.51542616257666e-05 125000 -351.986333768025 0 0 65 (C1) n - 1
REM
REM in /nfs/bkarasulu/CARBON/AIRSS/Generating-Clusters/AIREBO/with-SteepDescent/Higher-Symm/SD-CG/HFTN-CG
REM
REM
REM
REM
REM
REM ./C.cell (b20cbc046b6831c77cfcea5457e17084)
REM
REM compiler GCC version 9.2.1 20190827 (Red Hat 9.2.1-1)
REM options -cpp -mtune=generic -march=x86-64 -g -O0 -fpre-include=/usr/include/finclude/math-vector-fortran.h
REM seed -868234899 -1321271987 -514879314 -1743232719 -550030443 -1489846128 -369358383 615834618 -1369361087 866178287 549475696 -196771231 -1193867727 2136504580 -2617219 -1396476401 -812531539 124722099 1026545617 -379382623 -1082428579 2000910764 64858946 -1638891030 962827023 1555675517 643481888 -316337715 -1856730459 638952826 962078829 158085756 -836372975
REM
CELL 1.54180   50.00000   50.00000   50.00000   90.00000   90.00000   90.00000
LATT -1
SFAC C  
C      1  0.4746960000000  0.4422260000000  0.4946190000000 1.0
C      1  0.4683920000000  0.4864400000000  0.4434230000000 1.0
C      1  0.4724970000000  0.5511660000000  0.4703680000000 1.0
C      1  0.4713710000000  0.5437790000000  0.5392950000000 1.0
C      1  0.4667950000000  0.4787340000000  0.5542750000000 1.0
C      1  0.5605840000000  0.4971200000000  0.4732650000000 1.0
C      1  0.5702800000000  0.5215080000000  0.4906980000000 1.0
C      1  0.5574990000000  0.5173050000000  0.5183750000000 1.0
C      1  0.5640600000000  0.4858840000000  0.5207110000000 1.0
C      1  0.5721990000000  0.4763000000000  0.4931330000000 1.0
C      1  0.5060650000000  0.5090610000000  0.5320980000000 1.0
C      1  0.5023920000000  0.4695110000000  0.5275320000000 1.0
C      1  0.5020490000000  0.4707760000000  0.4729120000000 1.0
C      1  0.5031890000000  0.5094910000000  0.4613790000000 1.0
C      1  0.5007650000000  0.5438430000000  0.5046580000000 1.0
C      1  0.5685460000000  0.4504360000000  0.4860350000000 1.0
C      1  0.5740340000000  0.4987130000000  0.4431920000000 1.0
C      1  0.5703830000000  0.5470430000000  0.4817770000000 1.0
C      1  0.5712160000000  0.5330380000000  0.5440720000000 1.0
C      1  0.5687930000000  0.4672440000000  0.5455680000000 1.0
C      1  0.5356040000000  0.4685490000000  0.4397380000000 1.0
C      1  0.5349730000000  0.5465810000000  0.4505350000000 1.0
C      1  0.5329870000000  0.5599860000000  0.5302000000000 1.0
C      1  0.5323000000000  0.4883700000000  0.5676900000000 1.0
C      1  0.5318200000000  0.4345690000000  0.5117860000000 1.0
C      1  0.4177910000000  0.5227750000000  0.4852590000000 1.0
C      1  0.4195800000000  0.5199810000000  0.5184130000000 1.0
C      1  0.4168640000000  0.4882520000000  0.5266640000000 1.0
C      1  0.4174830000000  0.4708570000000  0.4988340000000 1.0
C      1  0.4186470000000  0.4921840000000  0.4730670000000 1.0
C      1  0.4747490000000  0.4401000000000  0.4644710000000 1.0
C      1  0.4691490000000  0.5142050000000  0.4320190000000 1.0
C      1  0.4700720000000  0.5702580000000  0.4936250000000 1.0
C      1  0.4715140000000  0.5309870000000  0.5661340000000 1.0
C      1  0.4680690000000  0.4495890000000  0.5471820000000 1.0
C      1  0.5318170000000  0.4876550000000  0.5261570000000 1.0
C      1  0.5164340000000  0.4790970000000  0.4996600000000 1.0
C      1  0.5294080000000  0.4913710000000  0.4732350000000 1.0
C      1  0.5179640000000  0.5282730000000  0.4816060000000 1.0
C      1  0.5278640000000  0.5246670000000  0.5123840000000 1.0
C      1  0.4746690000000  0.5127390000000  0.5257960000000 1.0
C      1  0.4716110000000  0.4792570000000  0.5206050000000 1.0
C      1  0.4713350000000  0.4751590000000  0.4868320000000 1.0
C      1  0.4724830000000  0.5054260000000  0.4713430000000 1.0
C      1  0.4715020000000  0.5288430000000  0.4960040000000 1.0
C      1  0.5265710000000  0.4529560000000  0.4628980000000 1.0
C      1  0.5288170000000  0.5188540000000  0.4442780000000 1.0
C      1  0.5286750000000  0.5623950000000  0.4995340000000 1.0
C      1  0.5270710000000  0.5144020000000  0.5553250000000 1.0
C      1  0.5252940000000  0.4495890000000  0.5360860000000 1.0
C      1  0.4402550000000  0.4674990000000  0.4753330000000 1.0
C      1  0.4409770000000  0.5145230000000  0.4623090000000 1.0
C      1  0.4400690000000  0.5400720000000  0.5024960000000 1.0
C      1  0.4432700000000  0.5060340000000  0.5370390000000 1.0
C      1  0.4407810000000  0.4650050000000  0.5223280000000 1.0
C      1  0.4595670000000  0.5591980000000  0.5191330000000 1.0
C      1  0.4595380000000  0.5050630000000  0.5647650000000 1.0
C      1  0.4618930000000  0.4402950000000  0.5193080000000 1.0
C      1  0.4595340000000  0.4612740000000  0.4512620000000 1.0
C      1  0.4606250000000  0.5369590000000  0.4494840000000 1.0
C      1  0.5446780000000  0.4960810000000  0.4366080000000 1.0
C      1  0.5445350000000  0.5575600000000  0.4759750000000 1.0
C      1  0.5416720000000  0.5384830000000  0.5483250000000 1.0
C      1  0.5421310000000  0.4630270000000  0.5558860000000 1.0
C      1  0.5415470000000  0.4413840000000  0.4850040000000 1.0
END
