TITL C-2622967-6265-477 -0.000759469194505487 125000 -1029.46228929905 0 0 190 (C1) n - 1
REM
REM in /nfs/bkarasulu/CARBON/AIRSS/Generating-Clusters/AIREBO/with-SteepDescent/Higher-Symm/SD-CG/HFTN-CG
REM
REM
REM
REM
REM
REM ./C.cell (b20cbc046b6831c77cfcea5457e17084)
REM
REM compiler GCC version 9.2.1 20190827 (Red Hat 9.2.1-1)
REM options -cpp -mtune=generic -march=x86-64 -g -O0 -fpre-include=/usr/include/finclude/math-vector-fortran.h
REM seed 68983874 -1276525497 -1451361251 -859926182 320515139 -1527797556 -1765738951 -1704948505 -359267588 308204640 1109212882 1113731416 884801930 -1765898261 -1593716271 -1797847556 61184480 899327601 -1736154113 29995941 479242717 -901944227 1303048095 -566838056 -942357818 -845276390 1339292836 1390729940 2003662764 1654608732 -569497225 268952638 1829387485
REM
CELL 1.54180   50.00000   50.00000   50.00000   90.00000   90.00000   90.00000
LATT -1
SFAC C  
C      1  0.6037380000000  0.4660080000000  0.5223870000000 1.0
C      1  0.3844050000000  0.4635260000000  0.4868410000000 1.0
C      1  0.6035960000000  0.4588110000000  0.4726010000000 1.0
C      1  0.3908990000000  0.4625140000000  0.5165460000000 1.0
C      1  0.4269480000000  0.4873860000000  0.5286480000000 1.0
C      1  0.5646550000000  0.4852700000000  0.4896500000000 1.0
C      1  0.4268960000000  0.4867450000000  0.4679850000000 1.0
C      1  0.5700830000000  0.4873090000000  0.5233050000000 1.0
C      1  0.5501860000000  0.5384920000000  0.5469700000000 1.0
C      1  0.4468310000000  0.5333430000000  0.4544310000000 1.0
C      1  0.5537140000000  0.5407070000000  0.4508880000000 1.0
C      1  0.4509640000000  0.5343720000000  0.5500900000000 1.0
C      1  0.4404960000000  0.5327390000000  0.4878450000000 1.0
C      1  0.5643350000000  0.5457230000000  0.5169100000000 1.0
C      1  0.4468290000000  0.5434160000000  0.5181050000000 1.0
C      1  0.5662760000000  0.5459430000000  0.4820510000000 1.0
C      1  0.4124580000000  0.4857820000000  0.4162260000000 1.0
C      1  0.5763010000000  0.4831880000000  0.5855750000000 1.0
C      1  0.4155720000000  0.4876630000000  0.5835850000000 1.0
C      1  0.5840890000000  0.4872620000000  0.4088530000000 1.0
C      1  0.5578890000000  0.5075030000000  0.5876690000000 1.0
C      1  0.4329740000000  0.5089290000000  0.4177380000000 1.0
C      1  0.5643300000000  0.5115590000000  0.4076550000000 1.0
C      1  0.4365730000000  0.5109580000000  0.5846620000000 1.0
C      1  0.5183020000000  0.4629070000000  0.5480300000000 1.0
C      1  0.4819610000000  0.4509260000000  0.4668920000000 1.0
C      1  0.5325000000000  0.4697980000000  0.4587630000000 1.0
C      1  0.4733200000000  0.4589810000000  0.5607670000000 1.0
C      1  0.4299790000000  0.4608690000000  0.5853500000000 1.0
C      1  0.5677850000000  0.4617240000000  0.4073900000000 1.0
C      1  0.4273510000000  0.4591110000000  0.4189200000000 1.0
C      1  0.5612330000000  0.4578210000000  0.5954170000000 1.0
C      1  0.4038400000000  0.5416320000000  0.4416210000000 1.0
C      1  0.5943740000000  0.5263130000000  0.5557060000000 1.0
C      1  0.4069560000000  0.5414750000000  0.5567690000000 1.0
C      1  0.5958010000000  0.5379710000000  0.4402400000000 1.0
C      1  0.4500430000000  0.5038190000000  0.5140900000000 1.0
C      1  0.5517820000000  0.5151870000000  0.4816750000000 1.0
C      1  0.4497520000000  0.5034530000000  0.4828960000000 1.0
C      1  0.5512380000000  0.5143970000000  0.5150850000000 1.0
C      1  0.5272930000000  0.5187830000000  0.4304560000000 1.0
C      1  0.4780120000000  0.5111360000000  0.5772580000000 1.0
C      1  0.5177950000000  0.5160040000000  0.5746720000000 1.0
C      1  0.4816550000000  0.5085290000000  0.4281180000000 1.0
C      1  0.4727020000000  0.3936710000000  0.5114770000000 1.0
C      1  0.5285230000000  0.3913550000000  0.4804870000000 1.0
C      1  0.4688290000000  0.3942660000000  0.4799770000000 1.0
C      1  0.5294770000000  0.3933740000000  0.5142320000000 1.0
C      1  0.4543100000000  0.5017680000000  0.4432250000000 1.0
C      1  0.5443870000000  0.5099510000000  0.5584170000000 1.0
C      1  0.4530160000000  0.5005640000000  0.5567680000000 1.0
C      1  0.5585870000000  0.5113210000000  0.4405260000000 1.0
C      1  0.4882050000000  0.5533910000000  0.4338130000000 1.0
C      1  0.5152010000000  0.5670390000000  0.5622690000000 1.0
C      1  0.4873970000000  0.5552210000000  0.5664340000000 1.0
C      1  0.5129120000000  0.5708950000000  0.4370730000000 1.0
C      1  0.4759540000000  0.5992120000000  0.5135950000000 1.0
C      1  0.5231610000000  0.5938460000000  0.4865330000000 1.0
C      1  0.4717790000000  0.6018760000000  0.4848510000000 1.0
C      1  0.5211930000000  0.5939540000000  0.5123220000000 1.0
C      1  0.4440620000000  0.4514820000000  0.4837270000000 1.0
C      1  0.5527430000000  0.4361410000000  0.5251930000000 1.0
C      1  0.4524570000000  0.4450140000000  0.5179300000000 1.0
C      1  0.5577720000000  0.4320680000000  0.4707190000000 1.0
C      1  0.5165860000000  0.5807600000000  0.5932050000000 1.0
C      1  0.4874490000000  0.5795480000000  0.3933680000000 1.0
C      1  0.5122570000000  0.5803020000000  0.4048640000000 1.0
C      1  0.4920160000000  0.5833210000000  0.6050840000000 1.0
C      1  0.5961500000000  0.5037170000000  0.5088680000000 1.0
C      1  0.4076800000000  0.5102590000000  0.4842280000000 1.0
C      1  0.6023570000000  0.5081310000000  0.4795810000000 1.0
C      1  0.4067210000000  0.5107440000000  0.5151870000000 1.0
C      1  0.5171340000000  0.5978600000000  0.4552570000000 1.0
C      1  0.4842920000000  0.5999120000000  0.5437960000000 1.0
C      1  0.5177830000000  0.5941830000000  0.5450680000000 1.0
C      1  0.4831040000000  0.5962640000000  0.4560080000000 1.0
C      1  0.5124740000000  0.5121600000000  0.4669970000000 1.0
C      1  0.4793470000000  0.5028090000000  0.5271230000000 1.0
C      1  0.5108880000000  0.5079300000000  0.5279330000000 1.0
C      1  0.4801580000000  0.5038750000000  0.4736250000000 1.0
C      1  0.5172150000000  0.4011950000000  0.5417980000000 1.0
C      1  0.4853890000000  0.4013010000000  0.4541440000000 1.0
C      1  0.5183700000000  0.4095700000000  0.4540270000000 1.0
C      1  0.4852210000000  0.4096860000000  0.5387270000000 1.0
C      1  0.5256480000000  0.4847690000000  0.4311470000000 1.0
C      1  0.4840180000000  0.4803950000000  0.5808890000000 1.0
C      1  0.5153810000000  0.4820740000000  0.5755330000000 1.0
C      1  0.4959030000000  0.4828330000000  0.4258080000000 1.0
C      1  0.4863460000000  0.5289760000000  0.4024670000000 1.0
C      1  0.5209820000000  0.5333640000000  0.6007830000000 1.0
C      1  0.4874690000000  0.5326160000000  0.5992640000000 1.0
C      1  0.5191580000000  0.5311770000000  0.4042350000000 1.0
C      1  0.4486710000000  0.5563250000000  0.4293520000000 1.0
C      1  0.5566220000000  0.5582500000000  0.5718720000000 1.0
C      1  0.4486640000000  0.5601550000000  0.5721640000000 1.0
C      1  0.5544220000000  0.5622320000000  0.4253810000000 1.0
C      1  0.4874380000000  0.4325490000000  0.4435770000000 1.0
C      1  0.5131340000000  0.4308320000000  0.5580280000000 1.0
C      1  0.4816790000000  0.4287420000000  0.5666690000000 1.0
C      1  0.5167080000000  0.4298160000000  0.4266640000000 1.0
C      1  0.5580170000000  0.4288200000000  0.5542350000000 1.0
C      1  0.4344930000000  0.4299680000000  0.4591770000000 1.0
C      1  0.5655460000000  0.4243340000000  0.4424330000000 1.0
C      1  0.4394490000000  0.4300840000000  0.5455850000000 1.0
C      1  0.5198340000000  0.4437220000000  0.5208340000000 1.0
C      1  0.5031440000000  0.4403820000000  0.4913880000000 1.0
C      1  0.5256330000000  0.4393620000000  0.4687460000000 1.0
C      1  0.4856280000000  0.4370860000000  0.5191540000000 1.0
C      1  0.4571380000000  0.4648640000000  0.4260140000000 1.0
C      1  0.5320770000000  0.4653700000000  0.5995580000000 1.0
C      1  0.4582520000000  0.4653430000000  0.5972170000000 1.0
C      1  0.5383790000000  0.4689970000000  0.4052940000000 1.0
C      1  0.4142830000000  0.5380610000000  0.5263960000000 1.0
C      1  0.5941640000000  0.5323250000000  0.4681610000000 1.0
C      1  0.4118760000000  0.5416200000000  0.4717740000000 1.0
C      1  0.5924590000000  0.5304660000000  0.5270090000000 1.0
C      1  0.4563550000000  0.4955020000000  0.6070320000000 1.0
C      1  0.5385560000000  0.4982870000000  0.3927470000000 1.0
C      1  0.4568140000000  0.4892650000000  0.4035560000000 1.0
C      1  0.5348960000000  0.4965420000000  0.6072290000000 1.0
C      1  0.5472940000000  0.4038780000000  0.4370680000000 1.0
C      1  0.4530740000000  0.4066310000000  0.5493830000000 1.0
C      1  0.5442000000000  0.4061180000000  0.5607640000000 1.0
C      1  0.4549470000000  0.4095770000000  0.4429330000000 1.0
C      1  0.5819560000000  0.4761960000000  0.5537810000000 1.0
C      1  0.4041930000000  0.4762860000000  0.4462460000000 1.0
C      1  0.5860960000000  0.4745850000000  0.4403450000000 1.0
C      1  0.4095230000000  0.4750980000000  0.5541640000000 1.0
C      1  0.5412310000000  0.4858490000000  0.5412390000000 1.0
C      1  0.4562100000000  0.4718350000000  0.4593050000000 1.0
C      1  0.5604510000000  0.4846440000000  0.4562900000000 1.0
C      1  0.4559950000000  0.4723350000000  0.5379080000000 1.0
C      1  0.4874020000000  0.4761730000000  0.4844200000000 1.0
C      1  0.5267300000000  0.4831130000000  0.5117220000000 1.0
C      1  0.4777270000000  0.4754020000000  0.5119280000000 1.0
C      1  0.5178070000000  0.4833680000000  0.4831030000000 1.0
C      1  0.5357980000000  0.5583380000000  0.5952840000000 1.0
C      1  0.4715600000000  0.5560870000000  0.4060920000000 1.0
C      1  0.5319780000000  0.5583900000000  0.4042490000000 1.0
C      1  0.4731380000000  0.5604360000000  0.5949210000000 1.0
C      1  0.4832940000000  0.5278860000000  0.5486750000000 1.0
C      1  0.5208280000000  0.5425220000000  0.4541720000000 1.0
C      1  0.4793880000000  0.5311780000000  0.4533760000000 1.0
C      1  0.5162830000000  0.5359270000000  0.5467830000000 1.0
C      1  0.5134450000000  0.5552660000000  0.5180880000000 1.0
C      1  0.4783840000000  0.5536130000000  0.4789670000000 1.0
C      1  0.5117100000000  0.5559030000000  0.4840810000000 1.0
C      1  0.4807610000000  0.5460730000000  0.5200570000000 1.0
C      1  0.4644930000000  0.5850650000000  0.4383870000000 1.0
C      1  0.5484080000000  0.5880340000000  0.5585350000000 1.0
C      1  0.4650840000000  0.5876550000000  0.5606280000000 1.0
C      1  0.5458960000000  0.5927230000000  0.4377820000000 1.0
C      1  0.4145110000000  0.5631870000000  0.5053290000000 1.0
C      1  0.5681430000000  0.5856230000000  0.4865280000000 1.0
C      1  0.4287250000000  0.5698400000000  0.4806280000000 1.0
C      1  0.5695280000000  0.5850570000000  0.5120540000000 1.0
C      1  0.4624140000000  0.5746280000000  0.5221750000000 1.0
C      1  0.5420300000000  0.5690300000000  0.4760340000000 1.0
C      1  0.4565750000000  0.5757920000000  0.4778480000000 1.0
C      1  0.5429050000000  0.5709400000000  0.5247930000000 1.0
C      1  0.5547270000000  0.4058750000000  0.4860210000000 1.0
C      1  0.4475580000000  0.4129200000000  0.5077970000000 1.0
C      1  0.5565010000000  0.4081400000000  0.5144060000000 1.0
C      1  0.4399950000000  0.4062100000000  0.4795980000000 1.0
C      1  0.5778840000000  0.5397710000000  0.4193390000000 1.0
C      1  0.4244020000000  0.5395960000000  0.5790580000000 1.0
C      1  0.5763380000000  0.5323270000000  0.5764070000000 1.0
C      1  0.4236750000000  0.5376850000000  0.4222970000000 1.0
C      1  0.5741940000000  0.4548190000000  0.5141440000000 1.0
C      1  0.4105000000000  0.4464800000000  0.4859920000000 1.0
C      1  0.5746750000000  0.4535080000000  0.4827100000000 1.0
C      1  0.4186250000000  0.4482210000000  0.5166830000000 1.0
C      1  0.4861340000000  0.4539320000000  0.4184780000000 1.0
C      1  0.5101860000000  0.4448620000000  0.5890210000000 1.0
C      1  0.4793230000000  0.4425000000000  0.5965900000000 1.0
C      1  0.5160070000000  0.4474530000000  0.4035210000000 1.0
C      1  0.3877980000000  0.4876280000000  0.5314750000000 1.0
C      1  0.6068840000000  0.4860250000000  0.4629550000000 1.0
C      1  0.3874060000000  0.4867110000000  0.4710300000000 1.0
C      1  0.6053320000000  0.4948210000000  0.5403730000000 1.0
C      1  0.5114020000000  0.5068850000000  0.3817220000000 1.0
C      1  0.4793860000000  0.5072400000000  0.6170230000000 1.0
C      1  0.5102670000000  0.5082700000000  0.6208520000000 1.0
C      1  0.4789280000000  0.5001370000000  0.3892050000000 1.0
C      1  0.4224970000000  0.4449870000000  0.5609860000000 1.0
C      1  0.5776700000000  0.4437770000000  0.4284480000000 1.0
C      1  0.4144720000000  0.4439770000000  0.4417920000000 1.0
C      1  0.5699420000000  0.4484310000000  0.5681480000000 1.0
C      1  0.4885930000000  0.5260870000000  0.4961170000000 1.0
C      1  0.5220800000000  0.5202760000000  0.4985880000000 1.0
END
