TITL C-2622965-4321-649 0.000778626351423295 125000 -915.561653064251 0 0 166 (C1) n - 1
REM
REM in /nfs/bkarasulu/CARBON/AIRSS/Generating-Clusters/AIREBO/with-SteepDescent/Higher-Symm/SD-CG/HFTN-CG
REM
REM
REM
REM
REM
REM ./C.cell (b20cbc046b6831c77cfcea5457e17084)
REM
REM compiler GCC version 9.2.1 20190827 (Red Hat 9.2.1-1)
REM options -cpp -mtune=generic -march=x86-64 -g -O0 -fpre-include=/usr/include/finclude/math-vector-fortran.h
REM seed -510362175 -752955362 -848523772 235702333 1213351842 1057718915 -423497705 191682103 1363488752 -2103022391 731683476 1636389396 -138656139 -1753635285 -1837971800 2103263363 148756186 -1362664169 -476185515 1402164584 -822027622 -118374854 802299739 -708765582 -1294847000 1212894233 310131309 311855296 1614343383 -769304435 520122358 -687162363 -1641351813
REM
CELL 1.54180   50.00000   50.00000   50.00000   90.00000   90.00000   90.00000
LATT -1
SFAC C  
C      1  0.5874140000000  0.5502890000000  0.5178300000000 1.0
C      1  0.4859110000000  0.6019740000000  0.5127120000000 1.0
C      1  0.3813200000000  0.5173420000000  0.5128240000000 1.0
C      1  0.4617710000000  0.4017130000000  0.5181940000000 1.0
C      1  0.5764520000000  0.4260680000000  0.5151250000000 1.0
C      1  0.4707900000000  0.4587640000000  0.4061290000000 1.0
C      1  0.5369950000000  0.4670270000000  0.4069190000000 1.0
C      1  0.5448340000000  0.5261420000000  0.4144950000000 1.0
C      1  0.4930860000000  0.5545570000000  0.4029930000000 1.0
C      1  0.4437000000000  0.5089750000000  0.4064770000000 1.0
C      1  0.6193690000000  0.4993630000000  0.4664100000000 1.0
C      1  0.5504630000000  0.6093850000000  0.4430680000000 1.0
C      1  0.4118950000000  0.5903140000000  0.4444870000000 1.0
C      1  0.3879140000000  0.4438200000000  0.4551400000000 1.0
C      1  0.5110070000000  0.3811430000000  0.4437900000000 1.0
C      1  0.4522240000000  0.5541550000000  0.5250980000000 1.0
C      1  0.4406970000000  0.4685230000000  0.5269780000000 1.0
C      1  0.5077410000000  0.4250810000000  0.5317890000000 1.0
C      1  0.5546400000000  0.4850910000000  0.5289550000000 1.0
C      1  0.5303470000000  0.5473650000000  0.5205790000000 1.0
C      1  0.5864180000000  0.5523310000000  0.5465740000000 1.0
C      1  0.4849080000000  0.6008520000000  0.5425790000000 1.0
C      1  0.4012820000000  0.5047130000000  0.5362570000000 1.0
C      1  0.4660600000000  0.3991770000000  0.5481880000000 1.0
C      1  0.5748670000000  0.4357320000000  0.5436710000000 1.0
C      1  0.4560290000000  0.5303560000000  0.4249990000000 1.0
C      1  0.4415400000000  0.4797630000000  0.4230230000000 1.0
C      1  0.5163200000000  0.4495820000000  0.4195290000000 1.0
C      1  0.5563080000000  0.4942450000000  0.4172310000000 1.0
C      1  0.5175850000000  0.5406820000000  0.4176000000000 1.0
C      1  0.4675110000000  0.4126870000000  0.4728440000000 1.0
C      1  0.5735090000000  0.4385640000000  0.4687890000000 1.0
C      1  0.5829720000000  0.5508990000000  0.4704240000000 1.0
C      1  0.4778290000000  0.5938700000000  0.4654790000000 1.0
C      1  0.4033750000000  0.5096480000000  0.4767000000000 1.0
C      1  0.5112850000000  0.4444830000000  0.5959140000000 1.0
C      1  0.5511410000000  0.4881680000000  0.5944730000000 1.0
C      1  0.5233190000000  0.5544010000000  0.6063440000000 1.0
C      1  0.4577670000000  0.5388550000000  0.5884200000000 1.0
C      1  0.4464680000000  0.4740480000000  0.5918550000000 1.0
C      1  0.4434270000000  0.5549930000000  0.4757220000000 1.0
C      1  0.4379860000000  0.4632110000000  0.4740500000000 1.0
C      1  0.5161180000000  0.4242230000000  0.4778230000000 1.0
C      1  0.5704620000000  0.4864160000000  0.4765700000000 1.0
C      1  0.5308150000000  0.5669130000000  0.4738360000000 1.0
C      1  0.4625700000000  0.5812540000000  0.4375860000000 1.0
C      1  0.4052660000000  0.4918140000000  0.4476560000000 1.0
C      1  0.4774260000000  0.4216450000000  0.4415640000000 1.0
C      1  0.5834440000000  0.4576880000000  0.4438100000000 1.0
C      1  0.5690630000000  0.5618550000000  0.4414360000000 1.0
C      1  0.5556300000000  0.4340820000000  0.5661620000000 1.0
C      1  0.5794240000000  0.5312530000000  0.5667080000000 1.0
C      1  0.4993120000000  0.5848080000000  0.5641310000000 1.0
C      1  0.4161790000000  0.5207260000000  0.5606780000000 1.0
C      1  0.4599440000000  0.4185960000000  0.5754220000000 1.0
C      1  0.4902330000000  0.4794970000000  0.5281940000000 1.0
C      1  0.5215990000000  0.4924620000000  0.5252520000000 1.0
C      1  0.5191970000000  0.5194410000000  0.5118880000000 1.0
C      1  0.4906180000000  0.5330110000000  0.5196920000000 1.0
C      1  0.4700860000000  0.5058570000000  0.5188600000000 1.0
C      1  0.5678860000000  0.5159290000000  0.5233530000000 1.0
C      1  0.5022700000000  0.5636940000000  0.5107330000000 1.0
C      1  0.4421240000000  0.5252070000000  0.5179020000000 1.0
C      1  0.4683290000000  0.4547090000000  0.5203050000000 1.0
C      1  0.5341320000000  0.4341050000000  0.5187360000000 1.0
C      1  0.4759090000000  0.4309810000000  0.5412750000000 1.0
C      1  0.5511250000000  0.4525170000000  0.5310120000000 1.0
C      1  0.5540900000000  0.5397510000000  0.5372520000000 1.0
C      1  0.4796620000000  0.5684730000000  0.5336210000000 1.0
C      1  0.4334660000000  0.4984390000000  0.5328170000000 1.0
C      1  0.5203340000000  0.4817710000000  0.5702400000000 1.0
C      1  0.5272230000000  0.5147020000000  0.5749670000000 1.0
C      1  0.4975140000000  0.5309010000000  0.5725660000000 1.0
C      1  0.4733540000000  0.5079570000000  0.5684860000000 1.0
C      1  0.4878020000000  0.4777600000000  0.5624750000000 1.0
C      1  0.4981420000000  0.4711530000000  0.4961800000000 1.0
C      1  0.5204900000000  0.4879230000000  0.4769680000000 1.0
C      1  0.5189200000000  0.5175700000000  0.4815580000000 1.0
C      1  0.4888640000000  0.5269710000000  0.4869800000000 1.0
C      1  0.4774280000000  0.4966270000000  0.4873270000000 1.0
C      1  0.6003860000000  0.4937200000000  0.5178750000000 1.0
C      1  0.5392030000000  0.5949240000000  0.5186160000000 1.0
C      1  0.4219740000000  0.5793750000000  0.5182970000000 1.0
C      1  0.4041340000000  0.4460340000000  0.5171690000000 1.0
C      1  0.5306630000000  0.3943610000000  0.5204020000000 1.0
C      1  0.5122690000000  0.6003270000000  0.4368850000000 1.0
C      1  0.4008850000000  0.5515970000000  0.4510030000000 1.0
C      1  0.4309830000000  0.4277290000000  0.4529060000000 1.0
C      1  0.5456050000000  0.4019710000000  0.4440670000000 1.0
C      1  0.6007640000000  0.5265910000000  0.4444920000000 1.0
C      1  0.5449420000000  0.4801890000000  0.4619040000000 1.0
C      1  0.5320050000000  0.5369450000000  0.4621980000000 1.0
C      1  0.4724070000000  0.5416400000000  0.4659890000000 1.0
C      1  0.4520730000000  0.4937620000000  0.4676840000000 1.0
C      1  0.4957050000000  0.4503640000000  0.4703340000000 1.0
C      1  0.5364480000000  0.5615780000000  0.5828990000000 1.0
C      1  0.4529690000000  0.5524440000000  0.5584560000000 1.0
C      1  0.4398050000000  0.4678740000000  0.5616730000000 1.0
C      1  0.5088260000000  0.4293640000000  0.5655360000000 1.0
C      1  0.5619050000000  0.4873720000000  0.5621190000000 1.0
C      1  0.4351850000000  0.5717080000000  0.4481690000000 1.0
C      1  0.4113340000000  0.4625030000000  0.4529510000000 1.0
C      1  0.5067560000000  0.4106110000000  0.4491580000000 1.0
C      1  0.5939860000000  0.4847760000000  0.4553280000000 1.0
C      1  0.5450940000000  0.5798760000000  0.4464660000000 1.0
C      1  0.5062560000000  0.5238740000000  0.4441910000000 1.0
C      1  0.4742410000000  0.5129310000000  0.4478340000000 1.0
C      1  0.4740110000000  0.4863310000000  0.4257950000000 1.0
C      1  0.4966750000000  0.4650920000000  0.4396380000000 1.0
C      1  0.5332000000000  0.5036910000000  0.4403150000000 1.0
C      1  0.4134730000000  0.4979790000000  0.4167330000000 1.0
C      1  0.4868810000000  0.4365570000000  0.4138340000000 1.0
C      1  0.5691780000000  0.4627670000000  0.4170620000000 1.0
C      1  0.5663220000000  0.5451990000000  0.4163140000000 1.0
C      1  0.4696790000000  0.5565660000000  0.4171490000000 1.0
C      1  0.5238930000000  0.4998100000000  0.6054390000000 1.0
C      1  0.5056700000000  0.5273450000000  0.6058600000000 1.0
C      1  0.4746330000000  0.5164710000000  0.6013860000000 1.0
C      1  0.4743900000000  0.4831750000000  0.5973570000000 1.0
C      1  0.5038000000000  0.4735160000000  0.5987810000000 1.0
C      1  0.5409800000000  0.5964670000000  0.5454150000000 1.0
C      1  0.4126040000000  0.5566420000000  0.5298800000000 1.0
C      1  0.4220320000000  0.4299740000000  0.5306100000000 1.0
C      1  0.5352000000000  0.3925010000000  0.5468870000000 1.0
C      1  0.6060780000000  0.4942170000000  0.5446170000000 1.0
C      1  0.5966460000000  0.5226770000000  0.5064800000000 1.0
C      1  0.5128570000000  0.5918690000000  0.5010790000000 1.0
C      1  0.4104810000000  0.5337050000000  0.5085810000000 1.0
C      1  0.4477080000000  0.4285590000000  0.5130960000000 1.0
C      1  0.5505900000000  0.4118360000000  0.5024990000000 1.0
C      1  0.4850570000000  0.5569790000000  0.5655190000000 1.0
C      1  0.4437650000000  0.5016170000000  0.5630910000000 1.0
C      1  0.4812390000000  0.4451370000000  0.5701400000000 1.0
C      1  0.5465270000000  0.4606680000000  0.5754220000000 1.0
C      1  0.5474620000000  0.5366270000000  0.5691420000000 1.0
C      1  0.4297520000000  0.5117140000000  0.4567120000000 1.0
C      1  0.4646400000000  0.4488410000000  0.4565460000000 1.0
C      1  0.5481250000000  0.4515400000000  0.4520870000000 1.0
C      1  0.5613910000000  0.5319510000000  0.4537260000000 1.0
C      1  0.4873230000000  0.5647800000000  0.4520810000000 1.0
C      1  0.5768260000000  0.5077130000000  0.4395600000000 1.0
C      1  0.5148450000000  0.5668630000000  0.4372430000000 1.0
C      1  0.4304930000000  0.5391170000000  0.4414690000000 1.0
C      1  0.4381960000000  0.4526610000000  0.4355120000000 1.0
C      1  0.5309070000000  0.4305820000000  0.4382650000000 1.0
C      1  0.5357090000000  0.4148300000000  0.5640260000000 1.0
C      1  0.5862370000000  0.5048640000000  0.5616990000000 1.0
C      1  0.5272800000000  0.5832380000000  0.5666000000000 1.0
C      1  0.4222300000000  0.5478410000000  0.5545570000000 1.0
C      1  0.4442470000000  0.4375330000000  0.5518370000000 1.0
C      1  0.4473100000000  0.5740460000000  0.4995260000000 1.0
C      1  0.4199610000000  0.4693650000000  0.5022760000000 1.0
C      1  0.5065300000000  0.4087120000000  0.5024230000000 1.0
C      1  0.5773010000000  0.4761700000000  0.5052020000000 1.0
C      1  0.5451630000000  0.5684640000000  0.5003530000000 1.0
C      1  0.4142300000000  0.5417270000000  0.4778340000000 1.0
C      1  0.4416350000000  0.4307150000000  0.4834570000000 1.0
C      1  0.5482940000000  0.4166580000000  0.4713860000000 1.0
C      1  0.6076020000000  0.5285600000000  0.4777480000000 1.0
C      1  0.5113720000000  0.5926880000000  0.4675870000000 1.0
C      1  0.5741750000000  0.5628430000000  0.4967110000000 1.0
C      1  0.4663980000000  0.5957140000000  0.4933120000000 1.0
C      1  0.4047490000000  0.4945090000000  0.5035560000000 1.0
C      1  0.4789640000000  0.3995890000000  0.4959420000000 1.0
C      1  0.5822460000000  0.4466070000000  0.4965360000000 1.0
C      1  0.4952160000000  0.4888050000000  0.4594270000000 1.0
END
