TITL C-2622955-8511-214 -6.01201259238913e-05 125000 -291.612822332861 0 0 53 (C1) n - 1
REM
REM in /nfs/bkarasulu/CARBON/AIRSS/Generating-Clusters/AIREBO/with-SteepDescent/Higher-Symm/SD-CG/HFTN-CG
REM
REM
REM
REM
REM
REM ./C.cell (b20cbc046b6831c77cfcea5457e17084)
REM
REM compiler GCC version 9.2.1 20190827 (Red Hat 9.2.1-1)
REM options -cpp -mtune=generic -march=x86-64 -g -O0 -fpre-include=/usr/include/finclude/math-vector-fortran.h
REM seed -2084809025 1066381217 -431139063 433820104 -1680125043 -47101296 -742106370 1813098984 1811431850 -1005176956 -350295551 1335894917 131437332 780874451 -1714667917 2088892523 1447629816 -171669445 1395565127 379262692 -501149298 353298956 1006083459 1109541069 -1194682703 389902986 401263053 -438128211 1798989247 -2005039782 -1719626099 -1699428169 -907776966
REM
CELL 1.54180   50.00000   50.00000   50.00000   90.00000   90.00000   90.00000
LATT -1
SFAC C  
C      1  0.4756450000000  0.4691320000000  0.4595950000000 1.0
C      1  0.5287890000000  0.4928970000000  0.5496910000000 1.0
C      1  0.4562060000000  0.5243120000000  0.5258520000000 1.0
C      1  0.5419330000000  0.4961110000000  0.4532200000000 1.0
C      1  0.4836270000000  0.4806360000000  0.5481600000000 1.0
C      1  0.5484440000000  0.4565560000000  0.4868500000000 1.0
C      1  0.4484970000000  0.5379510000000  0.4971850000000 1.0
C      1  0.5032840000000  0.4975070000000  0.5593290000000 1.0
C      1  0.5173420000000  0.4575650000000  0.4827080000000 1.0
C      1  0.4540540000000  0.4656790000000  0.5451180000000 1.0
C      1  0.5471770000000  0.5279470000000  0.5032100000000 1.0
C      1  0.4784640000000  0.5522110000000  0.4518590000000 1.0
C      1  0.4591450000000  0.5301500000000  0.4674200000000 1.0
C      1  0.4340420000000  0.4950050000000  0.4727010000000 1.0
C      1  0.4667520000000  0.4488730000000  0.5023470000000 1.0
C      1  0.5085040000000  0.5229320000000  0.5283600000000 1.0
C      1  0.4666330000000  0.5256730000000  0.4341960000000 1.0
C      1  0.5033290000000  0.4686570000000  0.4577260000000 1.0
C      1  0.5071190000000  0.4336020000000  0.5434480000000 1.0
C      1  0.4956660000000  0.5271630000000  0.5595640000000 1.0
C      1  0.5311740000000  0.5004710000000  0.5166280000000 1.0
C      1  0.5149310000000  0.5623570000000  0.5272630000000 1.0
C      1  0.5585080000000  0.4802560000000  0.5173000000000 1.0
C      1  0.5341020000000  0.5593360000000  0.5023330000000 1.0
C      1  0.4241490000000  0.5198920000000  0.4894290000000 1.0
C      1  0.4924450000000  0.5735460000000  0.4740570000000 1.0
C      1  0.4953930000000  0.5162750000000  0.4475850000000 1.0
C      1  0.5552290000000  0.5148250000000  0.4758030000000 1.0
C      1  0.4744890000000  0.5403700000000  0.5398000000000 1.0
C      1  0.4828260000000  0.4475840000000  0.5440950000000 1.0
C      1  0.4872690000000  0.5591490000000  0.5229600000000 1.0
C      1  0.5615810000000  0.4812950000000  0.4766020000000 1.0
C      1  0.5289080000000  0.4339940000000  0.5245830000000 1.0
C      1  0.4959940000000  0.5270820000000  0.4999070000000 1.0
C      1  0.4787860000000  0.4747040000000  0.5150310000000 1.0
C      1  0.5515160000000  0.4502650000000  0.5170320000000 1.0
C      1  0.5177100000000  0.5819640000000  0.4828900000000 1.0
C      1  0.5693160000000  0.5121300000000  0.5198680000000 1.0
C      1  0.4629680000000  0.4970570000000  0.4613620000000 1.0
C      1  0.4776110000000  0.5539490000000  0.4936830000000 1.0
C      1  0.4754130000000  0.4241480000000  0.5120970000000 1.0
C      1  0.4291670000000  0.4916230000000  0.5041780000000 1.0
C      1  0.4521930000000  0.4930600000000  0.5248060000000 1.0
C      1  0.5843620000000  0.4916670000000  0.4981100000000 1.0
C      1  0.5151640000000  0.4918450000000  0.4481170000000 1.0
C      1  0.4960690000000  0.4125860000000  0.4978510000000 1.0
C      1  0.5168710000000  0.5421910000000  0.4819210000000 1.0
C      1  0.5185800000000  0.4292560000000  0.4976050000000 1.0
C      1  0.5223320000000  0.5456560000000  0.5508510000000 1.0
C      1  0.5066770000000  0.4833680000000  0.4997030000000 1.0
C      1  0.5104960000000  0.5438230000000  0.4543840000000 1.0
C      1  0.4914540000000  0.5033950000000  0.4788140000000 1.0
C      1  0.4616670000000  0.4503190000000  0.4748140000000 1.0
END
