TITL C-2622954-8726-525 0.00360767970844062 125000 -617.069060677516 0 0 109 (C1) n - 1
REM
REM in /nfs/bkarasulu/CARBON/AIRSS/Generating-Clusters/AIREBO/with-SteepDescent/Higher-Symm/SD-CG/HFTN-CG
REM
REM
REM
REM
REM
REM ./C.cell (b20cbc046b6831c77cfcea5457e17084)
REM
REM compiler GCC version 9.2.1 20190827 (Red Hat 9.2.1-1)
REM options -cpp -mtune=generic -march=x86-64 -g -O0 -fpre-include=/usr/include/finclude/math-vector-fortran.h
REM seed -1427578641 1348800003 -70023268 1352486218 806809978 -445870462 1158039179 -400485682 1678542385 1338320845 -2117262452 1356618201 -1384241289 1999586079 -1803998387 281532525 1435862981 711164445 -46431870 329639260 1486187584 1858707862 535046402 -237984507 -959117987 -959478662 -1621467782 1983945965 488709926 1566350353 -1712062646 1384905427 1398924691
REM
CELL 1.54180   50.00000   50.00000   50.00000   90.00000   90.00000   90.00000
LATT -1
SFAC C  
C      1  0.4751030000000  0.4878430000000  0.5700730000000 1.0
C      1  0.5292300000000  0.4867130000000  0.4245590000000 1.0
C      1  0.4787410000000  0.5160380000000  0.5763350000000 1.0
C      1  0.5169280000000  0.5148260000000  0.4205980000000 1.0
C      1  0.4605100000000  0.4511940000000  0.4314620000000 1.0
C      1  0.5370600000000  0.4520130000000  0.5727270000000 1.0
C      1  0.4590740000000  0.5415660000000  0.4324350000000 1.0
C      1  0.5407360000000  0.5472370000000  0.5719560000000 1.0
C      1  0.4506610000000  0.4334050000000  0.4520120000000 1.0
C      1  0.5510210000000  0.4450070000000  0.5479160000000 1.0
C      1  0.4503170000000  0.5623290000000  0.4503540000000 1.0
C      1  0.5542630000000  0.5542110000000  0.5474920000000 1.0
C      1  0.4658520000000  0.5304890000000  0.4828070000000 1.0
C      1  0.5428150000000  0.5316760000000  0.5247320000000 1.0
C      1  0.4660630000000  0.4702620000000  0.4818140000000 1.0
C      1  0.5384590000000  0.4678070000000  0.5260200000000 1.0
C      1  0.5467770000000  0.4263280000000  0.4856680000000 1.0
C      1  0.4520960000000  0.4239520000000  0.5141980000000 1.0
C      1  0.5485630000000  0.5725700000000  0.4874750000000 1.0
C      1  0.4553190000000  0.5765610000000  0.5149160000000 1.0
C      1  0.4675500000000  0.4039480000000  0.4928800000000 1.0
C      1  0.5384950000000  0.3992910000000  0.5004040000000 1.0
C      1  0.4662520000000  0.5973420000000  0.4911040000000 1.0
C      1  0.5375830000000  0.6006120000000  0.5007980000000 1.0
C      1  0.4654350000000  0.5788050000000  0.5435650000000 1.0
C      1  0.5286390000000  0.5864390000000  0.4647630000000 1.0
C      1  0.4676190000000  0.4028840000000  0.5328640000000 1.0
C      1  0.5323500000000  0.4249410000000  0.4591900000000 1.0
C      1  0.5632810000000  0.4712540000000  0.4718810000000 1.0
C      1  0.4334570000000  0.4673680000000  0.5253320000000 1.0
C      1  0.5684470000000  0.5298780000000  0.4755540000000 1.0
C      1  0.4371990000000  0.5335140000000  0.5307110000000 1.0
C      1  0.4447930000000  0.4849190000000  0.5032750000000 1.0
C      1  0.5584060000000  0.4821430000000  0.5037210000000 1.0
C      1  0.4425140000000  0.5166060000000  0.5019940000000 1.0
C      1  0.5598550000000  0.5134740000000  0.5016160000000 1.0
C      1  0.5158460000000  0.5163270000000  0.5386400000000 1.0
C      1  0.4929670000000  0.5184850000000  0.4761690000000 1.0
C      1  0.5089880000000  0.4844180000000  0.5296430000000 1.0
C      1  0.4939420000000  0.4835010000000  0.4677220000000 1.0
C      1  0.4145240000000  0.4340050000000  0.4901830000000 1.0
C      1  0.5842080000000  0.4470950000000  0.5100950000000 1.0
C      1  0.4164220000000  0.5670320000000  0.4905200000000 1.0
C      1  0.5885490000000  0.5563120000000  0.5099910000000 1.0
C      1  0.4251850000000  0.4402800000000  0.4641810000000 1.0
C      1  0.5768120000000  0.4571890000000  0.5355020000000 1.0
C      1  0.4247980000000  0.5587440000000  0.4643520000000 1.0
C      1  0.5814140000000  0.5450370000000  0.5351640000000 1.0
C      1  0.4916480000000  0.5352690000000  0.5367650000000 1.0
C      1  0.5133910000000  0.5393310000000  0.4657450000000 1.0
C      1  0.4815630000000  0.4653670000000  0.5231890000000 1.0
C      1  0.5189120000000  0.4613300000000  0.4741590000000 1.0
C      1  0.5355040000000  0.4618080000000  0.4445230000000 1.0
C      1  0.4666560000000  0.4557640000000  0.5482070000000 1.0
C      1  0.5321570000000  0.5337610000000  0.4406380000000 1.0
C      1  0.4656180000000  0.5467440000000  0.5553890000000 1.0
C      1  0.5912340000000  0.5165360000000  0.5433620000000 1.0
C      1  0.4177950000000  0.5313730000000  0.4604890000000 1.0
C      1  0.5856080000000  0.4854580000000  0.5443890000000 1.0
C      1  0.4183080000000  0.4669660000000  0.4570910000000 1.0
C      1  0.4844980000000  0.5711730000000  0.5712630000000 1.0
C      1  0.5082770000000  0.5553680000000  0.4297050000000 1.0
C      1  0.4852460000000  0.4365930000000  0.5598290000000 1.0
C      1  0.5160380000000  0.4369610000000  0.4318860000000 1.0
C      1  0.5035140000000  0.5689330000000  0.5104420000000 1.0
C      1  0.4727680000000  0.5757290000000  0.4661130000000 1.0
C      1  0.5035670000000  0.4289970000000  0.5138850000000 1.0
C      1  0.4730560000000  0.4248780000000  0.4696740000000 1.0
C      1  0.4738690000000  0.4950950000000  0.5138670000000 1.0
C      1  0.5359690000000  0.4901860000000  0.4798990000000 1.0
C      1  0.4683360000000  0.5240220000000  0.5226480000000 1.0
C      1  0.5310180000000  0.5225890000000  0.4876180000000 1.0
C      1  0.4906380000000  0.4164460000000  0.5406970000000 1.0
C      1  0.5001870000000  0.4354880000000  0.4624030000000 1.0
C      1  0.4963520000000  0.5664970000000  0.5397390000000 1.0
C      1  0.5030210000000  0.5694370000000  0.4582340000000 1.0
C      1  0.5279530000000  0.5528530000000  0.5025370000000 1.0
C      1  0.4767730000000  0.5593820000000  0.4947000000000 1.0
C      1  0.5269170000000  0.4460610000000  0.5036330000000 1.0
C      1  0.4763750000000  0.4425030000000  0.4985640000000 1.0
C      1  0.5527270000000  0.4845370000000  0.5519580000000 1.0
C      1  0.4431570000000  0.4855590000000  0.4633890000000 1.0
C      1  0.5593240000000  0.5148070000000  0.5491220000000 1.0
C      1  0.4443600000000  0.5165560000000  0.4621790000000 1.0
C      1  0.4856250000000  0.5444150000000  0.4180590000000 1.0
C      1  0.5115620000000  0.5553730000000  0.5749480000000 1.0
C      1  0.4884170000000  0.4546690000000  0.4287110000000 1.0
C      1  0.5086940000000  0.4505590000000  0.5705130000000 1.0
C      1  0.4503650000000  0.5164130000000  0.5575020000000 1.0
C      1  0.5577050000000  0.5200720000000  0.4508790000000 1.0
C      1  0.4461160000000  0.4824270000000  0.5531240000000 1.0
C      1  0.5559160000000  0.4894540000000  0.4452570000000 1.0
C      1  0.4840930000000  0.5122650000000  0.4217330000000 1.0
C      1  0.5084680000000  0.5237740000000  0.5709840000000 1.0
C      1  0.4969520000000  0.4840790000000  0.4357710000000 1.0
C      1  0.4985930000000  0.4760820000000  0.5609240000000 1.0
C      1  0.5106640000000  0.5986850000000  0.5053190000000 1.0
C      1  0.4875510000000  0.6129460000000  0.4983240000000 1.0
C      1  0.5118230000000  0.3993710000000  0.5069050000000 1.0
C      1  0.4876670000000  0.3868620000000  0.4994190000000 1.0
C      1  0.5735800000000  0.5560990000000  0.4857980000000 1.0
C      1  0.4294520000000  0.5612750000000  0.5138300000000 1.0
C      1  0.5709610000000  0.4449940000000  0.4865550000000 1.0
C      1  0.4279950000000  0.4408590000000  0.5147480000000 1.0
C      1  0.5440970000000  0.4800350000000  0.5830960000000 1.0
C      1  0.4471550000000  0.4761040000000  0.4311180000000 1.0
C      1  0.5403550000000  0.5132590000000  0.5767180000000 1.0
C      1  0.4544610000000  0.5078420000000  0.4324510000000 1.0
C      1  0.5014530000000  0.4958950000000  0.4984830000000 1.0
END
