TITL C-2622960-5345-570 -3.78760244312102e-05 125000 -246.193406645967 0 0 47 (C1) n - 1
REM
REM in /nfs/bkarasulu/CARBON/AIRSS/Generating-Clusters/AIREBO/with-SteepDescent/Higher-Symm/SD-CG/HFTN-CG
REM
REM
REM
REM
REM
REM ./C.cell (b20cbc046b6831c77cfcea5457e17084)
REM
REM compiler GCC version 9.2.1 20190827 (Red Hat 9.2.1-1)
REM options -cpp -mtune=generic -march=x86-64 -g -O0 -fpre-include=/usr/include/finclude/math-vector-fortran.h
REM seed -650824758 -1339698531 -1119251980 -1236908277 1002524253 1907501613 1121806079 -1087050372 1364513027 -1726589959 1897008377 -218348357 -444762000 2041528815 -191870735 1791974044 949488442 535678398 1979879457 1747887158 460690514 246730653 1531632099 -895316761 -716629439 481447277 -1349305644 2055452089 -1378205387 -1889980490 935025680 550328111 290857283
REM
CELL 1.54180   50.00000   50.00000   50.00000   90.00000   90.00000   90.00000
LATT -1
SFAC C  
C      1  0.5085720000000  0.5651210000000  0.4723500000000 1.0
C      1  0.4605590000000  0.5619740000000  0.4986890000000 1.0
C      1  0.4749330000000  0.5647860000000  0.5269320000000 1.0
C      1  0.5148120000000  0.5642480000000  0.5248920000000 1.0
C      1  0.5373870000000  0.5630780000000  0.4734720000000 1.0
C      1  0.5479100000000  0.5372760000000  0.4775290000000 1.0
C      1  0.4958580000000  0.5462480000000  0.4517690000000 1.0
C      1  0.4532140000000  0.5350760000000  0.4927660000000 1.0
C      1  0.4797570000000  0.5412050000000  0.5403650000000 1.0
C      1  0.5291010000000  0.5415560000000  0.5313340000000 1.0
C      1  0.5369250000000  0.4372900000000  0.4921450000000 1.0
C      1  0.5085000000000  0.4415290000000  0.4648290000000 1.0
C      1  0.4756790000000  0.4363860000000  0.4865910000000 1.0
C      1  0.4622360000000  0.4489370000000  0.5358090000000 1.0
C      1  0.5131570000000  0.4357400000000  0.5238630000000 1.0
C      1  0.4342920000000  0.4968830000000  0.5164700000000 1.0
C      1  0.4960580000000  0.4968280000000  0.5685590000000 1.0
C      1  0.5634930000000  0.4974140000000  0.5304070000000 1.0
C      1  0.5421360000000  0.5043020000000  0.4561450000000 1.0
C      1  0.4635840000000  0.4998690000000  0.4449530000000 1.0
C      1  0.5160130000000  0.4762540000000  0.5816910000000 1.0
C      1  0.5835100000000  0.4754910000000  0.5195540000000 1.0
C      1  0.5346840000000  0.4862950000000  0.4297550000000 1.0
C      1  0.4400770000000  0.4791220000000  0.4439600000000 1.0
C      1  0.4280010000000  0.4840320000000  0.5441140000000 1.0
C      1  0.4761310000000  0.5097490000000  0.5514930000000 1.0
C      1  0.5383780000000  0.5094090000000  0.5400920000000 1.0
C      1  0.5620440000000  0.5074410000000  0.4796000000000 1.0
C      1  0.4893950000000  0.5132890000000  0.4447300000000 1.0
C      1  0.4400410000000  0.5073950000000  0.4921500000000 1.0
C      1  0.4802250000000  0.4693700000000  0.5187930000000 1.0
C      1  0.5113770000000  0.4666910000000  0.5261850000000 1.0
C      1  0.5312790000000  0.4665230000000  0.4984080000000 1.0
C      1  0.5072310000000  0.4708940000000  0.4741550000000 1.0
C      1  0.4763280000000  0.4671290000000  0.4870310000000 1.0
C      1  0.5244640000000  0.5177330000000  0.4854450000000 1.0
C      1  0.4978190000000  0.5228250000000  0.4743160000000 1.0
C      1  0.4777700000000  0.5199080000000  0.4947030000000 1.0
C      1  0.4895050000000  0.5168420000000  0.5213100000000 1.0
C      1  0.5191020000000  0.5162070000000  0.5149670000000 1.0
C      1  0.4544260000000  0.4866950000000  0.4741650000000 1.0
C      1  0.4605780000000  0.4888040000000  0.5349270000000 1.0
C      1  0.5204400000000  0.4854850000000  0.5491030000000 1.0
C      1  0.5573800000000  0.4854050000000  0.4999630000000 1.0
C      1  0.5118020000000  0.4920240000000  0.4530710000000 1.0
C      1  0.4936430000000  0.5698470000000  0.4988500000000 1.0
C      1  0.5061150000000  0.4229370000000  0.4932020000000 1.0
END
