TITL C-2622961-1971-523 -0.00049033728224508 125000 -933.336219079878 0 0 177 (C1) n - 1
REM
REM in /nfs/bkarasulu/CARBON/AIRSS/Generating-Clusters/AIREBO/with-SteepDescent/Higher-Symm/SD-CG/HFTN-CG
REM
REM
REM
REM
REM
REM ./C.cell (b20cbc046b6831c77cfcea5457e17084)
REM
REM compiler GCC version 9.2.1 20190827 (Red Hat 9.2.1-1)
REM options -cpp -mtune=generic -march=x86-64 -g -O0 -fpre-include=/usr/include/finclude/math-vector-fortran.h
REM seed -32968127 257079335 1795760759 40070885 206685433 664938377 428885415 -135907228 849123503 -1308394690 -932666032 87270648 -717076301 1938145147 154181851 -480713959 530606276 618272269 543454771 -1917381797 -1259002589 189384412 992412358 -335591550 -668507648 -1212999257 1630226831 -442407041 -1936458345 266293223 1109561950 234900135 64061776
REM
CELL 1.54180   50.00000   50.00000   50.00000   90.00000   90.00000   90.00000
LATT -1
SFAC C  
C      1  0.4429480000000  0.4902840000000  0.5233390000000 1.0
C      1  0.4551240000000  0.4805550000000  0.4435560000000 1.0
C      1  0.5326070000000  0.4808730000000  0.4444370000000 1.0
C      1  0.5625550000000  0.4769220000000  0.5161880000000 1.0
C      1  0.5019100000000  0.4885650000000  0.5598230000000 1.0
C      1  0.4370130000000  0.5226960000000  0.5290570000000 1.0
C      1  0.4545830000000  0.5073460000000  0.4616880000000 1.0
C      1  0.5293220000000  0.5117150000000  0.4525780000000 1.0
C      1  0.5536020000000  0.5076760000000  0.5175680000000 1.0
C      1  0.5050380000000  0.5184950000000  0.5716760000000 1.0
C      1  0.4415540000000  0.6009380000000  0.4420040000000 1.0
C      1  0.5631810000000  0.5886890000000  0.4293310000000 1.0
C      1  0.5717720000000  0.5895710000000  0.5287910000000 1.0
C      1  0.5028370000000  0.5869620000000  0.5761690000000 1.0
C      1  0.4230960000000  0.5895400000000  0.5191130000000 1.0
C      1  0.4407280000000  0.4076340000000  0.4526850000000 1.0
C      1  0.5571050000000  0.4120860000000  0.4379710000000 1.0
C      1  0.5769140000000  0.4115800000000  0.5298710000000 1.0
C      1  0.5055910000000  0.4051640000000  0.5620930000000 1.0
C      1  0.4231040000000  0.4109680000000  0.5271440000000 1.0
C      1  0.4787130000000  0.4207880000000  0.5761760000000 1.0
C      1  0.4302760000000  0.4199310000000  0.4962950000000 1.0
C      1  0.4820510000000  0.4385560000000  0.4186060000000 1.0
C      1  0.5765720000000  0.4204510000000  0.4516100000000 1.0
C      1  0.5703520000000  0.4174070000000  0.5535500000000 1.0
C      1  0.4750410000000  0.5875980000000  0.5721930000000 1.0
C      1  0.4322250000000  0.5755750000000  0.4899400000000 1.0
C      1  0.4830020000000  0.5675370000000  0.4168000000000 1.0
C      1  0.5784530000000  0.5794960000000  0.4470770000000 1.0
C      1  0.5568710000000  0.5780330000000  0.5539100000000 1.0
C      1  0.4632360000000  0.5320640000000  0.4989440000000 1.0
C      1  0.4912840000000  0.5332800000000  0.4687870000000 1.0
C      1  0.5271610000000  0.5322370000000  0.4865820000000 1.0
C      1  0.5214430000000  0.5293120000000  0.5259670000000 1.0
C      1  0.4830290000000  0.5301140000000  0.5332630000000 1.0
C      1  0.4643130000000  0.4699610000000  0.4966690000000 1.0
C      1  0.4915650000000  0.4707780000000  0.4673890000000 1.0
C      1  0.5276120000000  0.4697710000000  0.4839280000000 1.0
C      1  0.5234030000000  0.4670130000000  0.5234120000000 1.0
C      1  0.4835730000000  0.4673480000000  0.5315480000000 1.0
C      1  0.4230960000000  0.4430260000000  0.4757700000000 1.0
C      1  0.5080810000000  0.4465030000000  0.4140240000000 1.0
C      1  0.5803730000000  0.4432170000000  0.4736700000000 1.0
C      1  0.5543560000000  0.4417470000000  0.5668990000000 1.0
C      1  0.4537810000000  0.4437990000000  0.5737790000000 1.0
C      1  0.4150370000000  0.5555130000000  0.4759900000000 1.0
C      1  0.5082050000000  0.5583330000000  0.4089700000000 1.0
C      1  0.5784020000000  0.5593010000000  0.4723630000000 1.0
C      1  0.5478830000000  0.5553500000000  0.5776080000000 1.0
C      1  0.4522280000000  0.5624240000000  0.5707900000000 1.0
C      1  0.4907450000000  0.4405330000000  0.5512220000000 1.0
C      1  0.4484990000000  0.4440070000000  0.5119270000000 1.0
C      1  0.4787230000000  0.4429500000000  0.4521590000000 1.0
C      1  0.5354720000000  0.4433110000000  0.4646350000000 1.0
C      1  0.5433370000000  0.4394610000000  0.5244830000000 1.0
C      1  0.4914570000000  0.5574470000000  0.5517400000000 1.0
C      1  0.4519160000000  0.5598810000000  0.5093280000000 1.0
C      1  0.4838190000000  0.5607450000000  0.4501180000000 1.0
C      1  0.5403910000000  0.5750830000000  0.4592350000000 1.0
C      1  0.5342480000000  0.5571000000000  0.5408710000000 1.0
C      1  0.4262300000000  0.4734450000000  0.4608910000000 1.0
C      1  0.5117620000000  0.4768760000000  0.4178600000000 1.0
C      1  0.5790880000000  0.4746620000000  0.4865520000000 1.0
C      1  0.5439450000000  0.4724910000000  0.5773100000000 1.0
C      1  0.4389390000000  0.4734960000000  0.5650320000000 1.0
C      1  0.4257670000000  0.5250690000000  0.4652910000000 1.0
C      1  0.5087700000000  0.5280070000000  0.4123430000000 1.0
C      1  0.5809190000000  0.5273290000000  0.4842080000000 1.0
C      1  0.5378440000000  0.5224720000000  0.5796950000000 1.0
C      1  0.4467420000000  0.5321130000000  0.5563500000000 1.0
C      1  0.5128750000000  0.5384400000000  0.6063920000000 1.0
C      1  0.4117880000000  0.5483520000000  0.5460770000000 1.0
C      1  0.4368000000000  0.5474810000000  0.4340920000000 1.0
C      1  0.5465780000000  0.5480590000000  0.4123220000000 1.0
C      1  0.5863520000000  0.5507070000000  0.5156260000000 1.0
C      1  0.5146000000000  0.4523150000000  0.5953270000000 1.0
C      1  0.4116050000000  0.4521310000000  0.5458780000000 1.0
C      1  0.4312030000000  0.4532250000000  0.4268640000000 1.0
C      1  0.5475470000000  0.4521940000000  0.4124410000000 1.0
C      1  0.5963060000000  0.4525900000000  0.5147840000000 1.0
C      1  0.5924280000000  0.5169570000000  0.5110070000000 1.0
C      1  0.5280490000000  0.5125980000000  0.6107210000000 1.0
C      1  0.4035210000000  0.5152900000000  0.5491910000000 1.0
C      1  0.4275610000000  0.5146800000000  0.4333020000000 1.0
C      1  0.5376810000000  0.5152960000000  0.4115850000000 1.0
C      1  0.6007750000000  0.4866380000000  0.5113840000000 1.0
C      1  0.5236120000000  0.4841180000000  0.5997240000000 1.0
C      1  0.4127970000000  0.4859610000000  0.5500300000000 1.0
C      1  0.4180450000000  0.4846890000000  0.4298470000000 1.0
C      1  0.5435200000000  0.4854420000000  0.4065420000000 1.0
C      1  0.4646350000000  0.4684940000000  0.5944240000000 1.0
C      1  0.4040690000000  0.4634890000000  0.4925770000000 1.0
C      1  0.4684380000000  0.4741200000000  0.3911550000000 1.0
C      1  0.5856980000000  0.4653340000000  0.4483980000000 1.0
C      1  0.5805360000000  0.4634050000000  0.5656540000000 1.0
C      1  0.4594300000000  0.5408840000000  0.5929880000000 1.0
C      1  0.3973010000000  0.5353380000000  0.4912780000000 1.0
C      1  0.4661160000000  0.5254860000000  0.3926810000000 1.0
C      1  0.5812850000000  0.5373600000000  0.4464370000000 1.0
C      1  0.5721300000000  0.5355570000000  0.5643050000000 1.0
C      1  0.4768930000000  0.4338710000000  0.5076970000000 1.0
C      1  0.4823850000000  0.4289230000000  0.4799090000000 1.0
C      1  0.5125650000000  0.4329530000000  0.4827180000000 1.0
C      1  0.5220740000000  0.4231020000000  0.5098470000000 1.0
C      1  0.4978130000000  0.4312940000000  0.5221070000000 1.0
C      1  0.4815110000000  0.5668440000000  0.5051060000000 1.0
C      1  0.4927780000000  0.5719480000000  0.4788570000000 1.0
C      1  0.5213790000000  0.5626390000000  0.4802540000000 1.0
C      1  0.5326200000000  0.5640980000000  0.5100480000000 1.0
C      1  0.5007200000000  0.5645940000000  0.5219640000000 1.0
C      1  0.4514220000000  0.5689970000000  0.4482190000000 1.0
C      1  0.5320900000000  0.5752670000000  0.4262610000000 1.0
C      1  0.5643690000000  0.5719250000000  0.5006780000000 1.0
C      1  0.5138230000000  0.5565450000000  0.5777910000000 1.0
C      1  0.4391300000000  0.5676820000000  0.5398510000000 1.0
C      1  0.4448490000000  0.4398380000000  0.4498010000000 1.0
C      1  0.5307480000000  0.4316820000000  0.4337320000000 1.0
C      1  0.5702210000000  0.4332940000000  0.5045770000000 1.0
C      1  0.5203460000000  0.4416600000000  0.5680550000000 1.0
C      1  0.4402420000000  0.4353450000000  0.5437540000000 1.0
C      1  0.4926070000000  0.4757160000000  0.5899070000000 1.0
C      1  0.4141220000000  0.4725470000000  0.5196530000000 1.0
C      1  0.4456140000000  0.4783170000000  0.4109880000000 1.0
C      1  0.5632470000000  0.4736140000000  0.4316030000000 1.0
C      1  0.5872040000000  0.4725510000000  0.5391980000000 1.0
C      1  0.4853910000000  0.5340760000000  0.5946490000000 1.0
C      1  0.4054910000000  0.5299510000000  0.5185740000000 1.0
C      1  0.4571560000000  0.5240070000000  0.4225230000000 1.0
C      1  0.5546390000000  0.5282740000000  0.4369500000000 1.0
C      1  0.5745680000000  0.5273030000000  0.5358770000000 1.0
C      1  0.5447700000000  0.4802720000000  0.5450560000000 1.0
C      1  0.4683040000000  0.4832130000000  0.5574780000000 1.0
C      1  0.4368170000000  0.4858940000000  0.4900720000000 1.0
C      1  0.4878380000000  0.4881290000000  0.4392470000000 1.0
C      1  0.5526130000000  0.4857590000000  0.4715610000000 1.0
C      1  0.5400540000000  0.5122300000000  0.5484250000000 1.0
C      1  0.4726870000000  0.5150060000000  0.5619120000000 1.0
C      1  0.4356170000000  0.5173640000000  0.4955040000000 1.0
C      1  0.4873250000000  0.5198740000000  0.4376860000000 1.0
C      1  0.5537830000000  0.5176510000000  0.4754400000000 1.0
C      1  0.3953820000000  0.5113870000000  0.4730940000000 1.0
C      1  0.4913920000000  0.5145820000000  0.3910000000000 1.0
C      1  0.5990320000000  0.5148500000000  0.4598370000000 1.0
C      1  0.5700100000000  0.5125480000000  0.5845210000000 1.0
C      1  0.4418390000000  0.5181460000000  0.5871020000000 1.0
C      1  0.3955850000000  0.4842900000000  0.4716890000000 1.0
C      1  0.4925290000000  0.4870980000000  0.3930610000000 1.0
C      1  0.6003800000000  0.4877060000000  0.4626260000000 1.0
C      1  0.5728970000000  0.4855320000000  0.5853710000000 1.0
C      1  0.4439360000000  0.4916050000000  0.5920630000000 1.0
C      1  0.5028740000000  0.6073720000000  0.4639010000000 1.0
C      1  0.5217350000000  0.6094680000000  0.4873520000000 1.0
C      1  0.5066430000000  0.6178750000000  0.5108000000000 1.0
C      1  0.4808970000000  0.6045920000000  0.5180160000000 1.0
C      1  0.4766500000000  0.6006920000000  0.4844970000000 1.0
C      1  0.5018850000000  0.3964740000000  0.4682420000000 1.0
C      1  0.5253980000000  0.3959890000000  0.4905090000000 1.0
C      1  0.5077400000000  0.3868950000000  0.5181500000000 1.0
C      1  0.4798850000000  0.3956760000000  0.5191430000000 1.0
C      1  0.4738900000000  0.3985580000000  0.4874600000000 1.0
C      1  0.5456920000000  0.5942510000000  0.4830820000000 1.0
C      1  0.5246330000000  0.5868420000000  0.5548400000000 1.0
C      1  0.4702740000000  0.5818390000000  0.5409630000000 1.0
C      1  0.4494120000000  0.5932520000000  0.4720460000000 1.0
C      1  0.5052530000000  0.5864400000000  0.4439110000000 1.0
C      1  0.5497110000000  0.4183070000000  0.4819610000000 1.0
C      1  0.5308270000000  0.4181870000000  0.5479400000000 1.0
C      1  0.4682610000000  0.4160780000000  0.5437620000000 1.0
C      1  0.4449500000000  0.3997050000000  0.4792870000000 1.0
C      1  0.5021440000000  0.4188060000000  0.4468660000000 1.0
C      1  0.5263060000000  0.5004310000000  0.4985980000000 1.0
C      1  0.4733210000000  0.5015480000000  0.4878380000000 1.0
C      1  0.5092230000000  0.4976110000000  0.5278650000000 1.0
C      1  0.4758020000000  0.4989600000000  0.5216610000000 1.0
C      1  0.5039270000000  0.5019820000000  0.4730190000000 1.0
C      1  0.4970370000000  0.5301340000000  0.5022300000000 1.0
C      1  0.4980590000000  0.4687740000000  0.5007620000000 1.0
END
