TITL C-2622968-4806-359 0.00139586366489093 125000 -547.582914094851 0 0 100 (C1) n - 1
REM
REM in /nfs/bkarasulu/CARBON/AIRSS/Generating-Clusters/AIREBO/with-SteepDescent/Higher-Symm/SD-CG/HFTN-CG
REM
REM
REM
REM
REM
REM ./C.cell (b20cbc046b6831c77cfcea5457e17084)
REM
REM compiler GCC version 9.2.1 20190827 (Red Hat 9.2.1-1)
REM options -cpp -mtune=generic -march=x86-64 -g -O0 -fpre-include=/usr/include/finclude/math-vector-fortran.h
REM seed -1895457004 425391930 39749614 -1975583327 -2040006768 718210341 -57434856 -1147259877 -1382208023 580166408 1611407522 839194916 -1812720017 1611335621 806021849 1026140035 345282674 14024614 907167423 1318541803 -2121482785 -167471597 -2089970757 1901437423 1303781998 93379377 552965665 1062308432 -532576916 -1723983078 701430193 2005375012 558426502
REM
CELL 1.54180   50.00000   50.00000   50.00000   90.00000   90.00000   90.00000
LATT -1
SFAC C  
C      1  0.5134440000000  0.4665900000000  0.5515030000000 1.0
C      1  0.5096780000000  0.5058400000000  0.5622750000000 1.0
C      1  0.4904710000000  0.5626390000000  0.5356130000000 1.0
C      1  0.5041120000000  0.5615570000000  0.4704150000000 1.0
C      1  0.4957210000000  0.5078460000000  0.4315730000000 1.0
C      1  0.4876550000000  0.4480420000000  0.4504200000000 1.0
C      1  0.5002430000000  0.4197320000000  0.5136860000000 1.0
C      1  0.4779270000000  0.5824880000000  0.4990740000000 1.0
C      1  0.4791040000000  0.5452130000000  0.4313820000000 1.0
C      1  0.4900550000000  0.4855250000000  0.4094480000000 1.0
C      1  0.4897190000000  0.4183750000000  0.4667630000000 1.0
C      1  0.4954840000000  0.4168490000000  0.5413420000000 1.0
C      1  0.4922650000000  0.4736510000000  0.5771710000000 1.0
C      1  0.4924650000000  0.5531040000000  0.5797920000000 1.0
C      1  0.5220090000000  0.4397840000000  0.5086140000000 1.0
C      1  0.5440020000000  0.4814200000000  0.5497330000000 1.0
C      1  0.5248250000000  0.5318340000000  0.5464290000000 1.0
C      1  0.5276000000000  0.5619650000000  0.5027550000000 1.0
C      1  0.5284760000000  0.5342560000000  0.4552760000000 1.0
C      1  0.5261710000000  0.4968210000000  0.4419620000000 1.0
C      1  0.5331610000000  0.4518060000000  0.4722460000000 1.0
C      1  0.5375410000000  0.5620500000000  0.4699520000000 1.0
C      1  0.5442470000000  0.4911740000000  0.4180830000000 1.0
C      1  0.5671030000000  0.4325840000000  0.4301370000000 1.0
C      1  0.5488040000000  0.4230640000000  0.5162410000000 1.0
C      1  0.5718980000000  0.4710560000000  0.5981830000000 1.0
C      1  0.5246360000000  0.5146000000000  0.5915560000000 1.0
C      1  0.5705630000000  0.5925690000000  0.5282800000000 1.0
C      1  0.5817570000000  0.5095050000000  0.5316600000000 1.0
C      1  0.5943910000000  0.5289300000000  0.5151420000000 1.0
C      1  0.5855010000000  0.5285730000000  0.4879370000000 1.0
C      1  0.5975210000000  0.5096850000000  0.4703620000000 1.0
C      1  0.5888000000000  0.4833770000000  0.4774170000000 1.0
C      1  0.6008900000000  0.4748610000000  0.5019230000000 1.0
C      1  0.5870700000000  0.4827290000000  0.5253080000000 1.0
C      1  0.5480900000000  0.4354120000000  0.4466030000000 1.0
C      1  0.5661300000000  0.4358150000000  0.5294370000000 1.0
C      1  0.5593480000000  0.4759750000000  0.5765120000000 1.0
C      1  0.5358780000000  0.5039020000000  0.6133360000000 1.0
C      1  0.5525040000000  0.5794530000000  0.5159030000000 1.0
C      1  0.5579310000000  0.5795920000000  0.4571700000000 1.0
C      1  0.5604040000000  0.4847350000000  0.3994080000000 1.0
C      1  0.5166930000000  0.4306620000000  0.4532630000000 1.0
C      1  0.4943110000000  0.3933890000000  0.5543390000000 1.0
C      1  0.4905030000000  0.4591200000000  0.5988730000000 1.0
C      1  0.5179630000000  0.5408700000000  0.5785220000000 1.0
C      1  0.5043710000000  0.5864500000000  0.5068790000000 1.0
C      1  0.5061550000000  0.5464120000000  0.4332100000000 1.0
C      1  0.5054690000000  0.4856880000000  0.3867840000000 1.0
C      1  0.4290350000000  0.4697390000000  0.5132880000000 1.0
C      1  0.4331530000000  0.5005990000000  0.5277240000000 1.0
C      1  0.4386120000000  0.5316770000000  0.5269590000000 1.0
C      1  0.4313580000000  0.5504980000000  0.5026710000000 1.0
C      1  0.4315790000000  0.5132930000000  0.4694810000000 1.0
C      1  0.4158870000000  0.4868660000000  0.4640950000000 1.0
C      1  0.4215930000000  0.4666470000000  0.4827920000000 1.0
C      1  0.4811760000000  0.4178940000000  0.4934150000000 1.0
C      1  0.4900220000000  0.4419690000000  0.5531200000000 1.0
C      1  0.4796320000000  0.5037660000000  0.5746380000000 1.0
C      1  0.4941320000000  0.5732720000000  0.5601900000000 1.0
C      1  0.4786100000000  0.5731620000000  0.4726850000000 1.0
C      1  0.4675890000000  0.5206190000000  0.4195020000000 1.0
C      1  0.4691190000000  0.4689330000000  0.4142020000000 1.0
C      1  0.4607280000000  0.4750430000000  0.5145260000000 1.0
C      1  0.4698690000000  0.4848010000000  0.5410560000000 1.0
C      1  0.4682210000000  0.5386720000000  0.5121060000000 1.0
C      1  0.4546420000000  0.5429930000000  0.4823850000000 1.0
C      1  0.4646190000000  0.5189490000000  0.4637020000000 1.0
C      1  0.4765040000000  0.4873290000000  0.4598080000000 1.0
C      1  0.4811870000000  0.4577340000000  0.4962340000000 1.0
C      1  0.5061100000000  0.4764010000000  0.4537950000000 1.0
C      1  0.5090530000000  0.4689480000000  0.4849690000000 1.0
C      1  0.5117700000000  0.4710800000000  0.5178360000000 1.0
C      1  0.4978760000000  0.4978970000000  0.5323120000000 1.0
C      1  0.4992020000000  0.5313610000000  0.5240690000000 1.0
C      1  0.5091290000000  0.5355950000000  0.4917890000000 1.0
C      1  0.4980910000000  0.5210310000000  0.4628990000000 1.0
C      1  0.5623430000000  0.4670360000000  0.5289310000000 1.0
C      1  0.5498930000000  0.5127810000000  0.5376910000000 1.0
C      1  0.5438490000000  0.5334040000000  0.5115050000000 1.0
C      1  0.5576770000000  0.5264350000000  0.4874210000000 1.0
C      1  0.5438790000000  0.5066150000000  0.4677400000000 1.0
C      1  0.5601990000000  0.4803680000000  0.4770560000000 1.0
C      1  0.5482910000000  0.4600480000000  0.5011660000000 1.0
C      1  0.4517030000000  0.5070940000000  0.5555230000000 1.0
C      1  0.4510670000000  0.5490730000000  0.5509630000000 1.0
C      1  0.4292120000000  0.5787300000000  0.5117490000000 1.0
C      1  0.4332290000000  0.5375880000000  0.4477090000000 1.0
C      1  0.4338990000000  0.4869280000000  0.4396370000000 1.0
C      1  0.4415890000000  0.4486250000000  0.4720490000000 1.0
C      1  0.4433500000000  0.4422410000000  0.5281600000000 1.0
C      1  0.4682280000000  0.5346840000000  0.5729220000000 1.0
C      1  0.4593530000000  0.5691680000000  0.5242540000000 1.0
C      1  0.4589170000000  0.5580650000000  0.4523240000000 1.0
C      1  0.4424550000000  0.5130380000000  0.4309940000000 1.0
C      1  0.4574270000000  0.4630880000000  0.4455080000000 1.0
C      1  0.4563880000000  0.4364720000000  0.4972880000000 1.0
C      1  0.4647560000000  0.4527260000000  0.5471890000000 1.0
C      1  0.4717000000000  0.4897760000000  0.4896620000000 1.0
C      1  0.4453400000000  0.5068930000000  0.4966030000000 1.0
END
