TITL C-2622958-629-36 -0.000150959862691137 125000 -173.454967597375 0 0 36 (C1) n - 1
REM
REM in /nfs/bkarasulu/CARBON/AIRSS/Generating-Clusters/AIREBO/with-SteepDescent/Higher-Symm/SD-CG/HFTN-CG
REM
REM
REM
REM
REM
REM ./C.cell (b20cbc046b6831c77cfcea5457e17084)
REM
REM compiler GCC version 9.2.1 20190827 (Red Hat 9.2.1-1)
REM options -cpp -mtune=generic -march=x86-64 -g -O0 -fpre-include=/usr/include/finclude/math-vector-fortran.h
REM seed 273367027 -929209056 -593019626 -1042707427 92973933 -801335644 2001306530 -188129460 1037808856 908941000 1138290137 -1547894905 -1872686716 97259007 -1415337176 -1960053872 579043485 1985898505 429977029 -542869685 -1622927048 1368550892 -1032131141 -2024376970 1983134476 851874205 -1635603723 1757164747 2047664534 -1227084664 96157871 -168933531 -1953378089
REM
CELL 1.54180   50.00000   50.00000   50.00000   90.00000   90.00000   90.00000
LATT -1
SFAC C  
C      1  0.5685210000000  0.4789270000000  0.4840080000000 1.0
C      1  0.5784210000000  0.4995360000000  0.5091880000000 1.0
C      1  0.5634230000000  0.5115280000000  0.4821900000000 1.0
C      1  0.4324370000000  0.4789350000000  0.4852130000000 1.0
C      1  0.4206470000000  0.4997910000000  0.5093450000000 1.0
C      1  0.4369300000000  0.5117180000000  0.4831410000000 1.0
C      1  0.5393190000000  0.4721920000000  0.4959190000000 1.0
C      1  0.5521920000000  0.5112870000000  0.5246430000000 1.0
C      1  0.5311740000000  0.5140100000000  0.4757870000000 1.0
C      1  0.4613300000000  0.4729110000000  0.4982240000000 1.0
C      1  0.4458830000000  0.5121800000000  0.5257690000000 1.0
C      1  0.4693680000000  0.5149170000000  0.4780490000000 1.0
C      1  0.5227050000000  0.5308980000000  0.4521770000000 1.0
C      1  0.5438210000000  0.4515270000000  0.5203890000000 1.0
C      1  0.5598400000000  0.5249520000000  0.5508190000000 1.0
C      1  0.4781370000000  0.5317200000000  0.4544880000000 1.0
C      1  0.4568910000000  0.4529630000000  0.5235400000000 1.0
C      1  0.4367940000000  0.5259360000000  0.5514410000000 1.0
C      1  0.5154880000000  0.4698980000000  0.4492510000000 1.0
C      1  0.5117160000000  0.4853840000000  0.5435250000000 1.0
C      1  0.5116840000000  0.5440540000000  0.5147820000000 1.0
C      1  0.4888860000000  0.4719740000000  0.4544560000000 1.0
C      1  0.4878400000000  0.4899850000000  0.5447590000000 1.0
C      1  0.4875130000000  0.5430790000000  0.5186480000000 1.0
C      1  0.4189180000000  0.4620530000000  0.4648710000000 1.0
C      1  0.3961280000000  0.4923800000000  0.5244230000000 1.0
C      1  0.4416310000000  0.5432950000000  0.4824550000000 1.0
C      1  0.5831440000000  0.4626970000000  0.4639200000000 1.0
C      1  0.6022940000000  0.4923480000000  0.5253890000000 1.0
C      1  0.5580850000000  0.5429210000000  0.4816740000000 1.0
C      1  0.4620190000000  0.4860780000000  0.5295590000000 1.0
C      1  0.4621510000000  0.5310640000000  0.5070870000000 1.0
C      1  0.4822130000000  0.4869480000000  0.4806220000000 1.0
C      1  0.5371930000000  0.4842300000000  0.5274540000000 1.0
C      1  0.5367720000000  0.5300120000000  0.5052590000000 1.0
C      1  0.5184940000000  0.4856720000000  0.4775370000000 1.0
END
