TITL C-2622961-1971-542 0.000725731584162148 125000 -632.259387895121 0 0 119 (C1) n - 1
REM
REM in /nfs/bkarasulu/CARBON/AIRSS/Generating-Clusters/AIREBO/with-SteepDescent/Higher-Symm/SD-CG/HFTN-CG
REM
REM
REM
REM
REM
REM ./C.cell (b20cbc046b6831c77cfcea5457e17084)
REM
REM compiler GCC version 9.2.1 20190827 (Red Hat 9.2.1-1)
REM options -cpp -mtune=generic -march=x86-64 -g -O0 -fpre-include=/usr/include/finclude/math-vector-fortran.h
REM seed -1499304583 -1357140244 -1123405842 862004324 1477110017 -942471294 -585719400 -1957069328 -563662306 -146118093 607557043 835727500 674741404 -1929468660 -910228482 -1468577739 -962755390 962036700 1596167170 -1700151944 532311426 1070613804 -275120462 545552690 490033925 1809857385 -1095530621 1601884227 -1582918280 1777189333 -2108509717 1482508785 -713011500
REM
CELL 1.54180   50.00000   50.00000   50.00000   90.00000   90.00000   90.00000
LATT -1
SFAC C  
C      1  0.5279710000000  0.4232250000000  0.4626060000000 1.0
C      1  0.5213320000000  0.5847040000000  0.5352070000000 1.0
C      1  0.5174310000000  0.4274250000000  0.5354480000000 1.0
C      1  0.5197700000000  0.5730100000000  0.4678570000000 1.0
C      1  0.5768420000000  0.4750590000000  0.4678170000000 1.0
C      1  0.5636500000000  0.5245670000000  0.5387280000000 1.0
C      1  0.5726760000000  0.4728170000000  0.5337400000000 1.0
C      1  0.5718110000000  0.5259420000000  0.4735980000000 1.0
C      1  0.4528940000000  0.5388650000000  0.5727640000000 1.0
C      1  0.4467800000000  0.4485590000000  0.4244220000000 1.0
C      1  0.4486050000000  0.5404360000000  0.4311340000000 1.0
C      1  0.4519720000000  0.4580830000000  0.5650410000000 1.0
C      1  0.5270960000000  0.4565000000000  0.4697050000000 1.0
C      1  0.5190630000000  0.5291390000000  0.5294550000000 1.0
C      1  0.5244880000000  0.4602110000000  0.5322100000000 1.0
C      1  0.5217530000000  0.5397260000000  0.4666610000000 1.0
C      1  0.5603480000000  0.4511220000000  0.5472340000000 1.0
C      1  0.5604130000000  0.5473670000000  0.4600210000000 1.0
C      1  0.5638880000000  0.4550860000000  0.4525360000000 1.0
C      1  0.5484960000000  0.5458980000000  0.5500930000000 1.0
C      1  0.4242940000000  0.5742300000000  0.5498320000000 1.0
C      1  0.4233790000000  0.4721880000000  0.4602640000000 1.0
C      1  0.4094020000000  0.5491950000000  0.4575460000000 1.0
C      1  0.4086470000000  0.4599440000000  0.5374820000000 1.0
C      1  0.5031050000000  0.4800270000000  0.5191340000000 1.0
C      1  0.5018160000000  0.5160660000000  0.4774590000000 1.0
C      1  0.5009110000000  0.4767430000000  0.4710830000000 1.0
C      1  0.4954750000000  0.5130810000000  0.5247380000000 1.0
C      1  0.4737450000000  0.4775280000000  0.4503590000000 1.0
C      1  0.4728130000000  0.5145300000000  0.5480630000000 1.0
C      1  0.4796370000000  0.4821420000000  0.5436550000000 1.0
C      1  0.4725910000000  0.5077370000000  0.4621930000000 1.0
C      1  0.4490270000000  0.4549590000000  0.4564200000000 1.0
C      1  0.4431250000000  0.5529900000000  0.5446170000000 1.0
C      1  0.4418800000000  0.4545110000000  0.5327600000000 1.0
C      1  0.4389890000000  0.5463630000000  0.4622180000000 1.0
C      1  0.4400500000000  0.4899100000000  0.4983530000000 1.0
C      1  0.4453840000000  0.5210950000000  0.5358000000000 1.0
C      1  0.4482880000000  0.4878770000000  0.5313000000000 1.0
C      1  0.4422690000000  0.5154290000000  0.4759530000000 1.0
C      1  0.5339090000000  0.4634210000000  0.5647290000000 1.0
C      1  0.5400500000000  0.5349020000000  0.4390200000000 1.0
C      1  0.5382380000000  0.4699950000000  0.4405520000000 1.0
C      1  0.5202930000000  0.5359830000000  0.5608560000000 1.0
C      1  0.4426390000000  0.5735860000000  0.4803720000000 1.0
C      1  0.4406160000000  0.4283760000000  0.5110410000000 1.0
C      1  0.4436140000000  0.5699670000000  0.5084460000000 1.0
C      1  0.4414100000000  0.4327450000000  0.4816960000000 1.0
C      1  0.5224350000000  0.3956240000000  0.4744620000000 1.0
C      1  0.5201200000000  0.6089000000000  0.5205400000000 1.0
C      1  0.5235780000000  0.3991170000000  0.5211810000000 1.0
C      1  0.5209310000000  0.6045510000000  0.4702500000000 1.0
C      1  0.4670390000000  0.4710940000000  0.5799700000000 1.0
C      1  0.4539390000000  0.5245440000000  0.4131410000000 1.0
C      1  0.4527290000000  0.4662310000000  0.4074720000000 1.0
C      1  0.4685980000000  0.5254930000000  0.5861860000000 1.0
C      1  0.3953300000000  0.4691710000000  0.5148640000000 1.0
C      1  0.4153550000000  0.5211470000000  0.4959600000000 1.0
C      1  0.4144070000000  0.4714620000000  0.4886950000000 1.0
C      1  0.4221230000000  0.5351180000000  0.5185880000000 1.0
C      1  0.5013610000000  0.5590850000000  0.5661560000000 1.0
C      1  0.5119120000000  0.4562790000000  0.4291960000000 1.0
C      1  0.5386350000000  0.5481780000000  0.4133970000000 1.0
C      1  0.5293070000000  0.4441720000000  0.5860200000000 1.0
C      1  0.4735930000000  0.4473320000000  0.5255790000000 1.0
C      1  0.4715660000000  0.5462100000000  0.4719820000000 1.0
C      1  0.4779940000000  0.4430940000000  0.4696940000000 1.0
C      1  0.4682910000000  0.5507610000000  0.5218430000000 1.0
C      1  0.4861300000000  0.5109390000000  0.4324650000000 1.0
C      1  0.5062520000000  0.4833090000000  0.5647900000000 1.0
C      1  0.5151950000000  0.5127880000000  0.5791820000000 1.0
C      1  0.4894390000000  0.4727780000000  0.4216800000000 1.0
C      1  0.5495020000000  0.5664300000000  0.4772830000000 1.0
C      1  0.5507060000000  0.4301170000000  0.5300030000000 1.0
C      1  0.5446750000000  0.5684030000000  0.5320490000000 1.0
C      1  0.5581080000000  0.4316660000000  0.4679950000000 1.0
C      1  0.4646000000000  0.4119310000000  0.4721070000000 1.0
C      1  0.4644410000000  0.5901260000000  0.5162520000000 1.0
C      1  0.4591000000000  0.4078750000000  0.5187960000000 1.0
C      1  0.4647200000000  0.5892130000000  0.4733670000000 1.0
C      1  0.4791370000000  0.4128240000000  0.4437070000000 1.0
C      1  0.4711330000000  0.5969220000000  0.5434430000000 1.0
C      1  0.4694470000000  0.4039160000000  0.5467060000000 1.0
C      1  0.4759610000000  0.5867430000000  0.4453000000000 1.0
C      1  0.4907410000000  0.5701920000000  0.5386860000000 1.0
C      1  0.5025150000000  0.4345330000000  0.4474880000000 1.0
C      1  0.4903770000000  0.5628270000000  0.4582130000000 1.0
C      1  0.4873500000000  0.4267820000000  0.5398620000000 1.0
C      1  0.5096380000000  0.3938270000000  0.4982370000000 1.0
C      1  0.5083870000000  0.6064090000000  0.4952410000000 1.0
C      1  0.4254810000000  0.4986620000000  0.4521550000000 1.0
C      1  0.4219210000000  0.4825760000000  0.5529580000000 1.0
C      1  0.6049500000000  0.4781760000000  0.5032150000000 1.0
C      1  0.6021500000000  0.5282800000000  0.5053970000000 1.0
C      1  0.5541660000000  0.4892730000000  0.5716860000000 1.0
C      1  0.5442170000000  0.5011550000000  0.4390410000000 1.0
C      1  0.5567630000000  0.5640940000000  0.5055850000000 1.0
C      1  0.5582910000000  0.4381260000000  0.4985610000000 1.0
C      1  0.5731510000000  0.4664310000000  0.5005000000000 1.0
C      1  0.5622950000000  0.5306560000000  0.5059020000000 1.0
C      1  0.5003970000000  0.5531140000000  0.4985250000000 1.0
C      1  0.5003080000000  0.4326390000000  0.5000240000000 1.0
C      1  0.4841810000000  0.4624490000000  0.4970050000000 1.0
C      1  0.4783360000000  0.5272340000000  0.4993900000000 1.0
C      1  0.4847590000000  0.4989960000000  0.5859560000000 1.0
C      1  0.4666530000000  0.4954340000000  0.4105470000000 1.0
C      1  0.5426570000000  0.5050530000000  0.5908340000000 1.0
C      1  0.5130760000000  0.5103540000000  0.4289460000000 1.0
C      1  0.4814660000000  0.4070030000000  0.4982130000000 1.0
C      1  0.4876680000000  0.5845660000000  0.4957830000000 1.0
C      1  0.5688460000000  0.5011790000000  0.4606830000000 1.0
C      1  0.5671090000000  0.4975200000000  0.5473780000000 1.0
C      1  0.5276030000000  0.4473320000000  0.5024000000000 1.0
C      1  0.5291780000000  0.5349450000000  0.4995050000000 1.0
C      1  0.5211380000000  0.4928900000000  0.4931410000000 1.0
C      1  0.4713700000000  0.4939090000000  0.4992840000000 1.0
C      1  0.5838390000000  0.5043990000000  0.5050270000000 1.0
C      1  0.3993940000000  0.4986030000000  0.4997810000000 1.0
C      1  0.5527350000000  0.4933200000000  0.4963930000000 1.0
END
