TITL C-2622957-9142-714 0.00027794076275592 125000 -314.744836999088 0 0 58 (C1) n - 1
REM
REM in /nfs/bkarasulu/CARBON/AIRSS/Generating-Clusters/AIREBO/with-SteepDescent/Higher-Symm/SD-CG/HFTN-CG
REM
REM
REM
REM
REM
REM ./C.cell (b20cbc046b6831c77cfcea5457e17084)
REM
REM compiler GCC version 9.2.1 20190827 (Red Hat 9.2.1-1)
REM options -cpp -mtune=generic -march=x86-64 -g -O0 -fpre-include=/usr/include/finclude/math-vector-fortran.h
REM seed -1735246928 1040063120 -1541845862 -1847099838 1670438141 -879855943 1358510114 492565288 -1325111192 -1066170332 1859120273 1630205698 1887467373 -1769149270 -1289542240 378773747 -1972457221 -1337448057 320671765 -885417371 1320631294 358004231 690779181 929696040 -684096875 -1294541204 882815173 -840736017 125690682 714775448 -993172955 85861406 -69973599
REM
CELL 1.54180   50.00000   50.00000   50.00000   90.00000   90.00000   90.00000
LATT -1
SFAC C  
C      1  0.5571560000000  0.5453620000000  0.4929720000000 1.0
C      1  0.5503690000000  0.4784520000000  0.5351430000000 1.0
C      1  0.5468520000000  0.4773120000000  0.4700680000000 1.0
C      1  0.4157260000000  0.5092630000000  0.5680430000000 1.0
C      1  0.4159980000000  0.4336680000000  0.4533890000000 1.0
C      1  0.4191200000000  0.5601240000000  0.4688770000000 1.0
C      1  0.5231660000000  0.4334920000000  0.5046210000000 1.0
C      1  0.5326020000000  0.5264170000000  0.4492380000000 1.0
C      1  0.5355710000000  0.5347290000000  0.5422360000000 1.0
C      1  0.5116500000000  0.4708710000000  0.5393860000000 1.0
C      1  0.5147540000000  0.4909120000000  0.4505220000000 1.0
C      1  0.5208290000000  0.5582830000000  0.5136160000000 1.0
C      1  0.5285140000000  0.4019340000000  0.4665480000000 1.0
C      1  0.4983980000000  0.5782410000000  0.4633430000000 1.0
C      1  0.5025640000000  0.4603020000000  0.5856220000000 1.0
C      1  0.4436370000000  0.4703410000000  0.4809010000000 1.0
C      1  0.4395410000000  0.5195240000000  0.4853570000000 1.0
C      1  0.4412430000000  0.4885100000000  0.5273930000000 1.0
C      1  0.5428460000000  0.5160580000000  0.5658190000000 1.0
C      1  0.5294270000000  0.4275210000000  0.4760260000000 1.0
C      1  0.5450050000000  0.5543610000000  0.4481710000000 1.0
C      1  0.4814240000000  0.4699310000000  0.4999960000000 1.0
C      1  0.4791250000000  0.5033920000000  0.4635250000000 1.0
C      1  0.4813440000000  0.5161010000000  0.5114900000000 1.0
C      1  0.4358810000000  0.5085400000000  0.5499110000000 1.0
C      1  0.4283800000000  0.4521070000000  0.4673010000000 1.0
C      1  0.4386540000000  0.5416470000000  0.4677670000000 1.0
C      1  0.5758140000000  0.4937790000000  0.4770190000000 1.0
C      1  0.5669110000000  0.5139760000000  0.5018510000000 1.0
C      1  0.5658620000000  0.4801270000000  0.5057900000000 1.0
C      1  0.5072980000000  0.5233660000000  0.5270610000000 1.0
C      1  0.5065340000000  0.4597250000000  0.5097940000000 1.0
C      1  0.5048280000000  0.5249970000000  0.4688960000000 1.0
C      1  0.5009880000000  0.4556590000000  0.5592490000000 1.0
C      1  0.5073650000000  0.5129280000000  0.4310520000000 1.0
C      1  0.5119750000000  0.5598600000000  0.5420600000000 1.0
C      1  0.4911350000000  0.5529670000000  0.4567870000000 1.0
C      1  0.4879660000000  0.5172520000000  0.5531260000000 1.0
C      1  0.4960600000000  0.4226120000000  0.5196910000000 1.0
C      1  0.4675230000000  0.4392680000000  0.5214750000000 1.0
C      1  0.4603730000000  0.5432370000000  0.4506810000000 1.0
C      1  0.4589170000000  0.5299250000000  0.5452970000000 1.0
C      1  0.5572200000000  0.5625420000000  0.4687340000000 1.0
C      1  0.5511820000000  0.4927260000000  0.5612810000000 1.0
C      1  0.5383330000000  0.4494420000000  0.4632310000000 1.0
C      1  0.4865430000000  0.5498960000000  0.5486090000000 1.0
C      1  0.4857040000000  0.4347580000000  0.5478560000000 1.0
C      1  0.4848960000000  0.5291500000000  0.4335910000000 1.0
C      1  0.5490600000000  0.4516300000000  0.5142820000000 1.0
C      1  0.5536280000000  0.5060280000000  0.4543530000000 1.0
C      1  0.5603620000000  0.5361390000000  0.5254480000000 1.0
C      1  0.4500930000000  0.5189190000000  0.5143540000000 1.0
C      1  0.4520990000000  0.4650910000000  0.5109400000000 1.0
C      1  0.4506300000000  0.4964760000000  0.4718210000000 1.0
C      1  0.5266340000000  0.4844940000000  0.5115550000000 1.0
C      1  0.5248520000000  0.5005780000000  0.4815430000000 1.0
C      1  0.5294570000000  0.5276450000000  0.5016220000000 1.0
C      1  0.4850080000000  0.4962690000000  0.4921830000000 1.0
END
