TITL C-2622959-7779-106 -0.00132191546570434 125000 -927.094998196343 0 0 172 (C1) n - 1
REM
REM in /nfs/bkarasulu/CARBON/AIRSS/Generating-Clusters/AIREBO/with-SteepDescent/Higher-Symm/SD-CG/HFTN-CG
REM
REM
REM
REM
REM
REM ./C.cell (b20cbc046b6831c77cfcea5457e17084)
REM
REM compiler GCC version 9.2.1 20190827 (Red Hat 9.2.1-1)
REM options -cpp -mtune=generic -march=x86-64 -g -O0 -fpre-include=/usr/include/finclude/math-vector-fortran.h
REM seed 510150560 -1563688051 -1220441205 1706937939 -1319299351 -831062727 -641489465 968274285 791711512 -1764792872 739008360 -1006494211 -1639800424 -930626874 -1235802409 1002927130 -2007092306 325939961 827227600 1148334647 -2009899163 1087270733 1634485160 -467143997 670131891 -1638893374 -834657020 2106178410 -1351700597 -17603006 -284767537 -349727866 -1109024373
REM
CELL 1.54180   50.00000   50.00000   50.00000   90.00000   90.00000   90.00000
LATT -1
SFAC C  
C      1  0.4747810000000  0.4953170000000  0.4721520000000 1.0
C      1  0.4754400000000  0.4995690000000  0.5256410000000 1.0
C      1  0.5384230000000  0.4931390000000  0.5198470000000 1.0
C      1  0.5315170000000  0.5050230000000  0.4826010000000 1.0
C      1  0.4605450000000  0.4794260000000  0.4943200000000 1.0
C      1  0.4727110000000  0.5173880000000  0.4968030000000 1.0
C      1  0.5294650000000  0.5326400000000  0.4978910000000 1.0
C      1  0.5192980000000  0.4810130000000  0.4991240000000 1.0
C      1  0.5403510000000  0.4802260000000  0.6009670000000 1.0
C      1  0.5377950000000  0.5169500000000  0.3968070000000 1.0
C      1  0.4466390000000  0.4774980000000  0.3979410000000 1.0
C      1  0.4500990000000  0.5274090000000  0.5969980000000 1.0
C      1  0.5470320000000  0.5996570000000  0.4696630000000 1.0
C      1  0.5480680000000  0.3986320000000  0.5296710000000 1.0
C      1  0.4572620000000  0.4006520000000  0.4788080000000 1.0
C      1  0.4600710000000  0.5998570000000  0.5239160000000 1.0
C      1  0.4947700000000  0.4078400000000  0.5313840000000 1.0
C      1  0.4968900000000  0.5863770000000  0.4735780000000 1.0
C      1  0.5103270000000  0.4240590000000  0.4793960000000 1.0
C      1  0.5109750000000  0.5765770000000  0.5233880000000 1.0
C      1  0.4893600000000  0.5211550000000  0.4206070000000 1.0
C      1  0.4919050000000  0.4781990000000  0.5771830000000 1.0
C      1  0.5037700000000  0.4678190000000  0.4060630000000 1.0
C      1  0.5048660000000  0.5302340000000  0.5954570000000 1.0
C      1  0.4903750000000  0.4880160000000  0.4285790000000 1.0
C      1  0.4924070000000  0.5117420000000  0.5714960000000 1.0
C      1  0.5258150000000  0.5001600000000  0.5469010000000 1.0
C      1  0.5269200000000  0.5007910000000  0.4510980000000 1.0
C      1  0.4765880000000  0.4526010000000  0.4993160000000 1.0
C      1  0.4734890000000  0.5487940000000  0.5064900000000 1.0
C      1  0.5107130000000  0.5618650000000  0.4926920000000 1.0
C      1  0.5087250000000  0.4306320000000  0.5127430000000 1.0
C      1  0.5178450000000  0.5345920000000  0.4077580000000 1.0
C      1  0.5202090000000  0.4641050000000  0.5896960000000 1.0
C      1  0.4735280000000  0.5423990000000  0.5963380000000 1.0
C      1  0.4703060000000  0.4642310000000  0.4010540000000 1.0
C      1  0.5249010000000  0.4005430000000  0.5445750000000 1.0
C      1  0.5234190000000  0.5950690000000  0.4557510000000 1.0
C      1  0.4821320000000  0.5886770000000  0.5367820000000 1.0
C      1  0.4805980000000  0.4115610000000  0.4685570000000 1.0
C      1  0.4422580000000  0.5049040000000  0.4695040000000 1.0
C      1  0.4418180000000  0.4944100000000  0.5261730000000 1.0
C      1  0.5674290000000  0.5007500000000  0.5137400000000 1.0
C      1  0.5625160000000  0.4989370000000  0.4737290000000 1.0
C      1  0.4312040000000  0.4716720000000  0.5032180000000 1.0
C      1  0.4380320000000  0.5170020000000  0.5010480000000 1.0
C      1  0.5616370000000  0.5322190000000  0.5088860000000 1.0
C      1  0.5622050000000  0.4729220000000  0.4948960000000 1.0
C      1  0.5405430000000  0.5282730000000  0.5557160000000 1.0
C      1  0.5407370000000  0.4713030000000  0.4454960000000 1.0
C      1  0.4522000000000  0.5305490000000  0.4549320000000 1.0
C      1  0.4507820000000  0.4679940000000  0.5447650000000 1.0
C      1  0.5571920000000  0.5461650000000  0.5373210000000 1.0
C      1  0.5567100000000  0.4557320000000  0.4660760000000 1.0
C      1  0.4555480000000  0.4440180000000  0.5246080000000 1.0
C      1  0.4579190000000  0.5521490000000  0.4764350000000 1.0
C      1  0.4678170000000  0.4396080000000  0.4184490000000 1.0
C      1  0.4734340000000  0.5696060000000  0.5868150000000 1.0
C      1  0.5265090000000  0.4371570000000  0.5776120000000 1.0
C      1  0.5266720000000  0.5574890000000  0.4229230000000 1.0
C      1  0.4739440000000  0.4279740000000  0.4437260000000 1.0
C      1  0.4732360000000  0.5728460000000  0.5587770000000 1.0
C      1  0.5226840000000  0.5854430000000  0.4283570000000 1.0
C      1  0.5260990000000  0.4097000000000  0.5717640000000 1.0
C      1  0.5432580000000  0.5843850000000  0.5644110000000 1.0
C      1  0.5436220000000  0.4167720000000  0.4389410000000 1.0
C      1  0.4676710000000  0.5784480000000  0.4350690000000 1.0
C      1  0.4665310000000  0.4236700000000  0.5570760000000 1.0
C      1  0.5306010000000  0.5600710000000  0.5807900000000 1.0
C      1  0.5300430000000  0.4402310000000  0.4220410000000 1.0
C      1  0.4533220000000  0.4440030000000  0.5787330000000 1.0
C      1  0.4554060000000  0.5600670000000  0.4121050000000 1.0
C      1  0.5436440000000  0.4255560000000  0.4710180000000 1.0
C      1  0.5438070000000  0.5763210000000  0.5322460000000 1.0
C      1  0.4635800000000  0.4110350000000  0.5265550000000 1.0
C      1  0.4677350000000  0.5813740000000  0.4650670000000 1.0
C      1  0.5354970000000  0.4704890000000  0.4119090000000 1.0
C      1  0.5365640000000  0.5294460000000  0.5887880000000 1.0
C      1  0.4561520000000  0.5293730000000  0.4236500000000 1.0
C      1  0.4579050000000  0.4775100000000  0.5751930000000 1.0
C      1  0.4039930000000  0.4621520000000  0.4857290000000 1.0
C      1  0.4142100000000  0.5353090000000  0.5079780000000 1.0
C      1  0.5926950000000  0.4616620000000  0.5059040000000 1.0
C      1  0.5927410000000  0.5422790000000  0.4982260000000 1.0
C      1  0.4100460000000  0.4964680000000  0.4610940000000 1.0
C      1  0.4101050000000  0.5017220000000  0.5371410000000 1.0
C      1  0.5862970000000  0.5106050000000  0.4612210000000 1.0
C      1  0.5871110000000  0.4912900000000  0.5338390000000 1.0
C      1  0.5698740000000  0.5264940000000  0.5825200000000 1.0
C      1  0.5687410000000  0.4750360000000  0.4174690000000 1.0
C      1  0.4268700000000  0.5191060000000  0.4264260000000 1.0
C      1  0.4253560000000  0.4788950000000  0.5736120000000 1.0
C      1  0.5726280000000  0.5783260000000  0.5194170000000 1.0
C      1  0.5730280000000  0.4237020000000  0.4828530000000 1.0
C      1  0.4309960000000  0.4138330000000  0.5193890000000 1.0
C      1  0.4385940000000  0.5857150000000  0.4820830000000 1.0
C      1  0.6169920000000  0.5205910000000  0.5028730000000 1.0
C      1  0.6171850000000  0.4813950000000  0.4957390000000 1.0
C      1  0.3830090000000  0.5265470000000  0.4976630000000 1.0
C      1  0.3775050000000  0.4750210000000  0.5014260000000 1.0
C      1  0.6181180000000  0.4971460000000  0.5251740000000 1.0
C      1  0.6161400000000  0.5047930000000  0.4738670000000 1.0
C      1  0.3842220000000  0.5024290000000  0.5190750000000 1.0
C      1  0.3833830000000  0.4988010000000  0.4796560000000 1.0
C      1  0.5580150000000  0.5587930000000  0.4879840000000 1.0
C      1  0.5572270000000  0.4447730000000  0.5129240000000 1.0
C      1  0.4475750000000  0.5530630000000  0.5203240000000 1.0
C      1  0.4406050000000  0.4468760000000  0.4828800000000 1.0
C      1  0.5484710000000  0.4796880000000  0.5618600000000 1.0
C      1  0.5532640000000  0.5197240000000  0.4409080000000 1.0
C      1  0.4437850000000  0.5098510000000  0.5564050000000 1.0
C      1  0.4434590000000  0.4815140000000  0.4454800000000 1.0
C      1  0.5799350000000  0.5387460000000  0.4501180000000 1.0
C      1  0.5746910000000  0.4679480000000  0.5467970000000 1.0
C      1  0.4162410000000  0.5295910000000  0.5536030000000 1.0
C      1  0.4136710000000  0.4666990000000  0.4451890000000 1.0
C      1  0.5853590000000  0.4411120000000  0.5316640000000 1.0
C      1  0.5867850000000  0.5600190000000  0.4716900000000 1.0
C      1  0.4190690000000  0.5570490000000  0.5336680000000 1.0
C      1  0.4143040000000  0.4390040000000  0.4649530000000 1.0
C      1  0.6041040000000  0.4885240000000  0.4463940000000 1.0
C      1  0.6033920000000  0.5123770000000  0.5518330000000 1.0
C      1  0.3852150000000  0.4797330000000  0.5444230000000 1.0
C      1  0.3876300000000  0.5214090000000  0.4552310000000 1.0
C      1  0.6105690000000  0.4519190000000  0.4799770000000 1.0
C      1  0.6143760000000  0.5485860000000  0.5222930000000 1.0
C      1  0.4018450000000  0.5489200000000  0.4813500000000 1.0
C      1  0.3979850000000  0.4532260000000  0.5173820000000 1.0
C      1  0.4860930000000  0.4868440000000  0.6095550000000 1.0
C      1  0.4874740000000  0.5122200000000  0.3878510000000 1.0
C      1  0.4948820000000  0.4887610000000  0.3815290000000 1.0
C      1  0.4961460000000  0.5085780000000  0.6179640000000 1.0
C      1  0.5039580000000  0.6130750000000  0.4895880000000 1.0
C      1  0.5081980000000  0.3848120000000  0.5118810000000 1.0
C      1  0.5174960000000  0.3924040000000  0.4895430000000 1.0
C      1  0.5121110000000  0.6090280000000  0.5132980000000 1.0
C      1  0.5875340000000  0.4431680000000  0.4590240000000 1.0
C      1  0.5888390000000  0.5580730000000  0.5413980000000 1.0
C      1  0.4225110000000  0.4425110000000  0.5329710000000 1.0
C      1  0.4264410000000  0.5589080000000  0.4650910000000 1.0
C      1  0.5874670000000  0.4676940000000  0.4369300000000 1.0
C      1  0.5875280000000  0.5330380000000  0.5621290000000 1.0
C      1  0.4126520000000  0.5346950000000  0.4455730000000 1.0
C      1  0.4106090000000  0.4653580000000  0.5540220000000 1.0
C      1  0.4991700000000  0.5198240000000  0.5391670000000 1.0
C      1  0.4996520000000  0.4826080000000  0.4601920000000 1.0
C      1  0.5030640000000  0.5244880000000  0.4515550000000 1.0
C      1  0.4970550000000  0.4804460000000  0.5436400000000 1.0
C      1  0.4964260000000  0.5462670000000  0.5266100000000 1.0
C      1  0.5042050000000  0.4575170000000  0.4797240000000 1.0
C      1  0.5010650000000  0.4627000000000  0.5191090000000 1.0
C      1  0.4996040000000  0.5316650000000  0.4816530000000 1.0
C      1  0.5358780000000  0.4522190000000  0.5548730000000 1.0
C      1  0.5403730000000  0.5477200000000  0.4449800000000 1.0
C      1  0.4683480000000  0.4674160000000  0.4407900000000 1.0
C      1  0.4663910000000  0.5261740000000  0.5604890000000 1.0
C      1  0.5353300000000  0.5594490000000  0.4693510000000 1.0
C      1  0.5332970000000  0.4419770000000  0.5291300000000 1.0
C      1  0.4666960000000  0.4488010000000  0.4670080000000 1.0
C      1  0.4626610000000  0.5500550000000  0.5476550000000 1.0
C      1  0.5719840000000  0.4153070000000  0.5139470000000 1.0
C      1  0.5734500000000  0.5875060000000  0.4873090000000 1.0
C      1  0.4326330000000  0.4170420000000  0.4883900000000 1.0
C      1  0.4376160000000  0.5816680000000  0.5128370000000 1.0
C      1  0.5568170000000  0.5040720000000  0.4142860000000 1.0
C      1  0.5601050000000  0.4974930000000  0.5865080000000 1.0
C      1  0.4247040000000  0.4879500000000  0.4199330000000 1.0
C      1  0.4237560000000  0.5118040000000  0.5821430000000 1.0
C      1  0.4848410000000  0.4454290000000  0.5714900000000 1.0
C      1  0.4864940000000  0.5550300000000  0.4216500000000 1.0
C      1  0.5131290000000  0.4260890000000  0.4455620000000 1.0
C      1  0.5131080000000  0.5736530000000  0.5573780000000 1.0
END
