TITL C-2622960-5345-192 -0.00097125676085978 125000 -682.955888438139 0 0 125 (C1) n - 1
REM
REM in /nfs/bkarasulu/CARBON/AIRSS/Generating-Clusters/AIREBO/with-SteepDescent/Higher-Symm/SD-CG/HFTN-CG
REM
REM
REM
REM
REM
REM ./C.cell (b20cbc046b6831c77cfcea5457e17084)
REM
REM compiler GCC version 9.2.1 20190827 (Red Hat 9.2.1-1)
REM options -cpp -mtune=generic -march=x86-64 -g -O0 -fpre-include=/usr/include/finclude/math-vector-fortran.h
REM seed 1553246500 -125805164 1225103888 1385541708 1202103684 -791829995 1830928071 429547820 -152684060 1298787168 1156273356 1109296283 442609023 -131168330 341614657 -1705696790 -1752585258 1508727732 -355644954 39797863 1439918418 -721235540 -1926323049 -52650567 463635124 -569067335 -546038724 -1335995362 -1762686506 1160451370 -960231388 488941126 203702502
REM
CELL 1.54180   50.00000   50.00000   50.00000   90.00000   90.00000   90.00000
LATT -1
SFAC C  
C      1  0.5895150000000  0.5035180000000  0.5139820000000 1.0
C      1  0.5137740000000  0.5927430000000  0.5002390000000 1.0
C      1  0.5004260000000  0.5128270000000  0.5890210000000 1.0
C      1  0.4106090000000  0.4996920000000  0.5173780000000 1.0
C      1  0.4070580000000  0.5023760000000  0.4879100000000 1.0
C      1  0.5884450000000  0.4974280000000  0.4847760000000 1.0
C      1  0.4842950000000  0.4123280000000  0.4999910000000 1.0
C      1  0.4850130000000  0.5873450000000  0.4988950000000 1.0
C      1  0.5123540000000  0.4042470000000  0.4989160000000 1.0
C      1  0.4961790000000  0.4842330000000  0.5931380000000 1.0
C      1  0.5022390000000  0.5151670000000  0.4082620000000 1.0
C      1  0.5031610000000  0.4859180000000  0.4030400000000 1.0
C      1  0.4760560000000  0.4687140000000  0.4999380000000 1.0
C      1  0.4998190000000  0.4789300000000  0.4694770000000 1.0
C      1  0.4724320000000  0.4953040000000  0.4790310000000 1.0
C      1  0.5177350000000  0.5241310000000  0.4972670000000 1.0
C      1  0.5251800000000  0.4785310000000  0.5000910000000 1.0
C      1  0.4845960000000  0.5282530000000  0.5047580000000 1.0
C      1  0.4937480000000  0.5330710000000  0.4502020000000 1.0
C      1  0.5040420000000  0.4756150000000  0.5366280000000 1.0
C      1  0.5018100000000  0.5234250000000  0.5336800000000 1.0
C      1  0.5333480000000  0.5083300000000  0.4748160000000 1.0
C      1  0.5330690000000  0.5002340000000  0.5251580000000 1.0
C      1  0.4690190000000  0.5021550000000  0.5205340000000 1.0
C      1  0.5118410000000  0.4179740000000  0.4449840000000 1.0
C      1  0.4493630000000  0.5145070000000  0.4183100000000 1.0
C      1  0.4212110000000  0.4452640000000  0.5087830000000 1.0
C      1  0.4770030000000  0.5868070000000  0.4451300000000 1.0
C      1  0.4871850000000  0.4210450000000  0.5543950000000 1.0
C      1  0.5123870000000  0.5786480000000  0.5533540000000 1.0
C      1  0.5532770000000  0.4776260000000  0.4181160000000 1.0
C      1  0.5546830000000  0.5124690000000  0.5796010000000 1.0
C      1  0.4432700000000  0.4869010000000  0.5815180000000 1.0
C      1  0.5840950000000  0.5574630000000  0.5204370000000 1.0
C      1  0.5780700000000  0.4427890000000  0.4919280000000 1.0
C      1  0.4214690000000  0.5518440000000  0.4901600000000 1.0
C      1  0.4851820000000  0.5013560000000  0.4496810000000 1.0
C      1  0.4472450000000  0.4778600000000  0.5106700000000 1.0
C      1  0.5125170000000  0.4530000000000  0.4815120000000 1.0
C      1  0.5228780000000  0.4884460000000  0.4492550000000 1.0
C      1  0.5217740000000  0.5098210000000  0.5537310000000 1.0
C      1  0.4767200000000  0.4880610000000  0.5506240000000 1.0
C      1  0.5483200000000  0.5246440000000  0.5123590000000 1.0
C      1  0.5518910000000  0.4818620000000  0.4810360000000 1.0
C      1  0.4559910000000  0.5208320000000  0.4879160000000 1.0
C      1  0.4903740000000  0.5481600000000  0.4777800000000 1.0
C      1  0.4950580000000  0.4494720000000  0.5207040000000 1.0
C      1  0.5160890000000  0.5486860000000  0.5200600000000 1.0
C      1  0.5036890000000  0.5757200000000  0.4320440000000 1.0
C      1  0.4398000000000  0.5138250000000  0.5609790000000 1.0
C      1  0.5712380000000  0.4361640000000  0.5201560000000 1.0
C      1  0.4852320000000  0.4387090000000  0.4416620000000 1.0
C      1  0.4870000000000  0.5582180000000  0.5634770000000 1.0
C      1  0.5133910000000  0.4427370000000  0.5570830000000 1.0
C      1  0.5633670000000  0.4875880000000  0.5579570000000 1.0
C      1  0.5629810000000  0.5039590000000  0.4310190000000 1.0
C      1  0.4440750000000  0.4885340000000  0.4397550000000 1.0
C      1  0.4438910000000  0.5587680000000  0.5149310000000 1.0
C      1  0.4343670000000  0.4401350000000  0.4816390000000 1.0
C      1  0.5672930000000  0.5652190000000  0.4963070000000 1.0
C      1  0.4583750000000  0.4368030000000  0.5633810000000 1.0
C      1  0.5661840000000  0.4528960000000  0.4358440000000 1.0
C      1  0.4375030000000  0.5586390000000  0.4613250000000 1.0
C      1  0.5397050000000  0.5637860000000  0.5648140000000 1.0
C      1  0.5394560000000  0.4344580000000  0.4381610000000 1.0
C      1  0.4524260000000  0.5686220000000  0.4325650000000 1.0
C      1  0.4351560000000  0.5397560000000  0.4331420000000 1.0
C      1  0.4336680000000  0.4599070000000  0.5644340000000 1.0
C      1  0.5643110000000  0.5402970000000  0.5658660000000 1.0
C      1  0.5597980000000  0.4382940000000  0.4658850000000 1.0
C      1  0.5678680000000  0.5671530000000  0.5463510000000 1.0
C      1  0.4395460000000  0.4438280000000  0.5351570000000 1.0
C      1  0.5763780000000  0.4589180000000  0.5449540000000 1.0
C      1  0.5257030000000  0.5696570000000  0.4499290000000 1.0
C      1  0.4589410000000  0.5398890000000  0.5731750000000 1.0
C      1  0.4316270000000  0.5396170000000  0.5403600000000 1.0
C      1  0.4289930000000  0.4646090000000  0.4586460000000 1.0
C      1  0.5637590000000  0.5492870000000  0.4739230000000 1.0
C      1  0.4576740000000  0.4281850000000  0.4586980000000 1.0
C      1  0.4646070000000  0.5686010000000  0.5400640000000 1.0
C      1  0.5399850000000  0.4328070000000  0.5381160000000 1.0
C      1  0.5396380000000  0.4634980000000  0.5634070000000 1.0
C      1  0.5470660000000  0.5271810000000  0.4350390000000 1.0
C      1  0.4623370000000  0.4614770000000  0.4299800000000 1.0
C      1  0.4417380000000  0.5176900000000  0.4571820000000 1.0
C      1  0.4669460000000  0.4379620000000  0.5247120000000 1.0
C      1  0.5141000000000  0.4570470000000  0.4394180000000 1.0
C      1  0.5694380000000  0.4800880000000  0.4543800000000 1.0
C      1  0.5644640000000  0.5175920000000  0.5415700000000 1.0
C      1  0.4376780000000  0.4851780000000  0.5424790000000 1.0
C      1  0.5450850000000  0.5650090000000  0.5216780000000 1.0
C      1  0.5317130000000  0.4313500000000  0.4769490000000 1.0
C      1  0.4594110000000  0.5603990000000  0.4847010000000 1.0
C      1  0.4805740000000  0.5517300000000  0.4271600000000 1.0
C      1  0.4835540000000  0.4582100000000  0.5655480000000 1.0
C      1  0.5163540000000  0.5411150000000  0.5660570000000 1.0
C      1  0.5156100000000  0.4245960000000  0.5215310000000 1.0
C      1  0.5187470000000  0.5173330000000  0.4352610000000 1.0
C      1  0.4385840000000  0.5168830000000  0.5168620000000 1.0
C      1  0.4845990000000  0.5607340000000  0.5156410000000 1.0
C      1  0.4809300000000  0.4404050000000  0.4817480000000 1.0
C      1  0.5132930000000  0.5714140000000  0.4758690000000 1.0
C      1  0.4801620000000  0.4858240000000  0.4233710000000 1.0
C      1  0.4836390000000  0.5184150000000  0.5619790000000 1.0
C      1  0.5150950000000  0.4824760000000  0.5677140000000 1.0
C      1  0.5618380000000  0.4870540000000  0.5127120000000 1.0
C      1  0.5643640000000  0.5197190000000  0.4828490000000 1.0
C      1  0.4254090000000  0.4784610000000  0.4872070000000 1.0
C      1  0.5891360000000  0.4678560000000  0.4792490000000 1.0
C      1  0.4729650000000  0.5880400000000  0.4725490000000 1.0
C      1  0.4687640000000  0.4756570000000  0.5896560000000 1.0
C      1  0.4179130000000  0.5252250000000  0.4766540000000 1.0
C      1  0.4115130000000  0.4707020000000  0.5262800000000 1.0
C      1  0.5891390000000  0.5304150000000  0.5243910000000 1.0
C      1  0.5208200000000  0.4032010000000  0.4704930000000 1.0
C      1  0.5237120000000  0.5872700000000  0.5262230000000 1.0
C      1  0.4741450000000  0.4079560000000  0.5280000000000 1.0
C      1  0.5287840000000  0.5218020000000  0.5909640000000 1.0
C      1  0.5259340000000  0.4720440000000  0.4130600000000 1.0
C      1  0.4761520000000  0.5259850000000  0.4109590000000 1.0
C      1  0.4647190000000  0.5360430000000  0.5398890000000 1.0
C      1  0.5467810000000  0.4639750000000  0.5305340000000 1.0
C      1  0.5493240000000  0.5519920000000  0.4494230000000 1.0
C      1  0.4617080000000  0.4616200000000  0.4633830000000 1.0
C      1  0.4985320000000  0.4909960000000  0.5087910000000 1.0
END
