TITL C-2622958-629-685 0.000668781074673804 125000 -745.951607957792 0 0 129 (C1) n - 1
REM
REM in /nfs/bkarasulu/CARBON/AIRSS/Generating-Clusters/AIREBO/with-SteepDescent/Higher-Symm/SD-CG/HFTN-CG
REM
REM
REM
REM
REM
REM ./C.cell (b20cbc046b6831c77cfcea5457e17084)
REM
REM compiler GCC version 9.2.1 20190827 (Red Hat 9.2.1-1)
REM options -cpp -mtune=generic -march=x86-64 -g -O0 -fpre-include=/usr/include/finclude/math-vector-fortran.h
REM seed -194338436 -252073437 101405582 -1659346793 -90991315 -1494356022 1969572722 832529163 -1877638333 53303491 -117397401 1627184352 639714769 -1703886447 -895596185 693413008 -796917898 1445362277 -1501566295 -1753958844 1640179057 120275100 -441458482 -1898631563 995127602 525833570 226551219 -1894902584 -1657534063 -1035764340 2118657789 -381578377 1548322221
REM
CELL 1.54180   50.00000   50.00000   50.00000   90.00000   90.00000   90.00000
LATT -1
SFAC C  
C      1  0.4427690000000  0.5102990000000  0.5568330000000 1.0
C      1  0.5704890000000  0.4930140000000  0.5216870000000 1.0
C      1  0.4873960000000  0.5038760000000  0.4210680000000 1.0
C      1  0.5642740000000  0.5085650000000  0.5478090000000 1.0
C      1  0.4321410000000  0.5016660000000  0.5286420000000 1.0
C      1  0.5168880000000  0.4929030000000  0.4290360000000 1.0
C      1  0.5145180000000  0.4911000000000  0.4744110000000 1.0
C      1  0.4651020000000  0.4962820000000  0.4957070000000 1.0
C      1  0.5204300000000  0.4974220000000  0.5294970000000 1.0
C      1  0.4814160000000  0.4957410000000  0.4671340000000 1.0
C      1  0.5351620000000  0.4980620000000  0.5006010000000 1.0
C      1  0.4872920000000  0.4959180000000  0.5217430000000 1.0
C      1  0.5746540000000  0.4542270000000  0.4631120000000 1.0
C      1  0.4340500000000  0.4540730000000  0.4528490000000 1.0
C      1  0.4862430000000  0.4457020000000  0.5799100000000 1.0
C      1  0.4262850000000  0.4624660000000  0.4772460000000 1.0
C      1  0.5538170000000  0.4614620000000  0.4473420000000 1.0
C      1  0.5095930000000  0.4510610000000  0.5925990000000 1.0
C      1  0.5555710000000  0.4544650000000  0.5492700000000 1.0
C      1  0.5182800000000  0.4586120000000  0.4293390000000 1.0
C      1  0.4327400000000  0.4682580000000  0.5246390000000 1.0
C      1  0.4492530000000  0.4506760000000  0.5456170000000 1.0
C      1  0.4854770000000  0.4498740000000  0.4296870000000 1.0
C      1  0.5709570000000  0.4590590000000  0.5196870000000 1.0
C      1  0.4441810000000  0.5485470000000  0.5685700000000 1.0
C      1  0.5775690000000  0.5462430000000  0.5183770000000 1.0
C      1  0.4747000000000  0.5550810000000  0.4401590000000 1.0
C      1  0.5456110000000  0.5553020000000  0.5494000000000 1.0
C      1  0.4340200000000  0.5521800000000  0.5140170000000 1.0
C      1  0.5231240000000  0.5694680000000  0.4281970000000 1.0
C      1  0.4697100000000  0.4133610000000  0.4649260000000 1.0
C      1  0.4873060000000  0.4254170000000  0.5596410000000 1.0
C      1  0.5427720000000  0.4208090000000  0.4905280000000 1.0
C      1  0.5295040000000  0.4148120000000  0.4641780000000 1.0
C      1  0.5121540000000  0.4245110000000  0.5456480000000 1.0
C      1  0.4650200000000  0.4172160000000  0.4950600000000 1.0
C      1  0.4854450000000  0.4192180000000  0.4400770000000 1.0
C      1  0.4636160000000  0.4242000000000  0.5440600000000 1.0
C      1  0.5576020000000  0.4269670000000  0.5166970000000 1.0
C      1  0.5152270000000  0.4249740000000  0.4392590000000 1.0
C      1  0.5416520000000  0.4250120000000  0.5424890000000 1.0
C      1  0.4589570000000  0.4076330000000  0.5212620000000 1.0
C      1  0.4472520000000  0.4684600000000  0.4976980000000 1.0
C      1  0.5275560000000  0.4713140000000  0.5467740000000 1.0
C      1  0.5253200000000  0.4656670000000  0.4616560000000 1.0
C      1  0.5507630000000  0.4708290000000  0.4949850000000 1.0
C      1  0.4718170000000  0.4758290000000  0.5418330000000 1.0
C      1  0.4712470000000  0.4690620000000  0.4521000000000 1.0
C      1  0.3901280000000  0.4800550000000  0.5021930000000 1.0
C      1  0.5547520000000  0.4738980000000  0.5913150000000 1.0
C      1  0.5452140000000  0.4800690000000  0.4038940000000 1.0
C      1  0.6033510000000  0.4773660000000  0.5052010000000 1.0
C      1  0.4433700000000  0.4880590000000  0.5812910000000 1.0
C      1  0.4507970000000  0.4764190000000  0.4052490000000 1.0
C      1  0.5285170000000  0.4528910000000  0.3974200000000 1.0
C      1  0.4011130000000  0.4582460000000  0.5229540000000 1.0
C      1  0.5718780000000  0.4680370000000  0.5707500000000 1.0
C      1  0.4747690000000  0.4558910000000  0.4020960000000 1.0
C      1  0.6037690000000  0.4518920000000  0.5249930000000 1.0
C      1  0.4298810000000  0.4602010000000  0.5680800000000 1.0
C      1  0.5207480000000  0.5236670000000  0.5757790000000 1.0
C      1  0.5572130000000  0.5266620000000  0.4363890000000 1.0
C      1  0.4202420000000  0.5259950000000  0.4818820000000 1.0
C      1  0.4705490000000  0.5223500000000  0.5828710000000 1.0
C      1  0.4441970000000  0.5253060000000  0.4386810000000 1.0
C      1  0.5799250000000  0.5234440000000  0.4793400000000 1.0
C      1  0.5605190000000  0.5204390000000  0.5042290000000 1.0
C      1  0.4754810000000  0.5215320000000  0.4457530000000 1.0
C      1  0.4666970000000  0.5303390000000  0.5507370000000 1.0
C      1  0.4433170000000  0.5208560000000  0.5045740000000 1.0
C      1  0.5274590000000  0.5208140000000  0.4397130000000 1.0
C      1  0.5348840000000  0.5231610000000  0.5464020000000 1.0
C      1  0.4362380000000  0.5739180000000  0.4901790000000 1.0
C      1  0.5208560000000  0.5685880000000  0.5629050000000 1.0
C      1  0.5453010000000  0.5719390000000  0.4469780000000 1.0
C      1  0.5711560000000  0.5678290000000  0.4929020000000 1.0
C      1  0.4673500000000  0.5731700000000  0.5649560000000 1.0
C      1  0.4570100000000  0.5704480000000  0.4642010000000 1.0
C      1  0.5182780000000  0.5753050000000  0.4673570000000 1.0
C      1  0.4677270000000  0.5703180000000  0.5026680000000 1.0
C      1  0.5079150000000  0.5671130000000  0.5360060000000 1.0
C      1  0.4884950000000  0.5658410000000  0.4760860000000 1.0
C      1  0.5369810000000  0.5690110000000  0.4906560000000 1.0
C      1  0.4791050000000  0.5759000000000  0.5330700000000 1.0
C      1  0.4436000000000  0.4775920000000  0.4342120000000 1.0
C      1  0.4708670000000  0.4713220000000  0.5735640000000 1.0
C      1  0.5824880000000  0.4764920000000  0.4839910000000 1.0
C      1  0.5601190000000  0.4804520000000  0.4273500000000 1.0
C      1  0.5254370000000  0.4747190000000  0.5805150000000 1.0
C      1  0.4049390000000  0.4809170000000  0.4784430000000 1.0
C      1  0.5106930000000  0.5000890000000  0.5857040000000 1.0
C      1  0.5723840000000  0.5031570000000  0.4390290000000 1.0
C      1  0.4126860000000  0.5046090000000  0.4653570000000 1.0
C      1  0.4831370000000  0.4981470000000  0.5870370000000 1.0
C      1  0.4291460000000  0.5027260000000  0.4424790000000 1.0
C      1  0.5833550000000  0.5006680000000  0.4649720000000 1.0
C      1  0.4859600000000  0.4561530000000  0.5214380000000 1.0
C      1  0.5290760000000  0.4497400000000  0.5009060000000 1.0
C      1  0.4823940000000  0.4440680000000  0.4712000000000 1.0
C      1  0.5144710000000  0.4500250000000  0.5269920000000 1.0
C      1  0.4688930000000  0.4482030000000  0.4990160000000 1.0
C      1  0.5120970000000  0.4413600000000  0.4754080000000 1.0
C      1  0.6051280000000  0.4822690000000  0.5384620000000 1.0
C      1  0.4801070000000  0.4878410000000  0.3920310000000 1.0
C      1  0.4146930000000  0.4900960000000  0.5624460000000 1.0
C      1  0.4008740000000  0.4908000000000  0.5327660000000 1.0
C      1  0.5116710000000  0.4824200000000  0.3979820000000 1.0
C      1  0.5856120000000  0.4896570000000  0.5584110000000 1.0
C      1  0.5794890000000  0.5495270000000  0.4701590000000 1.0
C      1  0.4353790000000  0.5510520000000  0.4449690000000 1.0
C      1  0.4817200000000  0.5498770000000  0.5822810000000 1.0
C      1  0.4224910000000  0.5517130000000  0.4712410000000 1.0
C      1  0.5647820000000  0.5519820000000  0.4467860000000 1.0
C      1  0.5096340000000  0.5495940000000  0.5808180000000 1.0
C      1  0.4900890000000  0.5428400000000  0.4145550000000 1.0
C      1  0.4138700000000  0.5526710000000  0.5593400000000 1.0
C      1  0.5921530000000  0.5533520000000  0.5450820000000 1.0
C      1  0.5169180000000  0.5430090000000  0.4202210000000 1.0
C      1  0.5739370000000  0.5576850000000  0.5630250000000 1.0
C      1  0.4091890000000  0.5545460000000  0.5344580000000 1.0
C      1  0.4898200000000  0.5342340000000  0.4738000000000 1.0
C      1  0.4849590000000  0.5268760000000  0.5263410000000 1.0
C      1  0.5319640000000  0.5377740000000  0.4978380000000 1.0
C      1  0.5184310000000  0.5236340000000  0.4724070000000 1.0
C      1  0.5142170000000  0.5390780000000  0.5245820000000 1.0
C      1  0.4721060000000  0.5383640000000  0.4999730000000 1.0
C      1  0.4479860000000  0.5633200000000  0.5385000000000 1.0
C      1  0.4975130000000  0.5803030000000  0.4403170000000 1.0
C      1  0.5514240000000  0.5677000000000  0.5207910000000 1.0
END
