TITL C-2622961-1971-788 -0.00128331251134056 125000 -212.325311422995 0 0 40 (C1) n - 1
REM
REM in /nfs/bkarasulu/CARBON/AIRSS/Generating-Clusters/AIREBO/with-SteepDescent/Higher-Symm/SD-CG/HFTN-CG
REM
REM
REM
REM
REM
REM ./C.cell (b20cbc046b6831c77cfcea5457e17084)
REM
REM compiler GCC version 9.2.1 20190827 (Red Hat 9.2.1-1)
REM options -cpp -mtune=generic -march=x86-64 -g -O0 -fpre-include=/usr/include/finclude/math-vector-fortran.h
REM seed -2103671793 1978315421 786338360 -819538271 -849385275 1694719731 726346650 -1293549481 -1316689769 1978105135 202593494 -261486382 1362442497 1537289379 -337984232 -273381383 1119143671 39478745 -574918491 -1456783539 2128797338 2041633153 1716890836 -731668707 1421357818 1140640596 1504633187 -948370738 -1920031981 1236523149 1005231627 1695169304 1022719045
REM
CELL 1.54180   50.00000   50.00000   50.00000   90.00000   90.00000   90.00000
LATT -1
SFAC C  
C      1  0.5367100000000  0.5437100000000  0.5167420000000 1.0
C      1  0.4874270000000  0.5439210000000  0.5369470000000 1.0
C      1  0.4702290000000  0.5432120000000  0.4852050000000 1.0
C      1  0.5194740000000  0.5413270000000  0.4659560000000 1.0
C      1  0.5315390000000  0.4554760000000  0.5121420000000 1.0
C      1  0.4842400000000  0.4552270000000  0.5322030000000 1.0
C      1  0.4639280000000  0.4488930000000  0.4791640000000 1.0
C      1  0.5142780000000  0.4509190000000  0.4602340000000 1.0
C      1  0.4698130000000  0.4699360000000  0.5522380000000 1.0
C      1  0.4436700000000  0.4685340000000  0.4701320000000 1.0
C      1  0.5269070000000  0.4649320000000  0.4382780000000 1.0
C      1  0.5556890000000  0.4655040000000  0.5245780000000 1.0
C      1  0.4706730000000  0.5337730000000  0.5576660000000 1.0
C      1  0.4463950000000  0.5314360000000  0.4738680000000 1.0
C      1  0.5312720000000  0.5293600000000  0.4425960000000 1.0
C      1  0.5550600000000  0.5281260000000  0.5335960000000 1.0
C      1  0.4754010000000  0.5368050000000  0.5119710000000 1.0
C      1  0.4930440000000  0.5332400000000  0.4702010000000 1.0
C      1  0.5356710000000  0.5366880000000  0.4893800000000 1.0
C      1  0.5155080000000  0.5322600000000  0.5375090000000 1.0
C      1  0.4683640000000  0.4533590000000  0.5069230000000 1.0
C      1  0.4858280000000  0.4549410000000  0.4612990000000 1.0
C      1  0.5269020000000  0.4601010000000  0.4851360000000 1.0
C      1  0.5103120000000  0.4646740000000  0.5285500000000 1.0
C      1  0.4593420000000  0.4806960000000  0.5141010000000 1.0
C      1  0.5421020000000  0.5091150000000  0.4854630000000 1.0
C      1  0.4826230000000  0.4825600000000  0.4541660000000 1.0
C      1  0.5146830000000  0.5088200000000  0.5621320000000 1.0
C      1  0.5597990000000  0.4981820000000  0.5024500000000 1.0
C      1  0.4896900000000  0.5025960000000  0.5733590000000 1.0
C      1  0.4352990000000  0.4902580000000  0.5024010000000 1.0
C      1  0.4972940000000  0.4912550000000  0.4330020000000 1.0
C      1  0.4693980000000  0.5020330000000  0.5463880000000 1.0
C      1  0.4532290000000  0.5006220000000  0.4761090000000 1.0
C      1  0.5272310000000  0.4985570000000  0.4427750000000 1.0
C      1  0.5479170000000  0.4967030000000  0.5325750000000 1.0
C      1  0.5139900000000  0.4972680000000  0.5301540000000 1.0
C      1  0.4839560000000  0.5040990000000  0.5156950000000 1.0
C      1  0.4867470000000  0.5018860000000  0.4818420000000 1.0
C      1  0.5183640000000  0.4913720000000  0.4748740000000 1.0
END
