TITL C-2622964-2985-179 1.41678414660864e-07 125000 -16.7098088457084 0 0 5 (C2v) n - 1
REM
REM in /nfs/bkarasulu/CARBON/AIRSS/Generating-Clusters/AIREBO/with-SteepDescent/Higher-Symm/SD-CG/HFTN-CG
REM
REM
REM
REM
REM
REM ./C.cell (b20cbc046b6831c77cfcea5457e17084)
REM
REM compiler GCC version 9.2.1 20190827 (Red Hat 9.2.1-1)
REM options -cpp -mtune=generic -march=x86-64 -g -O0 -fpre-include=/usr/include/finclude/math-vector-fortran.h
REM seed -553526235 -1616291549 -1945724944 1831964504 -1288263335 -771817553 130811917 826744712 1369388907 1761734289 -1366764801 1690366241 310069579 -1833044242 -555762762 -1016222680 -810624836 1040988022 1155282204 706994072 685191243 -1561625417 -1026692541 435202737 -1216402188 -649551696 1181470392 -173917390 -1454928654 127950758 2090999672 -1907024547 -172071806
REM
CELL 1.54180   50.00000   50.00000   50.00000   90.00000   90.00000   90.00000
LATT -1
SFAC C  
C      1  0.4784540000000  0.5200270000000  0.4992000000000 1.0
C      1  0.5225070000000  0.4802540000000  0.4992000000000 1.0
C      1  0.4826180000000  0.4802480000000  0.4992000000000 1.0
C      1  0.5266580000000  0.5200340000000  0.4992000000000 1.0
C      1  0.5025590000000  0.5034180000000  0.4992000000000 1.0
END
