TITL C-2622964-2985-338 -5.3711425983093e-05 125000 -269.531517039649 0 0 54 (C1) n - 1
REM
REM in /nfs/bkarasulu/CARBON/AIRSS/Generating-Clusters/AIREBO/with-SteepDescent/Higher-Symm/SD-CG/HFTN-CG
REM
REM
REM
REM
REM
REM ./C.cell (b20cbc046b6831c77cfcea5457e17084)
REM
REM compiler GCC version 9.2.1 20190827 (Red Hat 9.2.1-1)
REM options -cpp -mtune=generic -march=x86-64 -g -O0 -fpre-include=/usr/include/finclude/math-vector-fortran.h
REM seed -1122815766 2122148457 -1890029801 -2132474031 -163145152 -1933160150 109314482 -201465054 761162122 1946958498 -1382890675 -1857814788 -943239211 895680342 132257214 1104389086 -120901944 -2553630 -2101550200 -588775248 478426220 976130575 -1456171226 -441097658 -2098448028 -1766569502 878286826 -720216328 927574661 1862624322 -2042198409 1715616986 -2027805094
REM
CELL 1.54180   50.00000   50.00000   50.00000   90.00000   90.00000   90.00000
LATT -1
SFAC C  
C      1  0.5226670000000  0.5018920000000  0.5497400000000 1.0
C      1  0.5281820000000  0.4938290000000  0.4423070000000 1.0
C      1  0.4442910000000  0.4950300000000  0.5084870000000 1.0
C      1  0.4683240000000  0.5187570000000  0.5125140000000 1.0
C      1  0.5245620000000  0.5106180000000  0.5176310000000 1.0
C      1  0.5060150000000  0.5051670000000  0.4654620000000 1.0
C      1  0.5545120000000  0.4551460000000  0.4538050000000 1.0
C      1  0.4301300000000  0.4526140000000  0.4903600000000 1.0
C      1  0.5237650000000  0.4558990000000  0.5659970000000 1.0
C      1  0.5550120000000  0.5135010000000  0.5159870000000 1.0
C      1  0.4979420000000  0.5185350000000  0.4362670000000 1.0
C      1  0.4471100000000  0.5220030000000  0.5370740000000 1.0
C      1  0.4638350000000  0.5322990000000  0.5619000000000 1.0
C      1  0.5619930000000  0.5284870000000  0.4895760000000 1.0
C      1  0.4685560000000  0.5298500000000  0.4375570000000 1.0
C      1  0.4808840000000  0.4932130000000  0.4938810000000 1.0
C      1  0.4988620000000  0.4885570000000  0.5207590000000 1.0
C      1  0.5127560000000  0.4844510000000  0.4897990000000 1.0
C      1  0.5484280000000  0.4344870000000  0.5035230000000 1.0
C      1  0.4814340000000  0.4638830000000  0.4420310000000 1.0
C      1  0.4691910000000  0.4659660000000  0.5638460000000 1.0
C      1  0.5133430000000  0.5277930000000  0.5632260000000 1.0
C      1  0.5363670000000  0.5253550000000  0.4496740000000 1.0
C      1  0.4420510000000  0.5166880000000  0.4826590000000 1.0
C      1  0.4702400000000  0.5655730000000  0.5039260000000 1.0
C      1  0.5231710000000  0.5907600000000  0.5363120000000 1.0
C      1  0.5327020000000  0.5915190000000  0.4897660000000 1.0
C      1  0.4579720000000  0.5274790000000  0.4644000000000 1.0
C      1  0.4898510000000  0.5376700000000  0.5539400000000 1.0
C      1  0.5381500000000  0.5330000000000  0.4757200000000 1.0
C      1  0.4703160000000  0.4207570000000  0.4866050000000 1.0
C      1  0.5117860000000  0.4252240000000  0.5268720000000 1.0
C      1  0.5215830000000  0.4218180000000  0.4724120000000 1.0
C      1  0.4904640000000  0.5338750000000  0.4724330000000 1.0
C      1  0.4892860000000  0.5442430000000  0.5213860000000 1.0
C      1  0.5126970000000  0.5360750000000  0.4980770000000 1.0
C      1  0.5240360000000  0.5677830000000  0.4933660000000 1.0
C      1  0.4725120000000  0.5613400000000  0.4788580000000 1.0
C      1  0.5076070000000  0.5717210000000  0.5294770000000 1.0
C      1  0.4818950000000  0.5248160000000  0.4086510000000 1.0
C      1  0.4354700000000  0.5177220000000  0.5671550000000 1.0
C      1  0.5854660000000  0.5121740000000  0.5050430000000 1.0
C      1  0.5323850000000  0.4622680000000  0.5024440000000 1.0
C      1  0.4789450000000  0.4691780000000  0.4729420000000 1.0
C      1  0.4819360000000  0.4658100000000  0.5362170000000 1.0
C      1  0.5300040000000  0.4796790000000  0.5718750000000 1.0
C      1  0.5538620000000  0.4760670000000  0.4395240000000 1.0
C      1  0.4218740000000  0.4736700000000  0.5018010000000 1.0
C      1  0.4620110000000  0.4470980000000  0.4877320000000 1.0
C      1  0.5105230000000  0.4511030000000  0.5368310000000 1.0
C      1  0.5290150000000  0.4489880000000  0.4718170000000 1.0
C      1  0.5343720000000  0.4749620000000  0.5325230000000 1.0
C      1  0.5103200000000  0.4672880000000  0.4538400000000 1.0
C      1  0.4593390000000  0.4663220000000  0.5139970000000 1.0
END
