TITL C-2622953-3516-525 -0.000692012556641424 125000 -604.839016384009 0 0 126 (C1) n - 1
REM
REM in /nfs/bkarasulu/CARBON/AIRSS/Generating-Clusters/AIREBO/with-SteepDescent/Higher-Symm/SD-CG/HFTN-CG
REM
REM
REM
REM
REM
REM ./C.cell (b20cbc046b6831c77cfcea5457e17084)
REM
REM compiler GCC version 9.2.1 20190827 (Red Hat 9.2.1-1)
REM options -cpp -mtune=generic -march=x86-64 -g -O0 -fpre-include=/usr/include/finclude/math-vector-fortran.h
REM seed -1574665442 1391907062 1683860896 -1585311760 790307464 -1144390686 1490952256 -195938369 -921202425 -1386783314 -1407187197 821511179 1540547424 -856086403 -377963366 -1574229930 1759438919 -1442637482 1750309787 -1662784119 -1734439003 -724616299 -1736387278 1224199684 -133495463 224110191 2111478295 -1953794913 -194762361 -1394849647 807535816 -1694535333 889187239
REM
CELL 1.54180   50.00000   50.00000   50.00000   90.00000   90.00000   90.00000
LATT -1
SFAC C  
C      1  0.5327850000000  0.5143810000000  0.4846990000000 1.0
C      1  0.5167120000000  0.4759880000000  0.4862680000000 1.0
C      1  0.4827510000000  0.4743980000000  0.4857690000000 1.0
C      1  0.4750970000000  0.5076490000000  0.4834930000000 1.0
C      1  0.4977750000000  0.5335050000000  0.4835130000000 1.0
C      1  0.5831350000000  0.4359820000000  0.4801310000000 1.0
C      1  0.4688380000000  0.4102520000000  0.4648400000000 1.0
C      1  0.4002280000000  0.5041970000000  0.4717780000000 1.0
C      1  0.4710630000000  0.5968850000000  0.4649200000000 1.0
C      1  0.5815530000000  0.5602530000000  0.4670610000000 1.0
C      1  0.4298740000000  0.4603900000000  0.4847560000000 1.0
C      1  0.4398900000000  0.5556220000000  0.4826910000000 1.0
C      1  0.5321330000000  0.5784530000000  0.4824310000000 1.0
C      1  0.5879960000000  0.4947270000000  0.4838150000000 1.0
C      1  0.5190840000000  0.4211250000000  0.4844990000000 1.0
C      1  0.5008600000000  0.4118990000000  0.5188660000000 1.0
C      1  0.4160930000000  0.4720860000000  0.5247150000000 1.0
C      1  0.4484990000000  0.5762450000000  0.5202900000000 1.0
C      1  0.5555940000000  0.5702980000000  0.5227450000000 1.0
C      1  0.5809650000000  0.4680620000000  0.5212150000000 1.0
C      1  0.5092000000000  0.5228950000000  0.5644670000000 1.0
C      1  0.5315020000000  0.5004490000000  0.5675370000000 1.0
C      1  0.5121130000000  0.4728280000000  0.5725980000000 1.0
C      1  0.4831680000000  0.4906780000000  0.5728740000000 1.0
C      1  0.4661440000000  0.5182910000000  0.5671360000000 1.0
C      1  0.5431980000000  0.5639210000000  0.4324950000000 1.0
C      1  0.5718930000000  0.4775100000000  0.4345040000000 1.0
C      1  0.5056220000000  0.4229870000000  0.4328610000000 1.0
C      1  0.4257530000000  0.4760280000000  0.4362850000000 1.0
C      1  0.4507410000000  0.5619560000000  0.4316040000000 1.0
C      1  0.5362990000000  0.4834480000000  0.4598240000000 1.0
C      1  0.4943430000000  0.4649680000000  0.4552140000000 1.0
C      1  0.4622640000000  0.4941570000000  0.4550320000000 1.0
C      1  0.4806050000000  0.5343040000000  0.4542130000000 1.0
C      1  0.5251820000000  0.5291210000000  0.4550090000000 1.0
C      1  0.4903550000000  0.4031900000000  0.4902050000000 1.0
C      1  0.4050740000000  0.4807800000000  0.4959510000000 1.0
C      1  0.4503190000000  0.5872730000000  0.4900930000000 1.0
C      1  0.5647100000000  0.5763450000000  0.4918340000000 1.0
C      1  0.5919440000000  0.4621100000000  0.4927070000000 1.0
C      1  0.4215140000000  0.5297780000000  0.4780580000000 1.0
C      1  0.5018750000000  0.5865450000000  0.4749110000000 1.0
C      1  0.5825970000000  0.5270940000000  0.4748450000000 1.0
C      1  0.5498710000000  0.4296750000000  0.4768480000000 1.0
C      1  0.4500220000000  0.4362710000000  0.4760210000000 1.0
C      1  0.5575720000000  0.5195500000000  0.5426740000000 1.0
C      1  0.5414740000000  0.4440540000000  0.5475520000000 1.0
C      1  0.4633680000000  0.4422410000000  0.5428090000000 1.0
C      1  0.4350850000000  0.5197640000000  0.5419740000000 1.0
C      1  0.4962030000000  0.5709600000000  0.5424690000000 1.0
C      1  0.5675990000000  0.4756390000000  0.4666180000000 1.0
C      1  0.4948400000000  0.4321160000000  0.4633360000000 1.0
C      1  0.4307550000000  0.4886000000000  0.4665350000000 1.0
C      1  0.4649940000000  0.5635890000000  0.4616170000000 1.0
C      1  0.5467570000000  0.5537500000000  0.4642110000000 1.0
C      1  0.5210900000000  0.4885780000000  0.4163550000000 1.0
C      1  0.4948760000000  0.4748620000000  0.4226670000000 1.0
C      1  0.4735820000000  0.4959420000000  0.4230050000000 1.0
C      1  0.4872400000000  0.5226100000000  0.4229660000000 1.0
C      1  0.5170140000000  0.5177430000000  0.4239970000000 1.0
C      1  0.4409120000000  0.5461840000000  0.5213620000000 1.0
C      1  0.5237840000000  0.5715710000000  0.5225710000000 1.0
C      1  0.5727890000000  0.4988670000000  0.5203850000000 1.0
C      1  0.5305580000000  0.4235810000000  0.5226900000000 1.0
C      1  0.4372060000000  0.4469080000000  0.5213940000000 1.0
C      1  0.5183740000000  0.5508200000000  0.4966980000000 1.0
C      1  0.5563940000000  0.5032600000000  0.4930260000000 1.0
C      1  0.5156500000000  0.4478050000000  0.5040410000000 1.0
C      1  0.4568870000000  0.4683610000000  0.5038110000000 1.0
C      1  0.4607930000000  0.5343240000000  0.4990000000000 1.0
C      1  0.5056100000000  0.5530420000000  0.4407810000000 1.0
C      1  0.5506840000000  0.5098600000000  0.4433990000000 1.0
C      1  0.5253310000000  0.4587690000000  0.4426280000000 1.0
C      1  0.4627900000000  0.4624060000000  0.4427980000000 1.0
C      1  0.4511040000000  0.5232330000000  0.4413740000000 1.0
C      1  0.4824850000000  0.4421700000000  0.5701420000000 1.0
C      1  0.4387390000000  0.4779780000000  0.5745720000000 1.0
C      1  0.4760430000000  0.5576700000000  0.5664170000000 1.0
C      1  0.5457950000000  0.5381910000000  0.5681410000000 1.0
C      1  0.5514320000000  0.4655680000000  0.5719300000000 1.0
C      1  0.4842020000000  0.4433120000000  0.4235170000000 1.0
C      1  0.4404920000000  0.4969780000000  0.4217950000000 1.0
C      1  0.4779620000000  0.5546480000000  0.4201790000000 1.0
C      1  0.5449060000000  0.5359320000000  0.4212690000000 1.0
C      1  0.5467990000000  0.4743890000000  0.4223700000000 1.0
C      1  0.4147280000000  0.4926240000000  0.5443940000000 1.0
C      1  0.4669400000000  0.5875920000000  0.5376140000000 1.0
C      1  0.5702240000000  0.5505530000000  0.5366850000000 1.0
C      1  0.5748290000000  0.4438810000000  0.5401400000000 1.0
C      1  0.4808630000000  0.4135520000000  0.5375740000000 1.0
C      1  0.5347780000000  0.4641290000000  0.5964140000000 1.0
C      1  0.4759470000000  0.4630480000000  0.5865200000000 1.0
C      1  0.4470070000000  0.5012240000000  0.5862320000000 1.0
C      1  0.4923150000000  0.5432510000000  0.5838130000000 1.0
C      1  0.5440650000000  0.5203200000000  0.5921160000000 1.0
C      1  0.5119800000000  0.4399240000000  0.5639880000000 1.0
C      1  0.4484620000000  0.4719250000000  0.5501070000000 1.0
C      1  0.4495020000000  0.5445910000000  0.5602340000000 1.0
C      1  0.5209020000000  0.5536680000000  0.5582090000000 1.0
C      1  0.5638430000000  0.4918940000000  0.5614640000000 1.0
C      1  0.4493440000000  0.4942890000000  0.5244960000000 1.0
C      1  0.4833380000000  0.5519780000000  0.5173500000000 1.0
C      1  0.5381200000000  0.5345400000000  0.5191350000000 1.0
C      1  0.5473560000000  0.4683650000000  0.5245190000000 1.0
C      1  0.4880210000000  0.4497390000000  0.5206170000000 1.0
C      1  0.4351110000000  0.4476990000000  0.4475960000000 1.0
C      1  0.4279690000000  0.5432740000000  0.4473690000000 1.0
C      1  0.5183340000000  0.5811160000000  0.4455820000000 1.0
C      1  0.5818870000000  0.5074490000000  0.4470620000000 1.0
C      1  0.5333560000000  0.4299210000000  0.4486430000000 1.0
C      1  0.4091370000000  0.5397090000000  0.5327140000000 1.0
C      1  0.5125270000000  0.6003760000000  0.5374640000000 1.0
C      1  0.5960970000000  0.5173900000000  0.5322610000000 1.0
C      1  0.5467400000000  0.4047510000000  0.5425020000000 1.0
C      1  0.4363080000000  0.4216800000000  0.5441770000000 1.0
C      1  0.4791530000000  0.4353250000000  0.4935270000000 1.0
C      1  0.4310010000000  0.5033250000000  0.4971990000000 1.0
C      1  0.4793590000000  0.5693600000000  0.4921380000000 1.0
C      1  0.5592280000000  0.5428590000000  0.4940170000000 1.0
C      1  0.5540990000000  0.4590450000000  0.4930500000000 1.0
C      1  0.4801030000000  0.5271140000000  0.5373740000000 1.0
C      1  0.5118320000000  0.5165840000000  0.5310870000000 1.0
C      1  0.5268000000000  0.4866000000000  0.5368390000000 1.0
C      1  0.4990970000000  0.4711810000000  0.5412210000000 1.0
C      1  0.4795260000000  0.4944380000000  0.5387940000000 1.0
C      1  0.5046350000000  0.5046140000000  0.5000870000000 1.0
END
