TITL C-2622961-1971-496 0.000488494662128049 125000 -1061.95538902623 0 0 197 (C1) n - 1
REM
REM in /nfs/bkarasulu/CARBON/AIRSS/Generating-Clusters/AIREBO/with-SteepDescent/Higher-Symm/SD-CG/HFTN-CG
REM
REM
REM
REM
REM
REM ./C.cell (b20cbc046b6831c77cfcea5457e17084)
REM
REM compiler GCC version 9.2.1 20190827 (Red Hat 9.2.1-1)
REM options -cpp -mtune=generic -march=x86-64 -g -O0 -fpre-include=/usr/include/finclude/math-vector-fortran.h
REM seed -1912016257 -110538983 -544868095 -1704770119 -432309430 -534835330 717931682 594215116 1700820938 91454448 -717980604 221612292 646526194 -169454786 1751477762 -962971430 -1431845659 658871769 1124017053 -1082090433 1902311028 1146624215 -1908251028 -708237560 1452992997 -147376886 -1923657275 2137495403 -791186294 1535501242 1414795859 -199959696 -82747896
REM
CELL 1.54180   50.00000   50.00000   50.00000   90.00000   90.00000   90.00000
LATT -1
SFAC C  
C      1  0.4045900000000  0.5377640000000  0.5483920000000 1.0
C      1  0.5049780000000  0.5453280000000  0.3911560000000 1.0
C      1  0.5823180000000  0.5349990000000  0.5616360000000 1.0
C      1  0.4018380000000  0.4700850000000  0.5595580000000 1.0
C      1  0.5044930000000  0.4589300000000  0.3947010000000 1.0
C      1  0.5958100000000  0.4651650000000  0.5503980000000 1.0
C      1  0.4429790000000  0.4103700000000  0.4800320000000 1.0
C      1  0.5515900000000  0.4070280000000  0.4642660000000 1.0
C      1  0.5118390000000  0.4076910000000  0.5593730000000 1.0
C      1  0.4427470000000  0.5850800000000  0.4722970000000 1.0
C      1  0.5512000000000  0.5900230000000  0.4606390000000 1.0
C      1  0.5043880000000  0.5896810000000  0.5616680000000 1.0
C      1  0.4818480000000  0.4569420000000  0.5269300000000 1.0
C      1  0.5026380000000  0.4555700000000  0.4692770000000 1.0
C      1  0.5292220000000  0.4663620000000  0.5065080000000 1.0
C      1  0.4777230000000  0.5298510000000  0.5148530000000 1.0
C      1  0.4958370000000  0.5350520000000  0.4735150000000 1.0
C      1  0.5257740000000  0.5445200000000  0.5160510000000 1.0
C      1  0.4966540000000  0.4816820000000  0.4396550000000 1.0
C      1  0.5629020000000  0.4826140000000  0.5313010000000 1.0
C      1  0.4503490000000  0.4836510000000  0.5331620000000 1.0
C      1  0.4930970000000  0.5153000000000  0.4391830000000 1.0
C      1  0.5525250000000  0.5150150000000  0.5313650000000 1.0
C      1  0.4475580000000  0.5173770000000  0.5372920000000 1.0
C      1  0.5681060000000  0.4493620000000  0.5263430000000 1.0
C      1  0.4385780000000  0.4536160000000  0.5440600000000 1.0
C      1  0.4920820000000  0.4489980000000  0.4312830000000 1.0
C      1  0.5635240000000  0.5470810000000  0.5285230000000 1.0
C      1  0.4413230000000  0.5515980000000  0.5415740000000 1.0
C      1  0.4940100000000  0.5478860000000  0.4290910000000 1.0
C      1  0.4456930000000  0.4811420000000  0.4795820000000 1.0
C      1  0.5515780000000  0.4923360000000  0.4536230000000 1.0
C      1  0.5130800000000  0.4785480000000  0.5546750000000 1.0
C      1  0.4382280000000  0.5108420000000  0.4769020000000 1.0
C      1  0.5470040000000  0.5214990000000  0.4605730000000 1.0
C      1  0.5115510000000  0.5071890000000  0.5689360000000 1.0
C      1  0.5195860000000  0.4606830000000  0.6174210000000 1.0
C      1  0.4048450000000  0.4636400000000  0.4564390000000 1.0
C      1  0.5856530000000  0.4608720000000  0.4307010000000 1.0
C      1  0.5150560000000  0.5369010000000  0.6001630000000 1.0
C      1  0.3910320000000  0.5364100000000  0.4606360000000 1.0
C      1  0.5881850000000  0.5351050000000  0.4253970000000 1.0
C      1  0.4737650000000  0.4836590000000  0.5731700000000 1.0
C      1  0.4564420000000  0.4842600000000  0.4412620000000 1.0
C      1  0.5679100000000  0.4808620000000  0.4906910000000 1.0
C      1  0.4640440000000  0.5253370000000  0.5628020000000 1.0
C      1  0.4544750000000  0.5243910000000  0.4329870000000 1.0
C      1  0.5720590000000  0.5235160000000  0.4915580000000 1.0
C      1  0.3780000000000  0.5116200000000  0.4698620000000 1.0
C      1  0.5853090000000  0.5105880000000  0.4088360000000 1.0
C      1  0.5288710000000  0.5125600000000  0.6193230000000 1.0
C      1  0.3814890000000  0.4806100000000  0.4699190000000 1.0
C      1  0.5901480000000  0.4814650000000  0.4086780000000 1.0
C      1  0.5347610000000  0.4831190000000  0.6236980000000 1.0
C      1  0.4807140000000  0.4401230000000  0.5969710000000 1.0
C      1  0.4217910000000  0.4472520000000  0.4340170000000 1.0
C      1  0.5954920000000  0.4427350000000  0.4670020000000 1.0
C      1  0.4841880000000  0.5535080000000  0.6016070000000 1.0
C      1  0.4195740000000  0.5626940000000  0.4267650000000 1.0
C      1  0.5962840000000  0.5563860000000  0.4703480000000 1.0
C      1  0.5396160000000  0.5748370000000  0.4329180000000 1.0
C      1  0.5353420000000  0.5760050000000  0.5626720000000 1.0
C      1  0.4265330000000  0.5700740000000  0.4978350000000 1.0
C      1  0.5365260000000  0.4214340000000  0.4374040000000 1.0
C      1  0.5384980000000  0.4286930000000  0.5652610000000 1.0
C      1  0.4251000000000  0.4300530000000  0.5015640000000 1.0
C      1  0.4910260000000  0.4670800000000  0.6091430000000 1.0
C      1  0.4111030000000  0.4801770000000  0.4301150000000 1.0
C      1  0.5976460000000  0.4732990000000  0.4585130000000 1.0
C      1  0.4875720000000  0.5235730000000  0.6144580000000 1.0
C      1  0.4104960000000  0.5322200000000  0.4380160000000 1.0
C      1  0.5975390000000  0.5283730000000  0.4541700000000 1.0
C      1  0.4773220000000  0.4782000000000  0.4674350000000 1.0
C      1  0.5368280000000  0.4793170000000  0.4778380000000 1.0
C      1  0.4834110000000  0.4875650000000  0.5401290000000 1.0
C      1  0.4688500000000  0.5172620000000  0.4629670000000 1.0
C      1  0.5397660000000  0.5247900000000  0.4936330000000 1.0
C      1  0.4918770000000  0.5196140000000  0.5441320000000 1.0
C      1  0.4790890000000  0.6035810000000  0.5162300000000 1.0
C      1  0.4928280000000  0.6042320000000  0.4702370000000 1.0
C      1  0.5258180000000  0.6045500000000  0.5045930000000 1.0
C      1  0.4803410000000  0.3835980000000  0.5242180000000 1.0
C      1  0.4903930000000  0.3869770000000  0.4766230000000 1.0
C      1  0.5285580000000  0.3854680000000  0.5081650000000 1.0
C      1  0.4688640000000  0.5577300000000  0.5605540000000 1.0
C      1  0.4642940000000  0.5548660000000  0.4413760000000 1.0
C      1  0.5639720000000  0.5562860000000  0.4957890000000 1.0
C      1  0.4752030000000  0.4542140000000  0.5600190000000 1.0
C      1  0.4606820000000  0.4526620000000  0.4415650000000 1.0
C      1  0.5569660000000  0.4505580000000  0.4960450000000 1.0
C      1  0.5972470000000  0.5589120000000  0.5022650000000 1.0
C      1  0.4532590000000  0.5588180000000  0.5907460000000 1.0
C      1  0.4471590000000  0.5666080000000  0.4149570000000 1.0
C      1  0.6063930000000  0.4372500000000  0.4921470000000 1.0
C      1  0.4539210000000  0.4418900000000  0.5797660000000 1.0
C      1  0.4457280000000  0.4413020000000  0.4135510000000 1.0
C      1  0.5549070000000  0.4627280000000  0.5807870000000 1.0
C      1  0.4086800000000  0.4654700000000  0.5101450000000 1.0
C      1  0.5383920000000  0.4586560000000  0.3995010000000 1.0
C      1  0.5686340000000  0.5462430000000  0.5852630000000 1.0
C      1  0.4010260000000  0.5462560000000  0.5169480000000 1.0
C      1  0.5375190000000  0.5430360000000  0.4018950000000 1.0
C      1  0.4783900000000  0.4788610000000  0.5014460000000 1.0
C      1  0.5080610000000  0.4890350000000  0.4771530000000 1.0
C      1  0.5127460000000  0.4833770000000  0.5226430000000 1.0
C      1  0.4765970000000  0.5071910000000  0.4945170000000 1.0
C      1  0.5130440000000  0.5174760000000  0.4809410000000 1.0
C      1  0.5204820000000  0.5138800000000  0.5266660000000 1.0
C      1  0.4623810000000  0.4792250000000  0.6138280000000 1.0
C      1  0.4269360000000  0.4936580000000  0.4063820000000 1.0
C      1  0.6127450000000  0.4862560000000  0.4854680000000 1.0
C      1  0.4603480000000  0.5092500000000  0.6125310000000 1.0
C      1  0.4231410000000  0.5240140000000  0.4082630000000 1.0
C      1  0.6143250000000  0.5177780000000  0.4818080000000 1.0
C      1  0.5235670000000  0.4435380000000  0.5385620000000 1.0
C      1  0.4565050000000  0.4428060000000  0.4988820000000 1.0
C      1  0.5269800000000  0.4507700000000  0.4517070000000 1.0
C      1  0.5280280000000  0.5460210000000  0.5491260000000 1.0
C      1  0.4505450000000  0.5465640000000  0.5030640000000 1.0
C      1  0.5249510000000  0.5537110000000  0.4535680000000 1.0
C      1  0.5298470000000  0.4775480000000  0.4334970000000 1.0
C      1  0.5432510000000  0.4672370000000  0.5519550000000 1.0
C      1  0.4389110000000  0.4688360000000  0.5071650000000 1.0
C      1  0.5256110000000  0.5243660000000  0.4350590000000 1.0
C      1  0.5429060000000  0.5192830000000  0.5637030000000 1.0
C      1  0.4297250000000  0.5202120000000  0.5084710000000 1.0
C      1  0.5510400000000  0.4398360000000  0.4695620000000 1.0
C      1  0.5003320000000  0.4392540000000  0.5602140000000 1.0
C      1  0.4506320000000  0.4400640000000  0.4655050000000 1.0
C      1  0.5573250000000  0.5508890000000  0.4635740000000 1.0
C      1  0.5021460000000  0.5544890000000  0.5661720000000 1.0
C      1  0.4459670000000  0.5493760000000  0.4694870000000 1.0
C      1  0.4731940000000  0.5477830000000  0.4030280000000 1.0
C      1  0.5969680000000  0.5424650000000  0.5325570000000 1.0
C      1  0.4293680000000  0.5434010000000  0.5710460000000 1.0
C      1  0.4736860000000  0.4584140000000  0.4042780000000 1.0
C      1  0.6004100000000  0.4517950000000  0.5194680000000 1.0
C      1  0.4278500000000  0.4604720000000  0.5748620000000 1.0
C      1  0.5570440000000  0.4831540000000  0.4138590000000 1.0
C      1  0.5552150000000  0.4883970000000  0.6020460000000 1.0
C      1  0.3896290000000  0.4877550000000  0.4986500000000 1.0
C      1  0.5534850000000  0.5170830000000  0.4169830000000 1.0
C      1  0.5514470000000  0.5209040000000  0.5964450000000 1.0
C      1  0.3980270000000  0.5197210000000  0.4961420000000 1.0
C      1  0.4748830000000  0.4120540000000  0.4804930000000 1.0
C      1  0.5375640000000  0.4103550000000  0.4929840000000 1.0
C      1  0.4906580000000  0.4091370000000  0.5358550000000 1.0
C      1  0.4728060000000  0.5797530000000  0.4629290000000 1.0
C      1  0.5408720000000  0.5801950000000  0.4886100000000 1.0
C      1  0.4827030000000  0.5802780000000  0.5391960000000 1.0
C      1  0.4375350000000  0.4269450000000  0.5303220000000 1.0
C      1  0.5049530000000  0.4209710000000  0.4368380000000 1.0
C      1  0.5573990000000  0.4226210000000  0.5401290000000 1.0
C      1  0.4367840000000  0.5766560000000  0.5254820000000 1.0
C      1  0.5081060000000  0.5787710000000  0.4280900000000 1.0
C      1  0.5527750000000  0.5761740000000  0.5375830000000 1.0
C      1  0.5004480000000  0.5649050000000  0.4711380000000 1.0
C      1  0.5117310000000  0.5675290000000  0.5008170000000 1.0
C      1  0.4804780000000  0.5634910000000  0.5107500000000 1.0
C      1  0.4964140000000  0.4343900000000  0.4882110000000 1.0
C      1  0.5223960000000  0.4336270000000  0.5068420000000 1.0
C      1  0.4812830000000  0.4294010000000  0.5159000000000 1.0
C      1  0.5510610000000  0.3982540000000  0.5281960000000 1.0
C      1  0.4521980000000  0.4011010000000  0.5318860000000 1.0
C      1  0.4949380000000  0.3983660000000  0.4487570000000 1.0
C      1  0.5490140000000  0.5988830000000  0.5229180000000 1.0
C      1  0.4506460000000  0.6001550000000  0.5263300000000 1.0
C      1  0.4981710000000  0.6009880000000  0.4406220000000 1.0
C      1  0.3973310000000  0.5581460000000  0.4852280000000 1.0
C      1  0.5636650000000  0.5566540000000  0.4190620000000 1.0
C      1  0.5378480000000  0.5578350000000  0.5896740000000 1.0
C      1  0.3998890000000  0.4450930000000  0.4842950000000 1.0
C      1  0.5562670000000  0.4447490000000  0.4249640000000 1.0
C      1  0.5346340000000  0.4413650000000  0.5966680000000 1.0
C      1  0.4192010000000  0.4275880000000  0.4623370000000 1.0
C      1  0.5742390000000  0.4274570000000  0.4491930000000 1.0
C      1  0.5069870000000  0.4237070000000  0.5890870000000 1.0
C      1  0.4185560000000  0.5651090000000  0.4591820000000 1.0
C      1  0.5765310000000  0.5715390000000  0.4474820000000 1.0
C      1  0.5087290000000  0.5751950000000  0.5923340000000 1.0
C      1  0.4086000000000  0.5106900000000  0.5333900000000 1.0
C      1  0.5161960000000  0.5165710000000  0.4030540000000 1.0
C      1  0.5740990000000  0.5057020000000  0.5637080000000 1.0
C      1  0.4028840000000  0.4837450000000  0.5361110000000 1.0
C      1  0.5190360000000  0.4874600000000  0.4028130000000 1.0
C      1  0.5796190000000  0.4790540000000  0.5673460000000 1.0
C      1  0.4560410000000  0.5201510000000  0.4005690000000 1.0
C      1  0.5971030000000  0.5182050000000  0.5111250000000 1.0
C      1  0.4445900000000  0.5178520000000  0.5866840000000 1.0
C      1  0.4593620000000  0.4869660000000  0.4079820000000 1.0
C      1  0.5925940000000  0.4841970000000  0.5127830000000 1.0
C      1  0.4438110000000  0.4843320000000  0.5862260000000 1.0
C      1  0.4295600000000  0.5048270000000  0.4445790000000 1.0
C      1  0.4937720000000  0.4975380000000  0.5940960000000 1.0
C      1  0.5809420000000  0.5016490000000  0.4670760000000 1.0
C      1  0.5003740000000  0.3778650000000  0.5023750000000 1.0
C      1  0.4990340000000  0.6084730000000  0.4972420000000 1.0
END
