TITL C-2622964-2985-531 0.000129450297896993 125000 -460.781059065659 0 0 83 (C1) n - 1
REM
REM in /nfs/bkarasulu/CARBON/AIRSS/Generating-Clusters/AIREBO/with-SteepDescent/Higher-Symm/SD-CG/HFTN-CG
REM
REM
REM
REM
REM
REM ./C.cell (b20cbc046b6831c77cfcea5457e17084)
REM
REM compiler GCC version 9.2.1 20190827 (Red Hat 9.2.1-1)
REM options -cpp -mtune=generic -march=x86-64 -g -O0 -fpre-include=/usr/include/finclude/math-vector-fortran.h
REM seed 622580074 1657978704 -1883466301 1686021852 660945490 577567546 1893728524 -1842885162 94635750 -1903895553 -997928245 -1445796285 -888790891 1733439553 -1469258109 1494277575 298487959 231353816 944939956 1769903866 962160449 -2001028528 841003320 -878230261 1429380268 2019357557 1830920213 132170223 1581187428 1353665291 1774064555 976123279 377934946
REM
CELL 1.54180   50.00000   50.00000   50.00000   90.00000   90.00000   90.00000
LATT -1
SFAC C  
C      1  0.4986560000000  0.4726280000000  0.5738960000000 1.0
C      1  0.5268670000000  0.5143700000000  0.5735670000000 1.0
C      1  0.4782430000000  0.5172310000000  0.5767700000000 1.0
C      1  0.5039310000000  0.4739520000000  0.4295970000000 1.0
C      1  0.4781850000000  0.5145280000000  0.4203130000000 1.0
C      1  0.5266910000000  0.5195160000000  0.4235140000000 1.0
C      1  0.4867620000000  0.4488570000000  0.4587430000000 1.0
C      1  0.5472930000000  0.5182530000000  0.4576570000000 1.0
C      1  0.4631320000000  0.5316070000000  0.4632390000000 1.0
C      1  0.5086080000000  0.4468590000000  0.5352390000000 1.0
C      1  0.4570740000000  0.5097550000000  0.5409770000000 1.0
C      1  0.5403210000000  0.5363420000000  0.5316330000000 1.0
C      1  0.4892950000000  0.5707980000000  0.5489590000000 1.0
C      1  0.4440510000000  0.4504610000000  0.5536210000000 1.0
C      1  0.5669650000000  0.4725440000000  0.5520210000000 1.0
C      1  0.5094650000000  0.5761970000000  0.4461210000000 1.0
C      1  0.5544800000000  0.4549740000000  0.4516270000000 1.0
C      1  0.4332580000000  0.4773590000000  0.4474680000000 1.0
C      1  0.5484650000000  0.4998270000000  0.5544140000000 1.0
C      1  0.4809020000000  0.5391510000000  0.5527390000000 1.0
C      1  0.4754420000000  0.4594560000000  0.5528310000000 1.0
C      1  0.4579040000000  0.4997630000000  0.4400440000000 1.0
C      1  0.5244820000000  0.5471090000000  0.4420190000000 1.0
C      1  0.5227410000000  0.4651740000000  0.4546760000000 1.0
C      1  0.4383120000000  0.4943140000000  0.5567160000000 1.0
C      1  0.5306430000000  0.4451610000000  0.5520610000000 1.0
C      1  0.5328220000000  0.5565950000000  0.5493320000000 1.0
C      1  0.5714920000000  0.4966060000000  0.4500870000000 1.0
C      1  0.4587130000000  0.4395990000000  0.4464680000000 1.0
C      1  0.4698680000000  0.5545910000000  0.4461340000000 1.0
C      1  0.5369800000000  0.4395250000000  0.4729710000000 1.0
C      1  0.5282400000000  0.5558610000000  0.4746820000000 1.0
C      1  0.4394510000000  0.4999020000000  0.4686040000000 1.0
C      1  0.4670620000000  0.4503070000000  0.5211640000000 1.0
C      1  0.4700210000000  0.5584220000000  0.5266860000000 1.0
C      1  0.5597970000000  0.4980980000000  0.5224030000000 1.0
C      1  0.5315340000000  0.4897390000000  0.5069170000000 1.0
C      1  0.4837220000000  0.5428880000000  0.5004820000000 1.0
C      1  0.4831120000000  0.4710130000000  0.4994920000000 1.0
C      1  0.4562820000000  0.4900590000000  0.4963440000000 1.0
C      1  0.5094610000000  0.5337240000000  0.4908720000000 1.0
C      1  0.5279010000000  0.4622650000000  0.4963590000000 1.0
C      1  0.4452510000000  0.5272610000000  0.5243360000000 1.0
C      1  0.5004200000000  0.4288120000000  0.5172370000000 1.0
C      1  0.5607360000000  0.5368550000000  0.5112280000000 1.0
C      1  0.5615630000000  0.5349700000000  0.4800040000000 1.0
C      1  0.5095070000000  0.4132750000000  0.4764150000000 1.0
C      1  0.4314730000000  0.5365190000000  0.4759850000000 1.0
C      1  0.4300340000000  0.4740040000000  0.5109930000000 1.0
C      1  0.5561140000000  0.4476380000000  0.5070480000000 1.0
C      1  0.5114710000000  0.5830200000000  0.5093330000000 1.0
C      1  0.5768730000000  0.4673430000000  0.4914340000000 1.0
C      1  0.4308280000000  0.4499550000000  0.4869140000000 1.0
C      1  0.4832940000000  0.5751340000000  0.4929270000000 1.0
C      1  0.5312370000000  0.5431330000000  0.5751130000000 1.0
C      1  0.4517790000000  0.5068820000000  0.5805060000000 1.0
C      1  0.5211320000000  0.4549030000000  0.5772940000000 1.0
C      1  0.4725250000000  0.5428980000000  0.4197870000000 1.0
C      1  0.5551510000000  0.5095410000000  0.4255690000000 1.0
C      1  0.4828680000000  0.4515610000000  0.4258770000000 1.0
C      1  0.5819710000000  0.4886110000000  0.5095850000000 1.0
C      1  0.4549120000000  0.5829640000000  0.5093730000000 1.0
C      1  0.4462810000000  0.4375090000000  0.5095800000000 1.0
C      1  0.4181150000000  0.5008980000000  0.4944220000000 1.0
C      1  0.5313540000000  0.5789860000000  0.4890330000000 1.0
C      1  0.5546360000000  0.4178060000000  0.4917430000000 1.0
C      1  0.4944560000000  0.4775220000000  0.5311890000000 1.0
C      1  0.5232700000000  0.5091910000000  0.5335520000000 1.0
C      1  0.4910840000000  0.5092680000000  0.5400290000000 1.0
C      1  0.4951810000000  0.4793550000000  0.4688160000000 1.0
C      1  0.4856080000000  0.5065150000000  0.4585930000000 1.0
C      1  0.5142270000000  0.5211040000000  0.4613790000000 1.0
C      1  0.4853980000000  0.5737490000000  0.4591420000000 1.0
C      1  0.4368260000000  0.4519850000000  0.4588410000000 1.0
C      1  0.5729810000000  0.4722870000000  0.4632470000000 1.0
C      1  0.5144290000000  0.5756000000000  0.5375810000000 1.0
C      1  0.5550500000000  0.4512490000000  0.5395370000000 1.0
C      1  0.4296690000000  0.4714450000000  0.5425860000000 1.0
C      1  0.4562740000000  0.5240580000000  0.4956400000000 1.0
C      1  0.5362630000000  0.5188000000000  0.4960250000000 1.0
C      1  0.5004770000000  0.4437100000000  0.4885940000000 1.0
C      1  0.5039180000000  0.5020030000000  0.4214980000000 1.0
C      1  0.5018120000000  0.5009130000000  0.5779140000000 1.0
END
