TITL C-2622959-7779-15 0.00220949183598703 125000 -963.767112488348 0 0 186 (C1) n - 1
REM
REM in /nfs/bkarasulu/CARBON/AIRSS/Generating-Clusters/AIREBO/with-SteepDescent/Higher-Symm/SD-CG/HFTN-CG
REM
REM
REM
REM
REM
REM ./C.cell (b20cbc046b6831c77cfcea5457e17084)
REM
REM compiler GCC version 9.2.1 20190827 (Red Hat 9.2.1-1)
REM options -cpp -mtune=generic -march=x86-64 -g -O0 -fpre-include=/usr/include/finclude/math-vector-fortran.h
REM seed 1492424928 -924318484 311216290 -1787018156 1289928705 749461933 289166534 -1350604592 205785027 1742039074 -1109157128 -1246159281 1503429730 985974644 -942507919 -446282047 -1439268510 -1780514311 1477358423 1875414998 1099675999 -1255188151 -327526850 759989284 854153340 -1060425558 1386862386 1260410793 -373622397 701310756 -107728509 -171812238 -146985832
REM
CELL 1.54180   50.00000   50.00000   50.00000   90.00000   90.00000   90.00000
LATT -1
SFAC C  
C      1  0.5639940000000  0.5516560000000  0.5115390000000 1.0
C      1  0.4802410000000  0.5810010000000  0.4871270000000 1.0
C      1  0.4293970000000  0.5287120000000  0.5109340000000 1.0
C      1  0.4351690000000  0.4430100000000  0.4868630000000 1.0
C      1  0.5243410000000  0.4222050000000  0.5156310000000 1.0
C      1  0.5867380000000  0.4697250000000  0.4864070000000 1.0
C      1  0.4459150000000  0.4781250000000  0.5453030000000 1.0
C      1  0.4948760000000  0.4435350000000  0.4590880000000 1.0
C      1  0.5409430000000  0.4652060000000  0.5431430000000 1.0
C      1  0.5519000000000  0.5227300000000  0.4505170000000 1.0
C      1  0.5042020000000  0.5463910000000  0.5407980000000 1.0
C      1  0.4536700000000  0.5367850000000  0.4596370000000 1.0
C      1  0.5901670000000  0.5177910000000  0.4405310000000 1.0
C      1  0.5361700000000  0.5758040000000  0.5678550000000 1.0
C      1  0.4441190000000  0.5685870000000  0.4378620000000 1.0
C      1  0.4132030000000  0.4871170000000  0.5663970000000 1.0
C      1  0.4634520000000  0.4212080000000  0.4299300000000 1.0
C      1  0.5549090000000  0.4316250000000  0.5681980000000 1.0
C      1  0.4198300000000  0.5175620000000  0.4454970000000 1.0
C      1  0.4425870000000  0.4386230000000  0.5491990000000 1.0
C      1  0.5292120000000  0.4250360000000  0.4507530000000 1.0
C      1  0.5832150000000  0.4771250000000  0.5484510000000 1.0
C      1  0.5475510000000  0.5623420000000  0.4485340000000 1.0
C      1  0.4715440000000  0.5717870000000  0.5514940000000 1.0
C      1  0.4182850000000  0.4685130000000  0.5017190000000 1.0
C      1  0.5023680000000  0.4019900000000  0.4990260000000 1.0
C      1  0.5631380000000  0.4549570000000  0.5003530000000 1.0
C      1  0.5919450000000  0.5413880000000  0.5025650000000 1.0
C      1  0.5039140000000  0.5951000000000  0.5071030000000 1.0
C      1  0.4233840000000  0.5599540000000  0.4988430000000 1.0
C      1  0.3899370000000  0.5185940000000  0.4909110000000 1.0
C      1  0.4428810000000  0.4104900000000  0.5087200000000 1.0
C      1  0.5537690000000  0.3979830000000  0.4866040000000 1.0
C      1  0.6141180000000  0.4843610000000  0.5115460000000 1.0
C      1  0.5668510000000  0.5858420000000  0.4911260000000 1.0
C      1  0.4580430000000  0.6022300000000  0.5127050000000 1.0
C      1  0.5120710000000  0.4834050000000  0.4355990000000 1.0
C      1  0.5211130000000  0.5107240000000  0.5629970000000 1.0
C      1  0.5143450000000  0.5230270000000  0.4341330000000 1.0
C      1  0.4738090000000  0.5058600000000  0.5599290000000 1.0
C      1  0.4786020000000  0.4931660000000  0.4380230000000 1.0
C      1  0.4987510000000  0.4874320000000  0.5565400000000 1.0
C      1  0.5014380000000  0.4107620000000  0.4647350000000 1.0
C      1  0.5701340000000  0.4520920000000  0.5316550000000 1.0
C      1  0.5764540000000  0.5455990000000  0.4548940000000 1.0
C      1  0.5016020000000  0.5799540000000  0.5376740000000 1.0
C      1  0.4278930000000  0.5564740000000  0.4653030000000 1.0
C      1  0.4204300000000  0.4589400000000  0.5333010000000 1.0
C      1  0.4973860000000  0.5784480000000  0.4260900000000 1.0
C      1  0.4319390000000  0.5356960000000  0.5744790000000 1.0
C      1  0.4300720000000  0.4655940000000  0.4245360000000 1.0
C      1  0.5035370000000  0.4266880000000  0.5787460000000 1.0
C      1  0.5678560000000  0.4626500000000  0.4277830000000 1.0
C      1  0.5666110000000  0.5364100000000  0.5761250000000 1.0
C      1  0.4854190000000  0.4712850000000  0.6047380000000 1.0
C      1  0.5248690000000  0.4670030000000  0.4015310000000 1.0
C      1  0.5356250000000  0.5038600000000  0.6045860000000 1.0
C      1  0.5123940000000  0.5361890000000  0.4029360000000 1.0
C      1  0.4762100000000  0.5322500000000  0.6018230000000 1.0
C      1  0.4627220000000  0.4911090000000  0.4013840000000 1.0
C      1  0.5319680000000  0.5537700000000  0.6095310000000 1.0
C      1  0.4656630000000  0.5477790000000  0.3963010000000 1.0
C      1  0.4330900000000  0.4965710000000  0.6100820000000 1.0
C      1  0.4669470000000  0.4481190000000  0.3905690000000 1.0
C      1  0.5379970000000  0.4457820000000  0.6120940000000 1.0
C      1  0.5682530000000  0.5047370000000  0.3953180000000 1.0
C      1  0.5020770000000  0.5480200000000  0.4522350000000 1.0
C      1  0.4559730000000  0.5283810000000  0.5436000000000 1.0
C      1  0.4527970000000  0.4821130000000  0.4527580000000 1.0
C      1  0.4899510000000  0.4567790000000  0.5470880000000 1.0
C      1  0.5402830000000  0.4755670000000  0.4530870000000 1.0
C      1  0.5470410000000  0.5144850000000  0.5490930000000 1.0
C      1  0.4509670000000  0.4420280000000  0.4143830000000 1.0
C      1  0.5346790000000  0.4292000000000  0.5886200000000 1.0
C      1  0.5772140000000  0.4943760000000  0.4195500000000 1.0
C      1  0.5488850000000  0.5589450000000  0.5867160000000 1.0
C      1  0.4675550000000  0.5667390000000  0.4162560000000 1.0
C      1  0.4223020000000  0.5067720000000  0.5857940000000 1.0
C      1  0.4409870000000  0.4884920000000  0.4977530000000 1.0
C      1  0.4883690000000  0.4545720000000  0.5024000000000 1.0
C      1  0.5391590000000  0.4715760000000  0.4928320000000 1.0
C      1  0.5411400000000  0.5172180000000  0.5050050000000 1.0
C      1  0.5088130000000  0.5433470000000  0.4961260000000 1.0
C      1  0.4722630000000  0.5264200000000  0.5002670000000 1.0
C      1  0.4690750000000  0.4023190000000  0.4920910000000 1.0
C      1  0.5646840000000  0.4217190000000  0.5073630000000 1.0
C      1  0.6049970000000  0.5112350000000  0.4952770000000 1.0
C      1  0.5376640000000  0.5910070000000  0.5056870000000 1.0
C      1  0.4400570000000  0.5881600000000  0.4897330000000 1.0
C      1  0.3934070000000  0.4909210000000  0.5077040000000 1.0
C      1  0.4811950000000  0.4502800000000  0.5787050000000 1.0
C      1  0.5375450000000  0.4473110000000  0.4249850000000 1.0
C      1  0.5596670000000  0.5077280000000  0.5861320000000 1.0
C      1  0.5260300000000  0.5606900000000  0.4215370000000 1.0
C      1  0.4629480000000  0.5496090000000  0.5765750000000 1.0
C      1  0.4363720000000  0.4988120000000  0.4206390000000 1.0
C      1  0.4358710000000  0.4527100000000  0.4554670000000 1.0
C      1  0.5227300000000  0.4128020000000  0.5543550000000 1.0
C      1  0.5738640000000  0.4797830000000  0.4565610000000 1.0
C      1  0.5647590000000  0.5427310000000  0.5427650000000 1.0
C      1  0.4782640000000  0.5826040000000  0.4532090000000 1.0
C      1  0.4220440000000  0.5245500000000  0.5438850000000 1.0
C      1  0.4516930000000  0.4411530000000  0.5165230000000 1.0
C      1  0.5327760000000  0.4232000000000  0.4845220000000 1.0
C      1  0.5810920000000  0.4869520000000  0.5159490000000 1.0
C      1  0.5481410000000  0.5590970000000  0.4823950000000 1.0
C      1  0.4682540000000  0.5719240000000  0.5176250000000 1.0
C      1  0.4196600000000  0.5201850000000  0.4794750000000 1.0
C      1  0.5119270000000  0.4789350000000  0.5848650000000 1.0
C      1  0.5246720000000  0.4994530000000  0.4116840000000 1.0
C      1  0.5134280000000  0.5246900000000  0.5894310000000 1.0
C      1  0.4845440000000  0.5200430000000  0.4180300000000 1.0
C      1  0.4670070000000  0.5040310000000  0.5903980000000 1.0
C      1  0.4877480000000  0.4722200000000  0.4146030000000 1.0
C      1  0.5392570000000  0.5191540000000  0.3909280000000 1.0
C      1  0.5021210000000  0.5454050000000  0.6124330000000 1.0
C      1  0.4705890000000  0.5180840000000  0.3870850000000 1.0
C      1  0.4600630000000  0.4836690000000  0.6158410000000 1.0
C      1  0.4973720000000  0.4568790000000  0.3858270000000 1.0
C      1  0.5313980000000  0.4732240000000  0.6107710000000 1.0
C      1  0.4681500000000  0.4685800000000  0.5238190000000 1.0
C      1  0.5194140000000  0.4521800000000  0.4778540000000 1.0
C      1  0.5517980000000  0.4921320000000  0.5254350000000 1.0
C      1  0.5272890000000  0.5353250000000  0.4698850000000 1.0
C      1  0.4780400000000  0.5426860000000  0.5252790000000 1.0
C      1  0.4501790000000  0.5063860000000  0.4736110000000 1.0
C      1  0.5101510000000  0.6032970000000  0.4454760000000 1.0
C      1  0.4123200000000  0.5596010000000  0.5603420000000 1.0
C      1  0.4037620000000  0.4609240000000  0.4455730000000 1.0
C      1  0.4920420000000  0.4022690000000  0.5569140000000 1.0
C      1  0.5840710000000  0.4396290000000  0.4468630000000 1.0
C      1  0.5953660000000  0.5364280000000  0.5579790000000 1.0
C      1  0.3966630000000  0.5523890000000  0.4792030000000 1.0
C      1  0.4151680000000  0.4270360000000  0.5227230000000 1.0
C      1  0.5165840000000  0.3729490000000  0.4972750000000 1.0
C      1  0.6027850000000  0.4541870000000  0.5223850000000 1.0
C      1  0.5879220000000  0.5600540000000  0.4785830000000 1.0
C      1  0.4856350000000  0.6228360000000  0.5143810000000 1.0
C      1  0.4805510000000  0.5485810000000  0.4768280000000 1.0
C      1  0.4487670000000  0.5035050000000  0.5230110000000 1.0
C      1  0.4684320000000  0.4403800000000  0.4802830000000 1.0
C      1  0.5147170000000  0.4525020000000  0.5243160000000 1.0
C      1  0.5454780000000  0.5003340000000  0.4758010000000 1.0
C      1  0.5317570000000  0.5461420000000  0.5208700000000 1.0
C      1  0.4981940000000  0.4767340000000  0.4828900000000 1.0
C      1  0.5201870000000  0.4848210000000  0.5152630000000 1.0
C      1  0.5132520000000  0.5046240000000  0.4739840000000 1.0
C      1  0.5081820000000  0.5150430000000  0.5130740000000 1.0
C      1  0.4820500000000  0.5052800000000  0.4776910000000 1.0
C      1  0.4815150000000  0.4981270000000  0.5166960000000 1.0
C      1  0.4491250000000  0.5901020000000  0.4630410000000 1.0
C      1  0.4015580000000  0.4989910000000  0.5397400000000 1.0
C      1  0.4679030000000  0.4140670000000  0.4601900000000 1.0
C      1  0.5498850000000  0.4170490000000  0.5376190000000 1.0
C      1  0.5956120000000  0.5034430000000  0.4676710000000 1.0
C      1  0.5353870000000  0.5766210000000  0.5357870000000 1.0
C      1  0.5440310000000  0.4800540000000  0.5736440000000 1.0
C      1  0.5489210000000  0.5355130000000  0.4191250000000 1.0
C      1  0.4968940000000  0.5492530000000  0.5726700000000 1.0
C      1  0.4541360000000  0.5268180000000  0.4283420000000 1.0
C      1  0.4570840000000  0.4742370000000  0.5771830000000 1.0
C      1  0.5034480000000  0.4453400000000  0.4282940000000 1.0
C      1  0.5200730000000  0.5995580000000  0.4775170000000 1.0
C      1  0.4136540000000  0.5692870000000  0.5290120000000 1.0
C      1  0.3981350000000  0.4758100000000  0.4761440000000 1.0
C      1  0.4803940000000  0.4039560000000  0.5249050000000 1.0
C      1  0.5782860000000  0.4270290000000  0.4766350000000 1.0
C      1  0.5991480000000  0.5225620000000  0.5271190000000 1.0
C      1  0.5965720000000  0.5909980000000  0.4806940000000 1.0
C      1  0.4722180000000  0.6146880000000  0.4844220000000 1.0
C      1  0.3708590000000  0.5438390000000  0.4952780000000 1.0
C      1  0.4147170000000  0.4159140000000  0.4905970000000 1.0
C      1  0.5427050000000  0.3736010000000  0.4883590000000 1.0
C      1  0.6179020000000  0.4572750000000  0.4919790000000 1.0
C      1  0.4247060000000  0.5438440000000  0.4276500000000 1.0
C      1  0.4273050000000  0.4585380000000  0.5723580000000 1.0
C      1  0.4895280000000  0.4189070000000  0.4185820000000 1.0
C      1  0.5678540000000  0.4570570000000  0.5710220000000 1.0
C      1  0.5788700000000  0.5372000000000  0.4161130000000 1.0
C      1  0.5097590000000  0.5774440000000  0.5767490000000 1.0
C      1  0.5544750000000  0.4454920000000  0.4607450000000 1.0
C      1  0.5801430000000  0.5070060000000  0.5503160000000 1.0
C      1  0.5195880000000  0.5734010000000  0.4586620000000 1.0
C      1  0.4418300000000  0.5593030000000  0.5442470000000 1.0
C      1  0.4195070000000  0.4886720000000  0.4552220000000 1.0
C      1  0.4728180000000  0.4274040000000  0.5471190000000 1.0
END
