TITL C-2622968-4806-310 0.000212360089973385 125000 -1029.65941681602 0 0 173 (C1) n - 1
REM
REM in /nfs/bkarasulu/CARBON/AIRSS/Generating-Clusters/AIREBO/with-SteepDescent/Higher-Symm/SD-CG/HFTN-CG
REM
REM
REM
REM
REM
REM ./C.cell (b20cbc046b6831c77cfcea5457e17084)
REM
REM compiler GCC version 9.2.1 20190827 (Red Hat 9.2.1-1)
REM options -cpp -mtune=generic -march=x86-64 -g -O0 -fpre-include=/usr/include/finclude/math-vector-fortran.h
REM seed -150467911 -38394815 -1888088007 -1753804910 1232194116 -313702667 881482660 405090079 226724891 630320437 1872931182 844506777 1720402461 -1907103592 -1007219633 -1861393509 -1755651005 -468517051 608917315 1817654880 1117508868 1893905450 1867010923 -1717219281 -606347757 536686025 -559775607 -616890745 1277681826 -480434155 1707577514 1229456075 -755458899
REM
CELL 1.54180   50.00000   50.00000   50.00000   90.00000   90.00000   90.00000
LATT -1
SFAC C  
C      1  0.4335290000000  0.4878550000000  0.5811990000000 1.0
C      1  0.4852870000000  0.5916730000000  0.4252560000000 1.0
C      1  0.5805500000000  0.4318270000000  0.4895950000000 1.0
C      1  0.4493090000000  0.5168810000000  0.3981530000000 1.0
C      1  0.5664800000000  0.4779070000000  0.4068000000000 1.0
C      1  0.5619020000000  0.4997650000000  0.5887670000000 1.0
C      1  0.4980710000000  0.4102110000000  0.5625460000000 1.0
C      1  0.5182450000000  0.5972770000000  0.5499840000000 1.0
C      1  0.5078130000000  0.4149220000000  0.4281880000000 1.0
C      1  0.5873050000000  0.5703440000000  0.5109390000000 1.0
C      1  0.3969480000000  0.4373380000000  0.5151350000000 1.0
C      1  0.4063090000000  0.5611130000000  0.5009840000000 1.0
C      1  0.4300250000000  0.5777310000000  0.4888090000000 1.0
C      1  0.4930570000000  0.4359430000000  0.5818830000000 1.0
C      1  0.5861450000000  0.4862100000000  0.4335900000000 1.0
C      1  0.4456330000000  0.3985470000000  0.5157530000000 1.0
C      1  0.5590300000000  0.4079570000000  0.4982600000000 1.0
C      1  0.5620680000000  0.5919300000000  0.5061070000000 1.0
C      1  0.4963340000000  0.5611370000000  0.4151100000000 1.0
C      1  0.5154280000000  0.5551560000000  0.5950320000000 1.0
C      1  0.5112380000000  0.4439400000000  0.4101840000000 1.0
C      1  0.5864060000000  0.5108340000000  0.5705850000000 1.0
C      1  0.4023690000000  0.5106590000000  0.4438370000000 1.0
C      1  0.4108010000000  0.4983590000000  0.5614280000000 1.0
C      1  0.5821130000000  0.5314120000000  0.5151730000000 1.0
C      1  0.5271290000000  0.5167090000000  0.5791670000000 1.0
C      1  0.5011690000000  0.5977930000000  0.5142170000000 1.0
C      1  0.5900880000000  0.4819150000000  0.5030970000000 1.0
C      1  0.4173540000000  0.5243210000000  0.4817680000000 1.0
C      1  0.3983070000000  0.4739780000000  0.4994310000000 1.0
C      1  0.5269650000000  0.4938640000000  0.4327340000000 1.0
C      1  0.4832500000000  0.5027880000000  0.4130620000000 1.0
C      1  0.4811800000000  0.4975470000000  0.5915840000000 1.0
C      1  0.4982250000000  0.4063740000000  0.4798540000000 1.0
C      1  0.4840310000000  0.5727550000000  0.4714390000000 1.0
C      1  0.4876460000000  0.4256710000000  0.5273820000000 1.0
C      1  0.5889520000000  0.5006790000000  0.5258680000000 1.0
C      1  0.5267850000000  0.5755290000000  0.5146710000000 1.0
C      1  0.4989050000000  0.5190450000000  0.5974370000000 1.0
C      1  0.5726130000000  0.4890230000000  0.4775300000000 1.0
C      1  0.4155330000000  0.4805710000000  0.5259790000000 1.0
C      1  0.3979510000000  0.4959510000000  0.4805920000000 1.0
C      1  0.5257680000000  0.4236430000000  0.4826820000000 1.0
C      1  0.4800700000000  0.4122730000000  0.5011940000000 1.0
C      1  0.4800600000000  0.5950280000000  0.4952230000000 1.0
C      1  0.5068040000000  0.4835570000000  0.4111560000000 1.0
C      1  0.4918770000000  0.4743190000000  0.5724780000000 1.0
C      1  0.4849570000000  0.5253970000000  0.4337410000000 1.0
C      1  0.4726850000000  0.4500740000000  0.6052120000000 1.0
C      1  0.4534910000000  0.5980480000000  0.4748350000000 1.0
C      1  0.6075980000000  0.4706830000000  0.4550120000000 1.0
C      1  0.4896660000000  0.5464730000000  0.3870090000000 1.0
C      1  0.5239060000000  0.4667530000000  0.3882790000000 1.0
C      1  0.5231500000000  0.5335840000000  0.6151070000000 1.0
C      1  0.4664170000000  0.3803150000000  0.5227070000000 1.0
C      1  0.5496290000000  0.6186970000000  0.5177380000000 1.0
C      1  0.5409070000000  0.3934000000000  0.4787880000000 1.0
C      1  0.6054220000000  0.5228990000000  0.5456590000000 1.0
C      1  0.3908660000000  0.4793660000000  0.5493570000000 1.0
C      1  0.3817310000000  0.5210670000000  0.4643930000000 1.0
C      1  0.4777480000000  0.5986780000000  0.4508390000000 1.0
C      1  0.4600080000000  0.4744420000000  0.5979120000000 1.0
C      1  0.5986990000000  0.4589780000000  0.4798680000000 1.0
C      1  0.4865420000000  0.3930940000000  0.5356310000000 1.0
C      1  0.5182250000000  0.3963650000000  0.4547440000000 1.0
C      1  0.5245640000000  0.6169440000000  0.5280520000000 1.0
C      1  0.4770110000000  0.5223980000000  0.3869970000000 1.0
C      1  0.5454020000000  0.5145830000000  0.6078300000000 1.0
C      1  0.5509410000000  0.4737000000000  0.3845640000000 1.0
C      1  0.6072510000000  0.5502040000000  0.5285040000000 1.0
C      1  0.3898410000000  0.5442540000000  0.4832540000000 1.0
C      1  0.3808480000000  0.4609870000000  0.5272370000000 1.0
C      1  0.4037620000000  0.4445660000000  0.4858640000000 1.0
C      1  0.4517990000000  0.4902630000000  0.4162760000000 1.0
C      1  0.4890720000000  0.4234310000000  0.4540750000000 1.0
C      1  0.4106920000000  0.5505860000000  0.5260640000000 1.0
C      1  0.5743280000000  0.4544500000000  0.5111820000000 1.0
C      1  0.5757960000000  0.5478780000000  0.4881610000000 1.0
C      1  0.4566880000000  0.5091560000000  0.5747160000000 1.0
C      1  0.5463620000000  0.4779290000000  0.5739710000000 1.0
C      1  0.5388300000000  0.5218360000000  0.4269450000000 1.0
C      1  0.4954460000000  0.5763820000000  0.5391620000000 1.0
C      1  0.5233860000000  0.4180420000000  0.5430520000000 1.0
C      1  0.5309220000000  0.5690940000000  0.4560330000000 1.0
C      1  0.4215640000000  0.4898630000000  0.4592230000000 1.0
C      1  0.4507760000000  0.4193690000000  0.4914910000000 1.0
C      1  0.4874880000000  0.4596950000000  0.4254440000000 1.0
C      1  0.4193800000000  0.5209140000000  0.5407560000000 1.0
C      1  0.5657660000000  0.5109760000000  0.4449610000000 1.0
C      1  0.5698010000000  0.4882380000000  0.5513560000000 1.0
C      1  0.4558760000000  0.5743750000000  0.5071760000000 1.0
C      1  0.5494670000000  0.5877950000000  0.4782090000000 1.0
C      1  0.5506820000000  0.4086280000000  0.5246640000000 1.0
C      1  0.4950240000000  0.5420610000000  0.5741440000000 1.0
C      1  0.5251390000000  0.5530110000000  0.4266380000000 1.0
C      1  0.5202960000000  0.4564670000000  0.5780550000000 1.0
C      1  0.5685550000000  0.5820240000000  0.4555990000000 1.0
C      1  0.5836470000000  0.4604550000000  0.5590870000000 1.0
C      1  0.4692950000000  0.5565100000000  0.5734100000000 1.0
C      1  0.5719380000000  0.4179050000000  0.5443430000000 1.0
C      1  0.4486290000000  0.5798430000000  0.5368330000000 1.0
C      1  0.4405530000000  0.4235170000000  0.4637590000000 1.0
C      1  0.5824350000000  0.5390050000000  0.4405810000000 1.0
C      1  0.4227250000000  0.4634550000000  0.4460200000000 1.0
C      1  0.4262560000000  0.5442780000000  0.5619070000000 1.0
C      1  0.4608800000000  0.4451670000000  0.4252610000000 1.0
C      1  0.5538560000000  0.5663860000000  0.4091670000000 1.0
C      1  0.5476650000000  0.4389170000000  0.5819540000000 1.0
C      1  0.5737670000000  0.4500270000000  0.5839720000000 1.0
C      1  0.5809520000000  0.5573590000000  0.4607200000000 1.0
C      1  0.4698610000000  0.5763750000000  0.5540110000000 1.0
C      1  0.5630910000000  0.5402030000000  0.4179240000000 1.0
C      1  0.4483290000000  0.5388390000000  0.5769460000000 1.0
C      1  0.4402280000000  0.4631170000000  0.4248200000000 1.0
C      1  0.5827710000000  0.4429420000000  0.5380660000000 1.0
C      1  0.4189790000000  0.4413150000000  0.4628950000000 1.0
C      1  0.4243140000000  0.5695660000000  0.5457680000000 1.0
C      1  0.4604450000000  0.4250370000000  0.4444090000000 1.0
C      1  0.5481180000000  0.4186250000000  0.5629730000000 1.0
C      1  0.5495580000000  0.5840770000000  0.4318550000000 1.0
C      1  0.4602620000000  0.5633010000000  0.4530780000000 1.0
C      1  0.5673550000000  0.4404820000000  0.4636260000000 1.0
C      1  0.4402760000000  0.4621770000000  0.5655270000000 1.0
C      1  0.4662770000000  0.4238570000000  0.5510370000000 1.0
C      1  0.5406200000000  0.5835780000000  0.5587720000000 1.0
C      1  0.5371580000000  0.4241700000000  0.4331160000000 1.0
C      1  0.5689360000000  0.5477440000000  0.5382200000000 1.0
C      1  0.4189850000000  0.4326480000000  0.5335710000000 1.0
C      1  0.4199020000000  0.5437940000000  0.4571670000000 1.0
C      1  0.4410270000000  0.5377900000000  0.4146820000000 1.0
C      1  0.5485720000000  0.4735730000000  0.4328140000000 1.0
C      1  0.5481710000000  0.5404250000000  0.5776460000000 1.0
C      1  0.4674330000000  0.4516070000000  0.5659240000000 1.0
C      1  0.5679820000000  0.4681390000000  0.4559460000000 1.0
C      1  0.4348020000000  0.5653950000000  0.4615770000000 1.0
C      1  0.4668970000000  0.5498820000000  0.4279490000000 1.0
C      1  0.5379780000000  0.5672970000000  0.5807260000000 1.0
C      1  0.5433240000000  0.4472560000000  0.4168500000000 1.0
C      1  0.5704760000000  0.5368620000000  0.5630920000000 1.0
C      1  0.4187720000000  0.5323870000000  0.4306040000000 1.0
C      1  0.4242790000000  0.4573610000000  0.5441690000000 1.0
C      1  0.4394190000000  0.4146130000000  0.5380870000000 1.0
C      1  0.5443270000000  0.4272400000000  0.4584380000000 1.0
C      1  0.5539300000000  0.5725720000000  0.5328510000000 1.0
C      1  0.5027690000000  0.4735380000000  0.5409680000000 1.0
C      1  0.4675360000000  0.5450470000000  0.5050620000000 1.0
C      1  0.5493950000000  0.5090900000000  0.4749230000000 1.0
C      1  0.4989920000000  0.5246660000000  0.4600540000000 1.0
C      1  0.4902970000000  0.4729060000000  0.4552320000000 1.0
C      1  0.4963840000000  0.5256640000000  0.5460670000000 1.0
C      1  0.4667090000000  0.4492600000000  0.4945610000000 1.0
C      1  0.5199970000000  0.5496140000000  0.4989650000000 1.0
C      1  0.5189630000000  0.4496630000000  0.4980830000000 1.0
C      1  0.5429020000000  0.4910000000000  0.5317460000000 1.0
C      1  0.4419070000000  0.5019150000000  0.5237630000000 1.0
C      1  0.4481940000000  0.4958980000000  0.4758470000000 1.0
C      1  0.5082030000000  0.5551620000000  0.4711100000000 1.0
C      1  0.4675360000000  0.5084860000000  0.5451280000000 1.0
C      1  0.5441400000000  0.4688960000000  0.5081390000000 1.0
C      1  0.5106140000000  0.4462060000000  0.5286220000000 1.0
C      1  0.4927980000000  0.4490960000000  0.4763400000000 1.0
C      1  0.4967150000000  0.5470640000000  0.5224500000000 1.0
C      1  0.4621740000000  0.4867170000000  0.4484950000000 1.0
C      1  0.5180250000000  0.5019280000000  0.5519110000000 1.0
C      1  0.5114080000000  0.4948340000000  0.4589340000000 1.0
C      1  0.5477470000000  0.5328070000000  0.4948070000000 1.0
C      1  0.4450220000000  0.5218010000000  0.4976450000000 1.0
C      1  0.4582890000000  0.4784130000000  0.5032550000000 1.0
C      1  0.4825440000000  0.4901000000000  0.5219360000000 1.0
C      1  0.4882830000000  0.5259250000000  0.4894010000000 1.0
C      1  0.5267020000000  0.4889230000000  0.4868700000000 1.0
C      1  0.5303550000000  0.5153650000000  0.5164620000000 1.0
C      1  0.5025930000000  0.5052190000000  0.5047990000000 1.0
END
