TITL C-2622966-9038-33 0.000493438596389953 125000 -152.367515347858 0 0 31 (C1) n - 1
REM
REM in /nfs/bkarasulu/CARBON/AIRSS/Generating-Clusters/AIREBO/with-SteepDescent/Higher-Symm/SD-CG/HFTN-CG
REM
REM
REM
REM
REM
REM ./C.cell (b20cbc046b6831c77cfcea5457e17084)
REM
REM compiler GCC version 9.2.1 20190827 (Red Hat 9.2.1-1)
REM options -cpp -mtune=generic -march=x86-64 -g -O0 -fpre-include=/usr/include/finclude/math-vector-fortran.h
REM seed -1488577931 528330453 67349733 -688340039 -866514214 -775922904 987424396 -87036288 1954544186 -972429541 1266416857 84110391 -984530378 637355810 1492854045 -15532309 129639702 -1285244173 1148224267 1079649710 607831068 -1229216650 1467884339 2052396194 1595996856 -994829065 -990127438 -1794644505 19121312 -123485773 680876837 5526914 474707999
REM
CELL 1.54180   50.00000   50.00000   50.00000   90.00000   90.00000   90.00000
LATT -1
SFAC C  
C      1  0.4812680000000  0.5196400000000  0.5152600000000 1.0
C      1  0.4707460000000  0.4944270000000  0.5282790000000 1.0
C      1  0.4731450000000  0.4691820000000  0.5125900000000 1.0
C      1  0.4749020000000  0.4708360000000  0.4828210000000 1.0
C      1  0.4745590000000  0.4973990000000  0.4693600000000 1.0
C      1  0.4748820000000  0.5222990000000  0.4860080000000 1.0
C      1  0.5311090000000  0.5378390000000  0.5061270000000 1.0
C      1  0.5198830000000  0.4937560000000  0.5352280000000 1.0
C      1  0.5219520000000  0.4708770000000  0.5169420000000 1.0
C      1  0.5253880000000  0.4760480000000  0.4868720000000 1.0
C      1  0.5256680000000  0.5020740000000  0.4697630000000 1.0
C      1  0.5253200000000  0.5315270000000  0.4779560000000 1.0
C      1  0.4610620000000  0.4946320000000  0.5586700000000 1.0
C      1  0.4646780000000  0.4407610000000  0.5267060000000 1.0
C      1  0.4716960000000  0.4440520000000  0.4646950000000 1.0
C      1  0.4678920000000  0.5007370000000  0.4377050000000 1.0
C      1  0.4618470000000  0.5502450000000  0.4758270000000 1.0
C      1  0.4874410000000  0.5481160000000  0.5300390000000 1.0
C      1  0.5204640000000  0.4903170000000  0.5670770000000 1.0
C      1  0.5302480000000  0.4408330000000  0.5277920000000 1.0
C      1  0.5363170000000  0.4499070000000  0.4706050000000 1.0
C      1  0.5327460000000  0.4963110000000  0.4384020000000 1.0
C      1  0.5230460000000  0.5538270000000  0.4544110000000 1.0
C      1  0.5426590000000  0.5645070000000  0.5240020000000 1.0
C      1  0.4975130000000  0.4486570000000  0.5235150000000 1.0
C      1  0.4913160000000  0.4917530000000  0.5589590000000 1.0
C      1  0.5028190000000  0.4549540000000  0.4726920000000 1.0
C      1  0.5002140000000  0.4986840000000  0.4478230000000 1.0
C      1  0.5117820000000  0.5580500000000  0.5250160000000 1.0
C      1  0.4949580000000  0.5443170000000  0.4708050000000 1.0
C      1  0.5127730000000  0.5182300000000  0.5222600000000 1.0
END
