TITL C-2622958-629-136 0.00506481687544258 125000 -634.406094320862 0 0 115 (C1) n - 1
REM
REM in /nfs/bkarasulu/CARBON/AIRSS/Generating-Clusters/AIREBO/with-SteepDescent/Higher-Symm/SD-CG/HFTN-CG
REM
REM
REM
REM
REM
REM ./C.cell (b20cbc046b6831c77cfcea5457e17084)
REM
REM compiler GCC version 9.2.1 20190827 (Red Hat 9.2.1-1)
REM options -cpp -mtune=generic -march=x86-64 -g -O0 -fpre-include=/usr/include/finclude/math-vector-fortran.h
REM seed 1814101847 1567290393 -1153199233 1866112646 -893148444 2055410848 -2037670224 -857716538 -2114404182 873022615 -603143525 -110737446 -1652108701 -1708253894 865555159 -1639420140 -856261459 1431702860 -567440273 -1475723844 -1358344530 1503600370 -705180577 1847211162 -310735597 -427854379 -1991812747 1486179979 -967067993 -2106178455 -208880384 678249376 -21423001
REM
CELL 1.54180   50.00000   50.00000   50.00000   90.00000   90.00000   90.00000
LATT -1
SFAC C  
C      1  0.5806000000000  0.5461400000000  0.4725060000000 1.0
C      1  0.4339900000000  0.4558750000000  0.5346220000000 1.0
C      1  0.4370040000000  0.5126010000000  0.4219650000000 1.0
C      1  0.5467030000000  0.4847520000000  0.5773610000000 1.0
C      1  0.5112010000000  0.4177360000000  0.4665430000000 1.0
C      1  0.4903150000000  0.5898000000000  0.5288430000000 1.0
C      1  0.5503210000000  0.5349940000000  0.5699570000000 1.0
C      1  0.4503440000000  0.4609190000000  0.4282200000000 1.0
C      1  0.4812260000000  0.5468650000000  0.3889910000000 1.0
C      1  0.5034990000000  0.4681820000000  0.6297360000000 1.0
C      1  0.4818010000000  0.5532950000000  0.5843080000000 1.0
C      1  0.5188240000000  0.4581730000000  0.4179320000000 1.0
C      1  0.5125000000000  0.4716020000000  0.4762630000000 1.0
C      1  0.4996250000000  0.5328760000000  0.5252550000000 1.0
C      1  0.5410520000000  0.5065250000000  0.4156010000000 1.0
C      1  0.4572160000000  0.4985290000000  0.5691220000000 1.0
C      1  0.5293310000000  0.4416380000000  0.5632270000000 1.0
C      1  0.4621290000000  0.5414890000000  0.4349400000000 1.0
C      1  0.4737160000000  0.5474310000000  0.5387180000000 1.0
C      1  0.5388180000000  0.4605410000000  0.4575900000000 1.0
C      1  0.4430350000000  0.4391930000000  0.5063210000000 1.0
C      1  0.5592520000000  0.5586010000000  0.4941400000000 1.0
C      1  0.4565020000000  0.5266710000000  0.5589130000000 1.0
C      1  0.5461120000000  0.4847530000000  0.4348580000000 1.0
C      1  0.4271170000000  0.5291520000000  0.5537980000000 1.0
C      1  0.5740670000000  0.4763270000000  0.4476010000000 1.0
C      1  0.4190370000000  0.5531960000000  0.5376790000000 1.0
C      1  0.5702830000000  0.4462910000000  0.4584180000000 1.0
C      1  0.5070350000000  0.4838060000000  0.4235980000000 1.0
C      1  0.4880790000000  0.5233760000000  0.5830000000000 1.0
C      1  0.4430110000000  0.5265390000000  0.4587520000000 1.0
C      1  0.5543390000000  0.4567560000000  0.5484980000000 1.0
C      1  0.5282000000000  0.4612450000000  0.5840290000000 1.0
C      1  0.4312700000000  0.5413630000000  0.4206530000000 1.0
C      1  0.4096320000000  0.4815790000000  0.4946900000000 1.0
C      1  0.5818900000000  0.5137830000000  0.5113880000000 1.0
C      1  0.5364520000000  0.5348870000000  0.4301720000000 1.0
C      1  0.4577120000000  0.4690770000000  0.5783120000000 1.0
C      1  0.5183120000000  0.5875720000000  0.4568190000000 1.0
C      1  0.4798630000000  0.4088100000000  0.5360150000000 1.0
C      1  0.5162440000000  0.4389190000000  0.4442130000000 1.0
C      1  0.4868940000000  0.5706320000000  0.5554990000000 1.0
C      1  0.5800100000000  0.4649080000000  0.4853060000000 1.0
C      1  0.4294200000000  0.5302400000000  0.5142010000000 1.0
C      1  0.5313310000000  0.4040520000000  0.4780790000000 1.0
C      1  0.4690790000000  0.5919260000000  0.5120510000000 1.0
C      1  0.5151090000000  0.5774170000000  0.5116350000000 1.0
C      1  0.4890080000000  0.4301420000000  0.4851360000000 1.0
C      1  0.5882530000000  0.5163200000000  0.4819990000000 1.0
C      1  0.4168590000000  0.4813020000000  0.5255390000000 1.0
C      1  0.4187450000000  0.5064180000000  0.5358780000000 1.0
C      1  0.5884140000000  0.4928140000000  0.4678030000000 1.0
C      1  0.4963960000000  0.4692780000000  0.5256820000000 1.0
C      1  0.5086650000000  0.5333990000000  0.4767300000000 1.0
C      1  0.4268240000000  0.4987720000000  0.4489670000000 1.0
C      1  0.5628990000000  0.4888280000000  0.5504030000000 1.0
C      1  0.4707960000000  0.4218640000000  0.5081560000000 1.0
C      1  0.5339870000000  0.5790230000000  0.4858990000000 1.0
C      1  0.5055370000000  0.4008290000000  0.5386090000000 1.0
C      1  0.4910240000000  0.5866610000000  0.4533710000000 1.0
C      1  0.4436040000000  0.5740260000000  0.4736870000000 1.0
C      1  0.5564150000000  0.4184030000000  0.5207550000000 1.0
C      1  0.4888550000000  0.5130340000000  0.5506840000000 1.0
C      1  0.5181460000000  0.4942340000000  0.4517140000000 1.0
C      1  0.5106450000000  0.5192350000000  0.4144090000000 1.0
C      1  0.4821770000000  0.4904770000000  0.5892830000000 1.0
C      1  0.4841820000000  0.4970700000000  0.5208790000000 1.0
C      1  0.5299210000000  0.5071450000000  0.4808820000000 1.0
C      1  0.4833970000000  0.5308680000000  0.4122850000000 1.0
C      1  0.5057300000000  0.4761840000000  0.6036240000000 1.0
C      1  0.3895980000000  0.4637220000000  0.4876190000000 1.0
C      1  0.5926350000000  0.5354420000000  0.5260970000000 1.0
C      1  0.5313350000000  0.5514330000000  0.4662030000000 1.0
C      1  0.4738710000000  0.4476500000000  0.5301080000000 1.0
C      1  0.4589060000000  0.5176060000000  0.4860080000000 1.0
C      1  0.5479600000000  0.4743000000000  0.5132770000000 1.0
C      1  0.5847660000000  0.4865530000000  0.5273900000000 1.0
C      1  0.4113800000000  0.5066840000000  0.4754520000000 1.0
C      1  0.5581570000000  0.5210750000000  0.5462030000000 1.0
C      1  0.4352770000000  0.4694890000000  0.4497730000000 1.0
C      1  0.4756930000000  0.4793120000000  0.4218200000000 1.0
C      1  0.5195520000000  0.5298460000000  0.5749450000000 1.0
C      1  0.4614600000000  0.5224790000000  0.5195660000000 1.0
C      1  0.5508630000000  0.4812930000000  0.4816960000000 1.0
C      1  0.4727090000000  0.4489530000000  0.4654630000000 1.0
C      1  0.5296050000000  0.5582320000000  0.5324860000000 1.0
C      1  0.4695850000000  0.5645720000000  0.4569910000000 1.0
C      1  0.5295660000000  0.4197130000000  0.5385580000000 1.0
C      1  0.4659770000000  0.4261500000000  0.5563780000000 1.0
C      1  0.5356690000000  0.5681990000000  0.4369430000000 1.0
C      1  0.5638360000000  0.5497570000000  0.4431830000000 1.0
C      1  0.4485530000000  0.4496760000000  0.5609140000000 1.0
C      1  0.4448880000000  0.4578620000000  0.4775890000000 1.0
C      1  0.5526510000000  0.5418350000000  0.5189890000000 1.0
C      1  0.5284770000000  0.4467600000000  0.5188710000000 1.0
C      1  0.4726170000000  0.5486810000000  0.4843430000000 1.0
C      1  0.4162490000000  0.5312220000000  0.4879650000000 1.0
C      1  0.5857080000000  0.4612790000000  0.5138790000000 1.0
C      1  0.4991180000000  0.5517260000000  0.5010860000000 1.0
C      1  0.5044770000000  0.4536640000000  0.4976490000000 1.0
C      1  0.4261320000000  0.5524090000000  0.4705320000000 1.0
C      1  0.5698810000000  0.4422750000000  0.5271520000000 1.0
C      1  0.5206030000000  0.5000220000000  0.5843660000000 1.0
C      1  0.4634530000000  0.5063610000000  0.4150900000000 1.0
C      1  0.5486830000000  0.5081690000000  0.5161890000000 1.0
C      1  0.4428040000000  0.4886300000000  0.4919230000000 1.0
C      1  0.4550980000000  0.4708150000000  0.5137700000000 1.0
C      1  0.5525850000000  0.5283880000000  0.4688940000000 1.0
C      1  0.4896470000000  0.5096890000000  0.4753780000000 1.0
C      1  0.5261620000000  0.4734610000000  0.5393630000000 1.0
C      1  0.5157150000000  0.5542670000000  0.5549100000000 1.0
C      1  0.4868340000000  0.4558000000000  0.4437610000000 1.0
C      1  0.4480690000000  0.5928290000000  0.4945690000000 1.0
C      1  0.5520100000000  0.4059240000000  0.4959720000000 1.0
C      1  0.5150080000000  0.5079060000000  0.5114350000000 1.0
END
