TITL C-2622961-1971-399 -1.08823714548369e-07 125000 -261.305901924352 0 0 40 (Td) n - 1
REM
REM in /nfs/bkarasulu/CARBON/AIRSS/Generating-Clusters/AIREBO/with-SteepDescent/Higher-Symm/SD-CG/HFTN-CG
REM
REM
REM
REM
REM
REM ./C.cell (b20cbc046b6831c77cfcea5457e17084)
REM
REM compiler GCC version 9.2.1 20190827 (Red Hat 9.2.1-1)
REM options -cpp -mtune=generic -march=x86-64 -g -O0 -fpre-include=/usr/include/finclude/math-vector-fortran.h
REM seed -576193189 1094574047 873423845 -1208118789 -159058420 1432272585 1192208422 -1211687797 1463639417 -1150038825 885136054 492804879 1686341970 1635506062 -1904195589 1071460444 602899226 -1099858874 -657843949 -1032401946 241257118 -1973555329 36887013 156590950 -60636839 -1350502847 -521364215 -797789758 555570234 -1720601270 2068985032 47056669 873805096
REM
CELL 1.54180   50.00000   50.00000   50.00000   90.00000   90.00000   90.00000
LATT -1
SFAC C  
C      1  0.4503130000000  0.5083390000000  0.4748940000000 1.0
C      1  0.5037450000000  0.4717940000000  0.4514460000000 1.0
C      1  0.4716150000000  0.4525950000000  0.5092330000000 1.0
C      1  0.5456730000000  0.4909230000000  0.4692160000000 1.0
C      1  0.4533240000000  0.4935310000000  0.5299530000000 1.0
C      1  0.5493600000000  0.5065940000000  0.5239940000000 1.0
C      1  0.4897530000000  0.5271470000000  0.4518640000000 1.0
C      1  0.5108020000000  0.5275530000000  0.5466580000000 1.0
C      1  0.4943700000000  0.4728930000000  0.5480900000000 1.0
C      1  0.5286480000000  0.5472180000000  0.5050110000000 1.0
C      1  0.4728130000000  0.5483470000000  0.4931340000000 1.0
C      1  0.5255940000000  0.4512260000000  0.4906790000000 1.0
C      1  0.5045360000000  0.4515220000000  0.4720340000000 1.0
C      1  0.4694650000000  0.5077150000000  0.4532540000000 1.0
C      1  0.4516720000000  0.4734910000000  0.5102850000000 1.0
C      1  0.4914500000000  0.5477400000000  0.4720760000000 1.0
C      1  0.4926730000000  0.4522990000000  0.5278780000000 1.0
C      1  0.5100110000000  0.5478260000000  0.5260700000000 1.0
C      1  0.5240340000000  0.4912260000000  0.4500560000000 1.0
C      1  0.5302090000000  0.5072190000000  0.5456340000000 1.0
C      1  0.4749640000000  0.4932270000000  0.5491130000000 1.0
C      1  0.5485910000000  0.5263220000000  0.5039590000000 1.0
C      1  0.5464430000000  0.4711950000000  0.4892510000000 1.0
C      1  0.4519640000000  0.5283780000000  0.4945630000000 1.0
C      1  0.4822580000000  0.5541420000000  0.5200370000000 1.0
C      1  0.4477240000000  0.5210660000000  0.5224030000000 1.0
C      1  0.4835680000000  0.5205630000000  0.5541390000000 1.0
C      1  0.5223050000000  0.4799730000000  0.5520960000000 1.0
C      1  0.5166470000000  0.5188190000000  0.4445240000000 1.0
C      1  0.5194590000000  0.5529300000000  0.4780020000000 1.0
C      1  0.5540270000000  0.4789390000000  0.5162510000000 1.0
C      1  0.4761500000000  0.4800310000000  0.4472980000000 1.0
C      1  0.4774600000000  0.4464520000000  0.4814010000000 1.0
C      1  0.5194930000000  0.4458630000000  0.5186170000000 1.0
C      1  0.5524910000000  0.5183170000000  0.4762600000000 1.0
C      1  0.4444280000000  0.4810650000000  0.4831430000000 1.0
C      1  0.5357490000000  0.5363030000000  0.4593400000000 1.0
C      1  0.5386600000000  0.4616830000000  0.5351240000000 1.0
C      1  0.4652540000000  0.5386010000000  0.5389950000000 1.0
C      1  0.4590070000000  0.4628000000000  0.4645980000000 1.0
END
