TITL C-2622954-8726-265 0.00089295055045495 125000 -606.713063283288 0 0 110 (C1) n - 1
REM
REM in /nfs/bkarasulu/CARBON/AIRSS/Generating-Clusters/AIREBO/with-SteepDescent/Higher-Symm/SD-CG/HFTN-CG
REM
REM
REM
REM
REM
REM ./C.cell (b20cbc046b6831c77cfcea5457e17084)
REM
REM compiler GCC version 9.2.1 20190827 (Red Hat 9.2.1-1)
REM options -cpp -mtune=generic -march=x86-64 -g -O0 -fpre-include=/usr/include/finclude/math-vector-fortran.h
REM seed -1964234909 -467285444 1143880847 -1138366361 -442663219 -168452131 2123138958 -596844841 1571953116 1615840819 -54270609 1256868758 920428470 -272385371 81631261 779899705 392789575 1473053355 1965621455 345857692 2035244141 -226832647 -1511236815 -2146299834 838674498 129955702 -554863742 -443815782 1971557188 -1468163364 997119947 -386442598 -231181880
REM
CELL 1.54180   50.00000   50.00000   50.00000   90.00000   90.00000   90.00000
LATT -1
SFAC C  
C      1  0.5603120000000  0.4702210000000  0.4598250000000 1.0
C      1  0.5658580000000  0.5314220000000  0.5417620000000 1.0
C      1  0.4471320000000  0.4848890000000  0.4507620000000 1.0
C      1  0.4427690000000  0.5181310000000  0.5410540000000 1.0
C      1  0.5863930000000  0.4692970000000  0.5337570000000 1.0
C      1  0.5936270000000  0.5323480000000  0.4735900000000 1.0
C      1  0.4124550000000  0.4659090000000  0.5242680000000 1.0
C      1  0.4084200000000  0.5314900000000  0.4730280000000 1.0
C      1  0.4669540000000  0.4576410000000  0.5636650000000 1.0
C      1  0.4641640000000  0.5393680000000  0.4478630000000 1.0
C      1  0.5350910000000  0.4567770000000  0.5540430000000 1.0
C      1  0.5279790000000  0.5453750000000  0.4473120000000 1.0
C      1  0.4511340000000  0.5312750000000  0.5122190000000 1.0
C      1  0.4505040000000  0.4690610000000  0.4806930000000 1.0
C      1  0.5513250000000  0.5343250000000  0.5114070000000 1.0
C      1  0.5485330000000  0.4710630000000  0.4898130000000 1.0
C      1  0.4836750000000  0.5689010000000  0.5599510000000 1.0
C      1  0.4777920000000  0.4385080000000  0.4400900000000 1.0
C      1  0.5095650000000  0.5735500000000  0.5583540000000 1.0
C      1  0.5048970000000  0.4324230000000  0.4445600000000 1.0
C      1  0.4078210000000  0.4846700000000  0.5482080000000 1.0
C      1  0.4082910000000  0.5128760000000  0.4502010000000 1.0
C      1  0.5869090000000  0.4907980000000  0.5546010000000 1.0
C      1  0.5949320000000  0.5048630000000  0.4565700000000 1.0
C      1  0.4842850000000  0.4627830000000  0.4603690000000 1.0
C      1  0.4761120000000  0.5398180000000  0.5448130000000 1.0
C      1  0.5234240000000  0.4551260000000  0.4630760000000 1.0
C      1  0.5214190000000  0.5511940000000  0.5354050000000 1.0
C      1  0.5344290000000  0.4406330000000  0.5239930000000 1.0
C      1  0.5118300000000  0.5664530000000  0.4522330000000 1.0
C      1  0.4788910000000  0.4429260000000  0.5360380000000 1.0
C      1  0.4836590000000  0.5617180000000  0.4640790000000 1.0
C      1  0.4368380000000  0.4606780000000  0.4310640000000 1.0
C      1  0.4422810000000  0.5498610000000  0.5510400000000 1.0
C      1  0.5521080000000  0.4421590000000  0.4502070000000 1.0
C      1  0.5536230000000  0.5598620000000  0.5420290000000 1.0
C      1  0.5326560000000  0.4258180000000  0.4371910000000 1.0
C      1  0.5389730000000  0.5795890000000  0.5573450000000 1.0
C      1  0.4521260000000  0.4378260000000  0.4301020000000 1.0
C      1  0.4553400000000  0.5699390000000  0.5656660000000 1.0
C      1  0.4860650000000  0.4893710000000  0.4430890000000 1.0
C      1  0.4918850000000  0.5157880000000  0.5603180000000 1.0
C      1  0.5175720000000  0.4823770000000  0.4436000000000 1.0
C      1  0.5204530000000  0.5239050000000  0.5556680000000 1.0
C      1  0.5633840000000  0.5146120000000  0.4545880000000 1.0
C      1  0.5545090000000  0.4835430000000  0.5528700000000 1.0
C      1  0.4399790000000  0.5162070000000  0.4537990000000 1.0
C      1  0.4376030000000  0.4722840000000  0.5546790000000 1.0
C      1  0.4851150000000  0.5324080000000  0.5128560000000 1.0
C      1  0.4818560000000  0.4772730000000  0.4910480000000 1.0
C      1  0.5184870000000  0.5256430000000  0.5131150000000 1.0
C      1  0.5156140000000  0.4789120000000  0.4861110000000 1.0
C      1  0.5539990000000  0.4875590000000  0.5190950000000 1.0
C      1  0.5617010000000  0.5126280000000  0.4873740000000 1.0
C      1  0.4456320000000  0.4878420000000  0.5270020000000 1.0
C      1  0.4437070000000  0.5149850000000  0.4849070000000 1.0
C      1  0.4133820000000  0.5169160000000  0.5001670000000 1.0
C      1  0.4220050000000  0.4869260000000  0.5032440000000 1.0
C      1  0.5940130000000  0.5106980000000  0.4979620000000 1.0
C      1  0.5835540000000  0.4821850000000  0.5053780000000 1.0
C      1  0.5243750000000  0.4958710000000  0.5267690000000 1.0
C      1  0.5279490000000  0.5105440000000  0.4837210000000 1.0
C      1  0.4741800000000  0.4736510000000  0.5222600000000 1.0
C      1  0.4755260000000  0.5089580000000  0.4899050000000 1.0
C      1  0.4711240000000  0.4270590000000  0.4962810000000 1.0
C      1  0.4578440000000  0.5781120000000  0.5002090000000 1.0
C      1  0.5484440000000  0.4169290000000  0.4953060000000 1.0
C      1  0.5342990000000  0.5765810000000  0.4917490000000 1.0
C      1  0.4600360000000  0.5120340000000  0.5685350000000 1.0
C      1  0.4646240000000  0.4873560000000  0.4217050000000 1.0
C      1  0.5454730000000  0.5133400000000  0.5558370000000 1.0
C      1  0.5473610000000  0.4921430000000  0.4414670000000 1.0
C      1  0.5218130000000  0.4378570000000  0.4923250000000 1.0
C      1  0.5139030000000  0.5694300000000  0.5095750000000 1.0
C      1  0.4916840000000  0.4396670000000  0.4818540000000 1.0
C      1  0.4864810000000  0.5610280000000  0.4979620000000 1.0
C      1  0.4896540000000  0.4485510000000  0.5845320000000 1.0
C      1  0.4804780000000  0.5347400000000  0.4196580000000 1.0
C      1  0.5141550000000  0.4497340000000  0.5795010000000 1.0
C      1  0.5031030000000  0.5228160000000  0.4214880000000 1.0
C      1  0.4830510000000  0.5155570000000  0.4615970000000 1.0
C      1  0.4843730000000  0.4849730000000  0.5526570000000 1.0
C      1  0.5150330000000  0.5152250000000  0.4524200000000 1.0
C      1  0.5128110000000  0.4787380000000  0.5429510000000 1.0
C      1  0.4389370000000  0.5614130000000  0.4536600000000 1.0
C      1  0.4420460000000  0.4383300000000  0.5508710000000 1.0
C      1  0.5554210000000  0.5433730000000  0.4462020000000 1.0
C      1  0.5573180000000  0.4325590000000  0.5627480000000 1.0
C      1  0.4018810000000  0.4857580000000  0.4561050000000 1.0
C      1  0.4099770000000  0.5128520000000  0.5437330000000 1.0
C      1  0.5915860000000  0.4764850000000  0.4588170000000 1.0
C      1  0.5918570000000  0.5172550000000  0.5452840000000 1.0
C      1  0.4743860000000  0.5920100000000  0.4763950000000 1.0
C      1  0.4808100000000  0.4193820000000  0.5218700000000 1.0
C      1  0.5221390000000  0.5882660000000  0.4682730000000 1.0
C      1  0.5275990000000  0.4086380000000  0.5187340000000 1.0
C      1  0.4173960000000  0.4742280000000  0.4749210000000 1.0
C      1  0.4136540000000  0.5390170000000  0.5234080000000 1.0
C      1  0.5903120000000  0.4609740000000  0.4843970000000 1.0
C      1  0.6080050000000  0.5205120000000  0.5235330000000 1.0
C      1  0.5721320000000  0.5505270000000  0.4698130000000 1.0
C      1  0.5669460000000  0.4453570000000  0.5327540000000 1.0
C      1  0.4224840000000  0.5554300000000  0.4745970000000 1.0
C      1  0.4306370000000  0.4436880000000  0.5230780000000 1.0
C      1  0.4470150000000  0.4421850000000  0.4984410000000 1.0
C      1  0.4341370000000  0.5581620000000  0.5035880000000 1.0
C      1  0.5657290000000  0.4433890000000  0.4995290000000 1.0
C      1  0.5560470000000  0.5584320000000  0.4918560000000 1.0
C      1  0.5017130000000  0.4007240000000  0.5246470000000 1.0
C      1  0.4997610000000  0.6065400000000  0.4733680000000 1.0
END
