TITL C-2622962-9663-694 0.000626016119690164 125000 -725.03596607823 0 0 127 (C1) n - 1
REM
REM in /nfs/bkarasulu/CARBON/AIRSS/Generating-Clusters/AIREBO/with-SteepDescent/Higher-Symm/SD-CG/HFTN-CG
REM
REM
REM
REM
REM
REM ./C.cell (b20cbc046b6831c77cfcea5457e17084)
REM
REM compiler GCC version 9.2.1 20190827 (Red Hat 9.2.1-1)
REM options -cpp -mtune=generic -march=x86-64 -g -O0 -fpre-include=/usr/include/finclude/math-vector-fortran.h
REM seed 184067011 -100179137 -1625493774 -898993239 1472750553 -336013515 1672981764 -430568324 1184874418 -513514511 -968055514 -1480532473 104704581 -431384490 -1196264930 -536630561 -727392292 -1221272410 737161004 -417085853 -1427287118 2128830433 -728249678 518213216 1426286624 -1089854793 -67548328 1803121470 1521458520 -668992848 35200413 -1817955104 981819556
REM
CELL 1.54180   50.00000   50.00000   50.00000   90.00000   90.00000   90.00000
LATT -1
SFAC C  
C      1  0.5845740000000  0.4774330000000  0.5002250000000 1.0
C      1  0.5859960000000  0.4914430000000  0.4747710000000 1.0
C      1  0.5863310000000  0.5204740000000  0.4803030000000 1.0
C      1  0.5842180000000  0.5241860000000  0.5092580000000 1.0
C      1  0.5839100000000  0.4973030000000  0.5212110000000 1.0
C      1  0.4190060000000  0.5242220000000  0.5000830000000 1.0
C      1  0.4197130000000  0.5103300000000  0.4745980000000 1.0
C      1  0.4162190000000  0.4819190000000  0.4795110000000 1.0
C      1  0.4133020000000  0.4777510000000  0.5082040000000 1.0
C      1  0.4152980000000  0.5041280000000  0.5208710000000 1.0
C      1  0.4789370000000  0.4230690000000  0.4864730000000 1.0
C      1  0.4972190000000  0.4880490000000  0.4282210000000 1.0
C      1  0.4888600000000  0.5867330000000  0.4706620000000 1.0
C      1  0.4905340000000  0.5518390000000  0.5624960000000 1.0
C      1  0.4873350000000  0.4520570000000  0.5786870000000 1.0
C      1  0.5153190000000  0.5802440000000  0.4886870000000 1.0
C      1  0.5157140000000  0.5034420000000  0.4060410000000 1.0
C      1  0.5143510000000  0.4251250000000  0.4663860000000 1.0
C      1  0.5165160000000  0.4535020000000  0.5632100000000 1.0
C      1  0.5192820000000  0.5497980000000  0.5768950000000 1.0
C      1  0.5368530000000  0.4176680000000  0.5328350000000 1.0
C      1  0.5304270000000  0.4420060000000  0.4340980000000 1.0
C      1  0.5400050000000  0.5474680000000  0.4187940000000 1.0
C      1  0.5363520000000  0.5893970000000  0.5214200000000 1.0
C      1  0.5474980000000  0.5099820000000  0.5885640000000 1.0
C      1  0.4556680000000  0.5826930000000  0.5416500000000 1.0
C      1  0.4713130000000  0.5562520000000  0.4344980000000 1.0
C      1  0.4612880000000  0.4447010000000  0.4240210000000 1.0
C      1  0.4565050000000  0.4069590000000  0.5223450000000 1.0
C      1  0.4526430000000  0.4883430000000  0.5867610000000 1.0
C      1  0.4789010000000  0.4776490000000  0.5860800000000 1.0
C      1  0.4890270000000  0.4071300000000  0.5122550000000 1.0
C      1  0.4853950000000  0.4627280000000  0.4119420000000 1.0
C      1  0.4951340000000  0.5729090000000  0.4454710000000 1.0
C      1  0.4871640000000  0.5826120000000  0.5509740000000 1.0
C      1  0.5215390000000  0.5217470000000  0.5883090000000 1.0
C      1  0.5053690000000  0.6010480000000  0.5136260000000 1.0
C      1  0.5116740000000  0.5325890000000  0.4096560000000 1.0
C      1  0.5062560000000  0.4180800000000  0.4342490000000 1.0
C      1  0.5144810000000  0.4242450000000  0.5505910000000 1.0
C      1  0.4762850000000  0.4489540000000  0.4645830000000 1.0
C      1  0.4855070000000  0.5158130000000  0.4415220000000 1.0
C      1  0.4780430000000  0.5717780000000  0.4999590000000 1.0
C      1  0.4738860000000  0.5132200000000  0.5640740000000 1.0
C      1  0.4597280000000  0.4411450000000  0.5421350000000 1.0
C      1  0.5351040000000  0.5534080000000  0.4577330000000 1.0
C      1  0.5367400000000  0.4847700000000  0.4238170000000 1.0
C      1  0.5336220000000  0.4282870000000  0.4926450000000 1.0
C      1  0.5209610000000  0.4860220000000  0.5567380000000 1.0
C      1  0.5258490000000  0.5554010000000  0.5442460000000 1.0
C      1  0.5138240000000  0.4580420000000  0.4749380000000 1.0
C      1  0.5195480000000  0.5028450000000  0.4640630000000 1.0
C      1  0.5086350000000  0.5471490000000  0.4927540000000 1.0
C      1  0.5201630000000  0.5224690000000  0.5227190000000 1.0
C      1  0.5091610000000  0.4583690000000  0.5303560000000 1.0
C      1  0.4847970000000  0.5229570000000  0.4945030000000 1.0
C      1  0.4963180000000  0.4830770000000  0.4615370000000 1.0
C      1  0.4971160000000  0.4484170000000  0.5000170000000 1.0
C      1  0.4825760000000  0.4737820000000  0.5271340000000 1.0
C      1  0.4931810000000  0.5322330000000  0.5353610000000 1.0
C      1  0.5356120000000  0.5085770000000  0.5426380000000 1.0
C      1  0.5344440000000  0.4520190000000  0.5129350000000 1.0
C      1  0.5347000000000  0.4758790000000  0.4546720000000 1.0
C      1  0.5422050000000  0.5236640000000  0.4655290000000 1.0
C      1  0.5344980000000  0.5504680000000  0.5128470000000 1.0
C      1  0.4620290000000  0.4919900000000  0.5447350000000 1.0
C      1  0.4705300000000  0.5436830000000  0.5163220000000 1.0
C      1  0.4703150000000  0.5141590000000  0.4699690000000 1.0
C      1  0.4652670000000  0.4811000000000  0.4660560000000 1.0
C      1  0.4665270000000  0.4516250000000  0.5114460000000 1.0
C      1  0.5193110000000  0.5941870000000  0.5504540000000 1.0
C      1  0.5485020000000  0.4831670000000  0.5981770000000 1.0
C      1  0.5196910000000  0.4023150000000  0.5077000000000 1.0
C      1  0.5191460000000  0.4611740000000  0.4083410000000 1.0
C      1  0.5269480000000  0.5754050000000  0.4331220000000 1.0
C      1  0.4563260000000  0.4101390000000  0.5556700000000 1.0
C      1  0.4537620000000  0.5198580000000  0.5906640000000 1.0
C      1  0.4716330000000  0.6000070000000  0.5177970000000 1.0
C      1  0.4791180000000  0.5409300000000  0.4112610000000 1.0
C      1  0.4721660000000  0.4194210000000  0.4351480000000 1.0
C      1  0.5616860000000  0.5162990000000  0.5618180000000 1.0
C      1  0.5589270000000  0.4435490000000  0.5318960000000 1.0
C      1  0.5563670000000  0.4518470000000  0.4541430000000 1.0
C      1  0.5595210000000  0.5290660000000  0.4376100000000 1.0
C      1  0.5573100000000  0.5693370000000  0.5035980000000 1.0
C      1  0.4359920000000  0.4806900000000  0.5604790000000 1.0
C      1  0.4454740000000  0.5528520000000  0.5340310000000 1.0
C      1  0.4561750000000  0.5427220000000  0.4584490000000 1.0
C      1  0.4477070000000  0.4708590000000  0.4387970000000 1.0
C      1  0.4402500000000  0.4325700000000  0.5075990000000 1.0
C      1  0.4190680000000  0.4533250000000  0.5212500000000 1.0
C      1  0.4297550000000  0.4629210000000  0.4643790000000 1.0
C      1  0.4345100000000  0.5194380000000  0.4530460000000 1.0
C      1  0.4328360000000  0.5482470000000  0.5041830000000 1.0
C      1  0.4252920000000  0.5073150000000  0.5467820000000 1.0
C      1  0.5730840000000  0.5470320000000  0.5220730000000 1.0
C      1  0.5780470000000  0.5406710000000  0.4621970000000 1.0
C      1  0.5742570000000  0.4806570000000  0.4516870000000 1.0
C      1  0.5733410000000  0.4520460000000  0.5034240000000 1.0
C      1  0.5711780000000  0.4912080000000  0.5452560000000 1.0
C      1  0.5623850000000  0.5635320000000  0.4739290000000 1.0
C      1  0.5568560000000  0.5423570000000  0.5449580000000 1.0
C      1  0.5498510000000  0.4714300000000  0.5460120000000 1.0
C      1  0.5599620000000  0.4398010000000  0.4817980000000 1.0
C      1  0.5631760000000  0.4982020000000  0.4319280000000 1.0
C      1  0.4458960000000  0.4436540000000  0.4781920000000 1.0
C      1  0.4326730000000  0.4545220000000  0.5471250000000 1.0
C      1  0.4451540000000  0.5273330000000  0.5523930000000 1.0
C      1  0.4505340000000  0.5593050000000  0.4843290000000 1.0
C      1  0.4546180000000  0.5032830000000  0.4346890000000 1.0
C      1  0.5274080000000  0.4818060000000  0.3851540000000 1.0
C      1  0.5276110000000  0.5920740000000  0.4627540000000 1.0
C      1  0.5297780000000  0.5817550000000  0.5739300000000 1.0
C      1  0.5396900000000  0.4591430000000  0.5874560000000 1.0
C      1  0.5241930000000  0.3941200000000  0.4752360000000 1.0
C      1  0.4623100000000  0.5193660000000  0.4075130000000 1.0
C      1  0.4632160000000  0.4114800000000  0.4599630000000 1.0
C      1  0.4737660000000  0.4268090000000  0.5765160000000 1.0
C      1  0.4674970000000  0.5459510000000  0.5855440000000 1.0
C      1  0.4723490000000  0.6083720000000  0.4850560000000 1.0
C      1  0.4887620000000  0.4238170000000  0.5384700000000 1.0
C      1  0.4974880000000  0.4496580000000  0.4398220000000 1.0
C      1  0.5076980000000  0.5415740000000  0.4413950000000 1.0
C      1  0.5017990000000  0.5695830000000  0.5247190000000 1.0
C      1  0.5006940000000  0.5004400000000  0.5781950000000 1.0
C      1  0.5243120000000  0.5180800000000  0.4918630000000 1.0
C      1  0.4798180000000  0.5051210000000  0.5204380000000 1.0
END
