TITL C-2622964-2985-341 3602.61358046161 125000 -884.574805088461 0 0 173 (C1) n - 1
REM
REM in /nfs/bkarasulu/CARBON/AIRSS/Generating-Clusters/AIREBO/with-SteepDescent/Higher-Symm/SD-CG/HFTN-CG
REM
REM
REM
REM
REM
REM ./C.cell (b20cbc046b6831c77cfcea5457e17084)
REM
REM compiler GCC version 9.2.1 20190827 (Red Hat 9.2.1-1)
REM options -cpp -mtune=generic -march=x86-64 -g -O0 -fpre-include=/usr/include/finclude/math-vector-fortran.h
REM seed 1875725480 1562984042 -1155346514 -263989826 -1756363312 1211550390 854224490 -1846724583 -925322417 -1474328631 1595653256 -1746922281 779126005 -1475860651 -1364543498 -1670930997 1341088425 -1959300594 1700521810 -1604423183 12754359 2028036054 -1858589634 1498160842 -343350805 -1864094160 101159013 -1137691300 631195089 1752745569 1741341155 1933578685 1520689803
REM
CELL 1.54180   50.00000   50.00000   50.00000   90.00000   90.00000   90.00000
LATT -1
SFAC C  
C      1  0.4483640000000  0.4871060000000  0.5191880000000 1.0
C      1  0.5240150000000  0.4500070000000  0.4910520000000 1.0
C      1  0.4932750000000  0.5229220000000  0.4508550000000 1.0
C      1  0.5515840000000  0.4958520000000  0.4810440000000 1.0
C      1  0.4571810000000  0.5054910000000  0.4733570000000 1.0
C      1  0.5494570000000  0.5130880000000  0.5193110000000 1.0
C      1  0.4772790000000  0.4518530000000  0.5150920000000 1.0
C      1  0.5223300000000  0.5464760000000  0.5221540000000 1.0
C      1  0.4690910000000  0.5426590000000  0.4816120000000 1.0
C      1  0.5055100000000  0.5207690000000  0.5503130000000 1.0
C      1  0.4932390000000  0.4787380000000  0.5492130000000 1.0
C      1  0.5187380000000  0.4750450000000  0.4536140000000 1.0
C      1  0.5198700000000  0.4957520000000  0.4266450000000 1.0
C      1  0.4163980000000  0.5216070000000  0.4909670000000 1.0
C      1  0.4992260000000  0.4271360000000  0.5160530000000 1.0
C      1  0.4790980000000  0.4926550000000  0.5761690000000 1.0
C      1  0.5119640000000  0.5015150000000  0.5761920000000 1.0
C      1  0.4863450000000  0.5014300000000  0.4254220000000 1.0
C      1  0.5776400000000  0.5187420000000  0.5010480000000 1.0
C      1  0.4250240000000  0.4897680000000  0.4958470000000 1.0
C      1  0.5737920000000  0.4849570000000  0.5007640000000 1.0
C      1  0.5032530000000  0.4245390000000  0.4822910000000 1.0
C      1  0.5065370000000  0.5707120000000  0.4805580000000 1.0
C      1  0.5017740000000  0.5723690000000  0.5141910000000 1.0
C      1  0.5764390000000  0.4651150000000  0.4728950000000 1.0
C      1  0.4812860000000  0.5919070000000  0.4722240000000 1.0
C      1  0.4626380000000  0.4635440000000  0.5699420000000 1.0
C      1  0.4204950000000  0.4665700000000  0.5391440000000 1.0
C      1  0.5758120000000  0.5344030000000  0.5431740000000 1.0
C      1  0.4216360000000  0.5346320000000  0.4612030000000 1.0
C      1  0.5253840000000  0.5909850000000  0.5276820000000 1.0
C      1  0.4776570000000  0.4072100000000  0.5279910000000 1.0
C      1  0.5444440000000  0.4226660000000  0.4625300000000 1.0
C      1  0.5290720000000  0.4703370000000  0.4066370000000 1.0
C      1  0.4650320000000  0.5278610000000  0.4232280000000 1.0
C      1  0.5332410000000  0.5283850000000  0.5781100000000 1.0
C      1  0.4028040000000  0.5152400000000  0.5354410000000 1.0
C      1  0.5465630000000  0.4069180000000  0.5214680000000 1.0
C      1  0.5341270000000  0.5452600000000  0.4174840000000 1.0
C      1  0.5870570000000  0.5370750000000  0.4550200000000 1.0
C      1  0.4092310000000  0.4674670000000  0.4582710000000 1.0
C      1  0.5878210000000  0.4742670000000  0.5464990000000 1.0
C      1  0.4478830000000  0.4142760000000  0.4734420000000 1.0
C      1  0.5503730000000  0.5845940000000  0.4763870000000 1.0
C      1  0.4546030000000  0.5894350000000  0.5196040000000 1.0
C      1  0.4767860000000  0.5447980000000  0.5865250000000 1.0
C      1  0.5304540000000  0.4573550000000  0.5882290000000 1.0
C      1  0.4712290000000  0.4494290000000  0.4150090000000 1.0
C      1  0.4788530000000  0.5622270000000  0.5351890000000 1.0
C      1  0.5373180000000  0.4850310000000  0.5606460000000 1.0
C      1  0.5638120000000  0.5466660000000  0.4899950000000 1.0
C      1  0.5092630000000  0.5612330000000  0.4480070000000 1.0
C      1  0.4844220000000  0.4354100000000  0.4561420000000 1.0
C      1  0.5197120000000  0.4339220000000  0.5384460000000 1.0
C      1  0.4612320000000  0.4814520000000  0.4366960000000 1.0
C      1  0.5492050000000  0.5087870000000  0.4378940000000 1.0
C      1  0.4572530000000  0.5148520000000  0.5624770000000 1.0
C      1  0.4324480000000  0.5393520000000  0.5160300000000 1.0
C      1  0.5622520000000  0.4592320000000  0.5197750000000 1.0
C      1  0.4409100000000  0.4601500000000  0.4906130000000 1.0
C      1  0.5462100000000  0.5717900000000  0.4311620000000 1.0
C      1  0.4325560000000  0.5457590000000  0.5663470000000 1.0
C      1  0.5636080000000  0.4261610000000  0.5437460000000 1.0
C      1  0.4581140000000  0.5680680000000  0.5710370000000 1.0
C      1  0.5425620000000  0.4306880000000  0.5709360000000 1.0
C      1  0.4484150000000  0.4332870000000  0.4289030000000 1.0
C      1  0.5729210000000  0.5510340000000  0.4277090000000 1.0
C      1  0.4212330000000  0.4535820000000  0.4304170000000 1.0
C      1  0.5636180000000  0.4550320000000  0.5599630000000 1.0
C      1  0.4295030000000  0.4335120000000  0.4568180000000 1.0
C      1  0.5680120000000  0.5718000000000  0.4551390000000 1.0
C      1  0.4400090000000  0.5685740000000  0.5422590000000 1.0
C      1  0.5977680000000  0.5055320000000  0.4539060000000 1.0
C      1  0.4553320000000  0.5910110000000  0.4870160000000 1.0
C      1  0.4971110000000  0.4638510000000  0.5897500000000 1.0
C      1  0.3924880000000  0.5014400000000  0.5561730000000 1.0
C      1  0.5926720000000  0.5058740000000  0.5358080000000 1.0
C      1  0.4075260000000  0.4993020000000  0.4614850000000 1.0
C      1  0.5475950000000  0.5977680000000  0.5076180000000 1.0
C      1  0.4572810000000  0.4067700000000  0.5052490000000 1.0
C      1  0.5540840000000  0.4029390000000  0.4914680000000 1.0
C      1  0.5032490000000  0.4523590000000  0.4039280000000 1.0
C      1  0.5012190000000  0.5374830000000  0.4165290000000 1.0
C      1  0.5055850000000  0.5362820000000  0.6002880000000 1.0
C      1  0.4827260000000  0.4375770000000  0.5776900000000 1.0
C      1  0.5736890000000  0.4869750000000  0.4469620000000 1.0
C      1  0.4281570000000  0.5797590000000  0.4868050000000 1.0
C      1  0.5020610000000  0.4279830000000  0.4280040000000 1.0
C      1  0.4804190000000  0.5575130000000  0.4295970000000 1.0
C      1  0.5169240000000  0.5582080000000  0.5768860000000 1.0
C      1  0.4155200000000  0.4834760000000  0.5683600000000 1.0
C      1  0.5821820000000  0.5107820000000  0.5677760000000 1.0
C      1  0.4174810000000  0.5138640000000  0.4345860000000 1.0
C      1  0.5725220000000  0.5744120000000  0.5076330000000 1.0
C      1  0.4352370000000  0.4310110000000  0.5073590000000 1.0
C      1  0.5740770000000  0.4253250000000  0.4789980000000 1.0
C      1  0.5966720000000  0.4526790000000  0.4972440000000 1.0
C      1  0.5103900000000  0.6050330000000  0.4604660000000 1.0
C      1  0.4479910000000  0.5117990000000  0.6048760000000 1.0
C      1  0.4057050000000  0.4578220000000  0.5094200000000 1.0
C      1  0.6113980000000  0.5565250000000  0.4799410000000 1.0
C      1  0.3913820000000  0.5561550000000  0.5156190000000 1.0
C      1  0.4977250000000  0.5979940000000  0.5445970000000 1.0
C      1  0.5033930000000  0.3983440000000  0.5465280000000 1.0
C      1  0.4730980000000  0.3923550000000  0.4482370000000 1.0
C      1  0.5485330000000  0.4971410000000  0.3989340000000 1.0
C      1  0.4502080000000  0.4849470000000  0.3984220000000 1.0
C      1  0.5462280000000  0.5027440000000  0.5963010000000 1.0
C      1  0.4769650000000  0.5856230000000  0.4403920000000 1.0
C      1  0.4362210000000  0.4639730000000  0.5828290000000 1.0
C      1  0.5945710000000  0.4403050000000  0.4583180000000 1.0
C      1  0.5301590000000  0.5796980000000  0.5590030000000 1.0
C      1  0.4699790000000  0.4158440000000  0.5594300000000 1.0
C      1  0.5285710000000  0.4147280000000  0.4394940000000 1.0
C      1  0.5600970000000  0.4745840000000  0.4203480000000 1.0
C      1  0.4377270000000  0.5228410000000  0.4128930000000 1.0
C      1  0.5665730000000  0.5339050000000  0.5820510000000 1.0
C      1  0.4237040000000  0.4340320000000  0.5358200000000 1.0
C      1  0.5839580000000  0.5599570000000  0.5333920000000 1.0
C      1  0.4170260000000  0.5656890000000  0.4661050000000 1.0
C      1  0.5314250000000  0.6103190000000  0.4798830000000 1.0
C      1  0.4784790000000  0.5155500000000  0.6013080000000 1.0
C      1  0.6033460000000  0.4797240000000  0.5167440000000 1.0
C      1  0.4753320000000  0.6085170000000  0.5322220000000 1.0
C      1  0.5257250000000  0.3881410000000  0.5338800000000 1.0
C      1  0.4791190000000  0.4025730000000  0.4790670000000 1.0
C      1  0.5227250000000  0.5180080000000  0.4001000000000 1.0
C      1  0.4805960000000  0.4788110000000  0.4006890000000 1.0
C      1  0.5192310000000  0.4847820000000  0.6049000000000 1.0
C      1  0.3941780000000  0.4797910000000  0.4861560000000 1.0
C      1  0.6041090000000  0.5244590000000  0.4816020000000 1.0
C      1  0.3940770000000  0.5290160000000  0.5127190000000 1.0
C      1  0.4767630000000  0.5016580000000  0.5309390000000 1.0
C      1  0.5328010000000  0.4806900000000  0.5027980000000 1.0
C      1  0.5007100000000  0.5387830000000  0.4799640000000 1.0
C      1  0.5241380000000  0.5050080000000  0.4687870000000 1.0
C      1  0.4858890000000  0.4948600000000  0.4645840000000 1.0
C      1  0.5195840000000  0.4993450000000  0.5279740000000 1.0
C      1  0.4744330000000  0.4799540000000  0.4985480000000 1.0
C      1  0.5258550000000  0.5236570000000  0.4971790000000 1.0
C      1  0.4663690000000  0.5187560000000  0.5033510000000 1.0
C      1  0.4935250000000  0.5285200000000  0.5201940000000 1.0
C      1  0.5056880000000  0.4697650000000  0.5204640000000 1.0
C      1  0.4970010000000  0.4656640000000  0.4780350000000 1.0
C      1  0.5662420000000  0.4838100000000  0.5784770000000 1.0
C      1  0.5900030000000  0.5746300000000  0.4790480000000 1.0
C      1  0.4909480000000  0.5746590000000  0.5644330000000 1.0
C      1  0.4314040000000  0.4848680000000  0.4234390000000 1.0
C      1  0.5664930000000  0.5228960000000  0.4122390000000 1.0
C      1  0.4284100000000  0.5137660000000  0.5771430000000 1.0
C      1  0.4196500000000  0.5708430000000  0.5151120000000 1.0
C      1  0.5779410000000  0.4299410000000  0.5125590000000 1.0
C      1  0.4111310000000  0.4346870000000  0.4850560000000 1.0
C      1  0.5212040000000  0.5906270000000  0.4357780000000 1.0
C      1  0.4727220000000  0.4112830000000  0.4269280000000 1.0
C      1  0.5098260000000  0.4216180000000  0.5676120000000 1.0
C      1  0.4582140000000  0.5574650000000  0.5085870000000 1.0
C      1  0.5183570000000  0.4590300000000  0.5564980000000 1.0
C      1  0.5592650000000  0.5240090000000  0.4665840000000 1.0
C      1  0.5363060000000  0.5619810000000  0.4944820000000 1.0
C      1  0.4667900000000  0.4400860000000  0.4849590000000 1.0
C      1  0.5390810000000  0.4382990000000  0.5147730000000 1.0
C      1  0.4898430000000  0.4641630000000  0.4393500000000 1.0
C      1  0.5254600000000  0.5313210000000  0.4472620000000 1.0
C      1  0.4788940000000  0.5375620000000  0.5558250000000 1.0
C      1  0.4355640000000  0.5134880000000  0.5363970000000 1.0
C      1  0.5576630000000  0.4869430000000  0.5371980000000 1.0
C      1  0.4411020000000  0.4779340000000  0.4616030000000 1.0
C      1  0.4533600000000  0.5321390000000  0.4549300000000 1.0
C      1  0.5447620000000  0.4553020000000  0.4648270000000 1.0
C      1  0.4538540000000  0.4598880000000  0.5388160000000 1.0
C      1  0.5430700000000  0.5333360000000  0.5458900000000 1.0
C      1  0.5004820000000  0.5013480000000  0.4932300000000 1.0
END
