TITL C-2622958-629-215 0.0272137047329218 125000 -266.824714249462 0 0 47 (C1) n - 1
REM
REM in /nfs/bkarasulu/CARBON/AIRSS/Generating-Clusters/AIREBO/with-SteepDescent/Higher-Symm/SD-CG/HFTN-CG
REM
REM
REM
REM
REM
REM ./C.cell (b20cbc046b6831c77cfcea5457e17084)
REM
REM compiler GCC version 9.2.1 20190827 (Red Hat 9.2.1-1)
REM options -cpp -mtune=generic -march=x86-64 -g -O0 -fpre-include=/usr/include/finclude/math-vector-fortran.h
REM seed 685465586 491052133 1152453766 -359681953 -612105294 172504616 -334503959 1927712307 -75584470 -1786506681 -699870071 -103308714 1847445798 501173453 734198249 560454943 750525779 1143848657 726430400 279940180 -974077478 103427612 -159973445 -1691679208 -224393592 -723221977 -1538086962 25335575 -1161591063 -1243867283 1537316432 552057148 -787254753
REM
CELL 1.54180   50.00000   50.00000   50.00000   90.00000   90.00000   90.00000
LATT -1
SFAC C  
C      1  0.5306510000000  0.4794980000000  0.4914290000000 1.0
C      1  0.5240460000000  0.4709010000000  0.5225320000000 1.0
C      1  0.4917340000000  0.4811320000000  0.5237610000000 1.0
C      1  0.4768830000000  0.4692700000000  0.4991800000000 1.0
C      1  0.4863330000000  0.4791090000000  0.4715190000000 1.0
C      1  0.5233880000000  0.5109740000000  0.4872900000000 1.0
C      1  0.5223540000000  0.5271490000000  0.5149580000000 1.0
C      1  0.4899530000000  0.5123370000000  0.5230950000000 1.0
C      1  0.4773230000000  0.5217000000000  0.4963550000000 1.0
C      1  0.4944850000000  0.5091050000000  0.4747730000000 1.0
C      1  0.5406760000000  0.4702120000000  0.4602940000000 1.0
C      1  0.5465590000000  0.4771530000000  0.5422500000000 1.0
C      1  0.4825530000000  0.4647960000000  0.5492660000000 1.0
C      1  0.4446940000000  0.4590380000000  0.5017340000000 1.0
C      1  0.4627180000000  0.4775850000000  0.4512590000000 1.0
C      1  0.5422540000000  0.5274650000000  0.4691830000000 1.0
C      1  0.5490910000000  0.5267180000000  0.5286810000000 1.0
C      1  0.4810750000000  0.5300520000000  0.5458050000000 1.0
C      1  0.4447610000000  0.5303660000000  0.4949540000000 1.0
C      1  0.4929530000000  0.5239980000000  0.4477050000000 1.0
C      1  0.5119180000000  0.5557690000000  0.5211990000000 1.0
C      1  0.4936930000000  0.5550480000000  0.5426700000000 1.0
C      1  0.4654540000000  0.5528020000000  0.4887450000000 1.0
C      1  0.5346700000000  0.5538680000000  0.4647110000000 1.0
C      1  0.5298810000000  0.5762660000000  0.4794760000000 1.0
C      1  0.5166990000000  0.4405980000000  0.5288500000000 1.0
C      1  0.4971870000000  0.4405120000000  0.5491490000000 1.0
C      1  0.4663710000000  0.4367820000000  0.5004110000000 1.0
C      1  0.5097520000000  0.4625480000000  0.4621010000000 1.0
C      1  0.5224410000000  0.4450190000000  0.4838480000000 1.0
C      1  0.5666570000000  0.4828970000000  0.5590740000000 1.0
C      1  0.4617930000000  0.4741010000000  0.5647860000000 1.0
C      1  0.4208200000000  0.4709160000000  0.5051500000000 1.0
C      1  0.4551080000000  0.4857840000000  0.4266510000000 1.0
C      1  0.5647090000000  0.4728950000000  0.4475840000000 1.0
C      1  0.5708530000000  0.5271870000000  0.5445550000000 1.0
C      1  0.4608730000000  0.5218250000000  0.5626570000000 1.0
C      1  0.4211060000000  0.5188180000000  0.5002440000000 1.0
C      1  0.4762240000000  0.5284490000000  0.4269180000000 1.0
C      1  0.5666920000000  0.5179280000000  0.4604620000000 1.0
C      1  0.4591850000000  0.5103940000000  0.4150480000000 1.0
C      1  0.4557600000000  0.4983840000000  0.5756350000000 1.0
C      1  0.4090320000000  0.4945400000000  0.4986640000000 1.0
C      1  0.5804310000000  0.5066200000000  0.5599780000000 1.0
C      1  0.5765830000000  0.4975540000000  0.4452370000000 1.0
C      1  0.5221430000000  0.4272530000000  0.5048080000000 1.0
C      1  0.5218760000000  0.5763650000000  0.5056100000000 1.0
END
