TITL C-2622957-9142-76 -0.0395378826185961 125000 -943.825874284214 0 0 177 (C1) n - 1
REM
REM in /nfs/bkarasulu/CARBON/AIRSS/Generating-Clusters/AIREBO/with-SteepDescent/Higher-Symm/SD-CG/HFTN-CG
REM
REM
REM
REM
REM
REM ./C.cell (b20cbc046b6831c77cfcea5457e17084)
REM
REM compiler GCC version 9.2.1 20190827 (Red Hat 9.2.1-1)
REM options -cpp -mtune=generic -march=x86-64 -g -O0 -fpre-include=/usr/include/finclude/math-vector-fortran.h
REM seed -1404473758 -997681167 -13874129 1105396425 -1140407775 -1290257344 197285653 2125340892 1496995626 -351298624 1332755573 145582019 676037614 909750836 2046047460 357658140 819082853 -237244811 -731855907 -223847147 -466565446 -2098423683 -2045451514 -1691993802 -204498030 342420857 454679921 -2107236051 -2146848986 -325992985 1437176075 -756108772 1965267030
REM
CELL 1.54180   50.00000   50.00000   50.00000   90.00000   90.00000   90.00000
LATT -1
SFAC C  
C      1  0.4461550000000  0.5016100000000  0.5778240000000 1.0
C      1  0.5501180000000  0.4499850000000  0.5535430000000 1.0
C      1  0.4328450000000  0.4207050000000  0.5077870000000 1.0
C      1  0.5549750000000  0.4461390000000  0.4423560000000 1.0
C      1  0.4475260000000  0.5046610000000  0.4166890000000 1.0
C      1  0.5616910000000  0.5565520000000  0.4335280000000 1.0
C      1  0.4504970000000  0.5687440000000  0.4948810000000 1.0
C      1  0.5526300000000  0.5617270000000  0.5612230000000 1.0
C      1  0.5325570000000  0.5910040000000  0.4296090000000 1.0
C      1  0.4628710000000  0.5981020000000  0.5259110000000 1.0
C      1  0.5214420000000  0.5649060000000  0.5895040000000 1.0
C      1  0.4558430000000  0.4892740000000  0.6070960000000 1.0
C      1  0.5358060000000  0.4126960000000  0.5552530000000 1.0
C      1  0.4497300000000  0.3933440000000  0.5005030000000 1.0
C      1  0.5335440000000  0.4388040000000  0.4175880000000 1.0
C      1  0.4672780000000  0.5122340000000  0.3831220000000 1.0
C      1  0.4455330000000  0.5110810000000  0.4779940000000 1.0
C      1  0.5525190000000  0.5304750000000  0.4929070000000 1.0
C      1  0.4548970000000  0.5209380000000  0.5091950000000 1.0
C      1  0.5574230000000  0.5072710000000  0.5256100000000 1.0
C      1  0.4449680000000  0.4825190000000  0.5229510000000 1.0
C      1  0.5666580000000  0.4843630000000  0.5079910000000 1.0
C      1  0.4509250000000  0.4780540000000  0.4840130000000 1.0
C      1  0.5582380000000  0.4918870000000  0.4759100000000 1.0
C      1  0.4767550000000  0.4274900000000  0.5135420000000 1.0
C      1  0.5091720000000  0.4250740000000  0.4574740000000 1.0
C      1  0.4933350000000  0.4850200000000  0.4284780000000 1.0
C      1  0.5105970000000  0.5351640000000  0.4354330000000 1.0
C      1  0.4970080000000  0.5886640000000  0.4765020000000 1.0
C      1  0.5198350000000  0.5683520000000  0.5395460000000 1.0
C      1  0.4958640000000  0.5170350000000  0.5821050000000 1.0
C      1  0.5073910000000  0.4617940000000  0.5691150000000 1.0
C      1  0.4064600000000  0.5631000000000  0.4772600000000 1.0
C      1  0.5865430000000  0.5701810000000  0.5155790000000 1.0
C      1  0.4063660000000  0.5341950000000  0.5547110000000 1.0
C      1  0.5961620000000  0.4726900000000  0.5652270000000 1.0
C      1  0.4060230000000  0.4575790000000  0.5357120000000 1.0
C      1  0.5964050000000  0.4338460000000  0.4860060000000 1.0
C      1  0.3919480000000  0.4660450000000  0.4504380000000 1.0
C      1  0.5987880000000  0.5155950000000  0.4378330000000 1.0
C      1  0.5266320000000  0.4047440000000  0.4873400000000 1.0
C      1  0.4615350000000  0.4397540000000  0.4274920000000 1.0
C      1  0.5387430000000  0.5157030000000  0.3975100000000 1.0
C      1  0.4607590000000  0.5751850000000  0.4434380000000 1.0
C      1  0.5312100000000  0.5985860000000  0.5162520000000 1.0
C      1  0.4708980000000  0.5542520000000  0.5761580000000 1.0
C      1  0.5389050000000  0.4922070000000  0.5936820000000 1.0
C      1  0.4666990000000  0.4220010000000  0.5642840000000 1.0
C      1  0.4017900000000  0.5285580000000  0.5026440000000 1.0
C      1  0.6034080000000  0.5100600000000  0.5178230000000 1.0
C      1  0.3961790000000  0.4985710000000  0.5138930000000 1.0
C      1  0.6057190000000  0.4769490000000  0.5102230000000 1.0
C      1  0.3943680000000  0.4796970000000  0.4879350000000 1.0
C      1  0.6016900000000  0.4928580000000  0.4823060000000 1.0
C      1  0.3906360000000  0.5100180000000  0.4763690000000 1.0
C      1  0.6025310000000  0.5258760000000  0.4894710000000 1.0
C      1  0.4656290000000  0.5250930000000  0.5928470000000 1.0
C      1  0.5369140000000  0.4606150000000  0.5823610000000 1.0
C      1  0.4675450000000  0.3942150000000  0.5447050000000 1.0
C      1  0.5258480000000  0.3973650000000  0.4541530000000 1.0
C      1  0.4737770000000  0.4656240000000  0.4103280000000 1.0
C      1  0.5355410000000  0.5438430000000  0.4158630000000 1.0
C      1  0.4653680000000  0.5865400000000  0.4726580000000 1.0
C      1  0.5408970000000  0.5926980000000  0.5491420000000 1.0
C      1  0.5537920000000  0.4854170000000  0.4013230000000 1.0
C      1  0.4568090000000  0.5618550000000  0.4123960000000 1.0
C      1  0.5409630000000  0.5893910000000  0.4849740000000 1.0
C      1  0.4518150000000  0.5805180000000  0.5721390000000 1.0
C      1  0.5442720000000  0.5238230000000  0.6052410000000 1.0
C      1  0.4624420000000  0.4497640000000  0.5834610000000 1.0
C      1  0.5464980000000  0.3917410000000  0.5109210000000 1.0
C      1  0.4512830000000  0.4113640000000  0.4435520000000 1.0
C      1  0.5583660000000  0.4374430000000  0.5165110000000 1.0
C      1  0.4396640000000  0.4490150000000  0.4727370000000 1.0
C      1  0.5567910000000  0.4858600000000  0.4423190000000 1.0
C      1  0.4296100000000  0.5380280000000  0.4293610000000 1.0
C      1  0.5594840000000  0.5566420000000  0.4732850000000 1.0
C      1  0.4418600000000  0.5541070000000  0.5344050000000 1.0
C      1  0.5605190000000  0.5213120000000  0.5561090000000 1.0
C      1  0.4527250000000  0.4608790000000  0.5416670000000 1.0
C      1  0.5278660000000  0.4954810000000  0.4810460000000 1.0
C      1  0.4752360000000  0.5135120000000  0.4654230000000 1.0
C      1  0.5263850000000  0.5246260000000  0.5082750000000 1.0
C      1  0.4815500000000  0.5088720000000  0.5265160000000 1.0
C      1  0.5259290000000  0.5053270000000  0.5363050000000 1.0
C      1  0.4763970000000  0.4774640000000  0.5145390000000 1.0
C      1  0.5216060000000  0.4659550000000  0.4913160000000 1.0
C      1  0.4844280000000  0.4850140000000  0.4815370000000 1.0
C      1  0.4175290000000  0.5024320000000  0.5594830000000 1.0
C      1  0.5803270000000  0.4494460000000  0.5474840000000 1.0
C      1  0.4110360000000  0.4413750000000  0.5070630000000 1.0
C      1  0.5957740000000  0.4581120000000  0.4668810000000 1.0
C      1  0.4032010000000  0.4897770000000  0.4447070000000 1.0
C      1  0.5835150000000  0.5403690000000  0.4435880000000 1.0
C      1  0.4229850000000  0.5651190000000  0.5009190000000 1.0
C      1  0.5812070000000  0.5550330000000  0.5440400000000 1.0
C      1  0.5757320000000  0.4162650000000  0.4788280000000 1.0
C      1  0.4359860000000  0.4797680000000  0.4150340000000 1.0
C      1  0.5641740000000  0.5164010000000  0.4180770000000 1.0
C      1  0.4081100000000  0.5770640000000  0.4534530000000 1.0
C      1  0.5689310000000  0.5933880000000  0.5136500000000 1.0
C      1  0.4300170000000  0.5377920000000  0.5728540000000 1.0
C      1  0.5884900000000  0.4899580000000  0.5839900000000 1.0
C      1  0.4197220000000  0.4332420000000  0.5455250000000 1.0
C      1  0.4631120000000  0.5364490000000  0.4350420000000 1.0
C      1  0.5188520000000  0.5729360000000  0.4718070000000 1.0
C      1  0.4811410000000  0.5753810000000  0.5328870000000 1.0
C      1  0.5128940000000  0.5393400000000  0.5763630000000 1.0
C      1  0.4665590000000  0.4700270000000  0.5635630000000 1.0
C      1  0.5146190000000  0.4139800000000  0.5315570000000 1.0
C      1  0.4777580000000  0.4242390000000  0.4604030000000 1.0
C      1  0.5318060000000  0.4722240000000  0.4236540000000 1.0
C      1  0.4697270000000  0.5509510000000  0.5151730000000 1.0
C      1  0.5316610000000  0.5378860000000  0.5490000000000 1.0
C      1  0.4750520000000  0.5026980000000  0.5593520000000 1.0
C      1  0.5281140000000  0.4433180000000  0.5307360000000 1.0
C      1  0.4707380000000  0.4413110000000  0.4842240000000 1.0
C      1  0.5275790000000  0.4492580000000  0.4623070000000 1.0
C      1  0.4732730000000  0.5065410000000  0.4350540000000 1.0
C      1  0.5306740000000  0.5426520000000  0.4618320000000 1.0
C      1  0.5480610000000  0.5486460000000  0.5924830000000 1.0
C      1  0.4549770000000  0.4610420000000  0.6077120000000 1.0
C      1  0.5541340000000  0.4096830000000  0.5309300000000 1.0
C      1  0.4419340000000  0.4151900000000  0.4754820000000 1.0
C      1  0.5638710000000  0.4542300000000  0.4103750000000 1.0
C      1  0.4453630000000  0.5322990000000  0.3997330000000 1.0
C      1  0.5529280000000  0.5826500000000  0.4535880000000 1.0
C      1  0.4441450000000  0.5831210000000  0.5454500000000 1.0
C      1  0.4517380000000  0.4295160000000  0.5346700000000 1.0
C      1  0.5464690000000  0.4324290000000  0.4850520000000 1.0
C      1  0.4433140000000  0.4621470000000  0.4415860000000 1.0
C      1  0.5502640000000  0.5188310000000  0.4474790000000 1.0
C      1  0.4284710000000  0.5692680000000  0.4375710000000 1.0
C      1  0.5464920000000  0.5682840000000  0.5184390000000 1.0
C      1  0.4578710000000  0.5316610000000  0.5543280000000 1.0
C      1  0.5652270000000  0.5028150000000  0.5794870000000 1.0
C      1  0.4930670000000  0.5699590000000  0.5604690000000 1.0
C      1  0.5092950000000  0.4986370000000  0.6036930000000 1.0
C      1  0.4964050000000  0.4331970000000  0.5720570000000 1.0
C      1  0.4990590000000  0.4026270000000  0.5071490000000 1.0
C      1  0.4913560000000  0.4257630000000  0.4285230000000 1.0
C      1  0.5149330000000  0.4941320000000  0.4040280000000 1.0
C      1  0.4887130000000  0.5587490000000  0.4331990000000 1.0
C      1  0.5030150000000  0.6079790000000  0.4996210000000 1.0
C      1  0.4328410000000  0.4927100000000  0.4523230000000 1.0
C      1  0.5756400000000  0.5205060000000  0.4700530000000 1.0
C      1  0.4217470000000  0.5331360000000  0.4763150000000 1.0
C      1  0.5602890000000  0.5408920000000  0.5214160000000 1.0
C      1  0.4395410000000  0.5095920000000  0.5360700000000 1.0
C      1  0.5846920000000  0.4798940000000  0.5355510000000 1.0
C      1  0.4241760000000  0.4724260000000  0.5026780000000 1.0
C      1  0.5664020000000  0.4599670000000  0.4839150000000 1.0
C      1  0.5268940000000  0.4284030000000  0.5774090000000 1.0
C      1  0.4716750000000  0.3883200000000  0.5178990000000 1.0
C      1  0.5210540000000  0.4101830000000  0.4229190000000 1.0
C      1  0.4838620000000  0.4913760000000  0.3904980000000 1.0
C      1  0.5166330000000  0.5706320000000  0.4185800000000 1.0
C      1  0.4707760000000  0.6064780000000  0.4999980000000 1.0
C      1  0.5179740000000  0.5892460000000  0.5732650000000 1.0
C      1  0.4807750000000  0.5036910000000  0.6162940000000 1.0
C      1  0.5901300000000  0.4469560000000  0.5143710000000 1.0
C      1  0.4057570000000  0.4506660000000  0.4750720000000 1.0
C      1  0.5896250000000  0.4878320000000  0.4515520000000 1.0
C      1  0.4063580000000  0.5223550000000  0.4486960000000 1.0
C      1  0.5855230000000  0.5530130000000  0.4927970000000 1.0
C      1  0.4127450000000  0.5456560000000  0.5261880000000 1.0
C      1  0.5908020000000  0.5236460000000  0.5400220000000 1.0
C      1  0.4033110000000  0.4847380000000  0.5373080000000 1.0
C      1  0.5130380000000  0.5074440000000  0.4549740000000 1.0
C      1  0.5001410000000  0.5325610000000  0.4739190000000 1.0
C      1  0.4973430000000  0.5408730000000  0.5023630000000 1.0
C      1  0.5003820000000  0.5356340000000  0.5357850000000 1.0
C      1  0.5043590000000  0.4874430000000  0.5512160000000 1.0
C      1  0.5036560000000  0.4639590000000  0.5293950000000 1.0
C      1  0.4989860000000  0.4477650000000  0.5008800000000 1.0
C      1  0.5053770000000  0.4743110000000  0.4559000000000 1.0
C      1  0.5049140000000  0.5018640000000  0.5028170000000 1.0
END
