TITL C-2622958-629-470 0.00058535636149688 125000 -322.987752716727 0 0 61 (C1) n - 1
REM
REM in /nfs/bkarasulu/CARBON/AIRSS/Generating-Clusters/AIREBO/with-SteepDescent/Higher-Symm/SD-CG/HFTN-CG
REM
REM
REM
REM
REM
REM ./C.cell (b20cbc046b6831c77cfcea5457e17084)
REM
REM compiler GCC version 9.2.1 20190827 (Red Hat 9.2.1-1)
REM options -cpp -mtune=generic -march=x86-64 -g -O0 -fpre-include=/usr/include/finclude/math-vector-fortran.h
REM seed 1788130675 -1573988593 -1406358812 -971800824 2030196901 -1823151379 554727046 -1540582796 1394342923 434279873 -1683526531 -1453783358 -1418326101 -974018673 92571853 494491058 993733783 -109150702 1448613719 1378891748 -350761589 -811985291 -1595621955 818835842 1672280446 -341168029 -1627487373 -2140618139 1445740046 722534706 631430894 2143608755 -1693323126
REM
CELL 1.54180   50.00000   50.00000   50.00000   90.00000   90.00000   90.00000
LATT -1
SFAC C  
C      1  0.4918660000000  0.5097740000000  0.5762050000000 1.0
C      1  0.4833810000000  0.4997900000000  0.4211120000000 1.0
C      1  0.5307470000000  0.4467690000000  0.4570790000000 1.0
C      1  0.5255290000000  0.4451860000000  0.5216790000000 1.0
C      1  0.4872580000000  0.4155360000000  0.5022360000000 1.0
C      1  0.5023960000000  0.4025680000000  0.4764680000000 1.0
C      1  0.4631440000000  0.4279850000000  0.5089150000000 1.0
C      1  0.4475160000000  0.4389640000000  0.4875150000000 1.0
C      1  0.5115600000000  0.5705600000000  0.5245810000000 1.0
C      1  0.5014840000000  0.5706920000000  0.4711820000000 1.0
C      1  0.4750400000000  0.5258480000000  0.4806770000000 1.0
C      1  0.4670650000000  0.5273970000000  0.5122120000000 1.0
C      1  0.4844320000000  0.4943630000000  0.4722430000000 1.0
C      1  0.4819920000000  0.5035520000000  0.5277140000000 1.0
C      1  0.4485910000000  0.5073320000000  0.4570670000000 1.0
C      1  0.4515260000000  0.5090680000000  0.5530360000000 1.0
C      1  0.5712130000000  0.5352190000000  0.5338910000000 1.0
C      1  0.5685550000000  0.4807040000000  0.4795390000000 1.0
C      1  0.5269640000000  0.4236210000000  0.4743460000000 1.0
C      1  0.5163080000000  0.4283480000000  0.5029530000000 1.0
C      1  0.5161730000000  0.5424760000000  0.4798750000000 1.0
C      1  0.5212400000000  0.5408740000000  0.5109780000000 1.0
C      1  0.5034800000000  0.4975010000000  0.5510410000000 1.0
C      1  0.4990470000000  0.4870440000000  0.4453110000000 1.0
C      1  0.4798540000000  0.5562190000000  0.4886140000000 1.0
C      1  0.4807300000000  0.5573060000000  0.5200960000000 1.0
C      1  0.5428330000000  0.5196390000000  0.5231850000000 1.0
C      1  0.5460360000000  0.4740540000000  0.4676440000000 1.0
C      1  0.5119660000000  0.5357840000000  0.5434510000000 1.0
C      1  0.5109790000000  0.5237600000000  0.4555460000000 1.0
C      1  0.5292250000000  0.5309870000000  0.4301500000000 1.0
C      1  0.5328110000000  0.5223800000000  0.5616140000000 1.0
C      1  0.4793170000000  0.4406500000000  0.4437930000000 1.0
C      1  0.4840290000000  0.4422150000000  0.5545270000000 1.0
C      1  0.5737220000000  0.5142930000000  0.5110020000000 1.0
C      1  0.5852890000000  0.4982630000000  0.4930820000000 1.0
C      1  0.4647270000000  0.4462080000000  0.4649710000000 1.0
C      1  0.4629780000000  0.4484750000000  0.5330600000000 1.0
C      1  0.5190470000000  0.5952180000000  0.5086460000000 1.0
C      1  0.5139510000000  0.5955780000000  0.4838480000000 1.0
C      1  0.4423280000000  0.4868020000000  0.4739980000000 1.0
C      1  0.4480310000000  0.4862050000000  0.5394910000000 1.0
C      1  0.5346590000000  0.4686910000000  0.4308010000000 1.0
C      1  0.5366010000000  0.4656460000000  0.5429290000000 1.0
C      1  0.5111140000000  0.4470490000000  0.5502550000000 1.0
C      1  0.5044410000000  0.4561100000000  0.4400020000000 1.0
C      1  0.4335050000000  0.4640330000000  0.5235350000000 1.0
C      1  0.4316390000000  0.4627850000000  0.4947900000000 1.0
C      1  0.4790660000000  0.5288350000000  0.5502800000000 1.0
C      1  0.4781270000000  0.5210110000000  0.4471560000000 1.0
C      1  0.5300610000000  0.4964960000000  0.4501360000000 1.0
C      1  0.5331770000000  0.4948860000000  0.5426890000000 1.0
C      1  0.4661580000000  0.5602890000000  0.5507720000000 1.0
C      1  0.4749580000000  0.5510920000000  0.4350660000000 1.0
C      1  0.6116690000000  0.4989860000000  0.4875330000000 1.0
C      1  0.5492290000000  0.5309440000000  0.5795170000000 1.0
C      1  0.4897460000000  0.5702490000000  0.4425190000000 1.0
C      1  0.4982090000000  0.5636180000000  0.5550710000000 1.0
C      1  0.4694620000000  0.4723460000000  0.4865860000000 1.0
C      1  0.4708370000000  0.4760220000000  0.5164140000000 1.0
C      1  0.4365830000000  0.5325780000000  0.5151650000000 1.0
END
