TITL C-2622953-3516-822 0.00072611873477864 125000 -394.300079183634 0 0 71 (C1) n - 1
REM
REM in /nfs/bkarasulu/CARBON/AIRSS/Generating-Clusters/AIREBO/with-SteepDescent/Higher-Symm/SD-CG/HFTN-CG
REM
REM
REM
REM
REM
REM ./C.cell (b20cbc046b6831c77cfcea5457e17084)
REM
REM compiler GCC version 9.2.1 20190827 (Red Hat 9.2.1-1)
REM options -cpp -mtune=generic -march=x86-64 -g -O0 -fpre-include=/usr/include/finclude/math-vector-fortran.h
REM seed -1558390605 1156029308 1546531385 -1000971415 -173169167 -79050216 1217912277 1728503682 1818197371 858824655 1532246508 -40946699 -949519464 725057023 -870771482 -658993362 -115973078 -1742606135 -139789196 -820402890 842627573 823319887 -1019083205 -477991856 232120923 403346797 1799417943 70221499 763867728 1506775880 -67947755 398472157 960562249
REM
CELL 1.54180   50.00000   50.00000   50.00000   90.00000   90.00000   90.00000
LATT -1
SFAC C  
C      1  0.4861910000000  0.5231190000000  0.5584770000000 1.0
C      1  0.5107760000000  0.5308370000000  0.4549720000000 1.0
C      1  0.5063740000000  0.4319420000000  0.4998150000000 1.0
C      1  0.5787050000000  0.5583700000000  0.4597210000000 1.0
C      1  0.5723090000000  0.4399540000000  0.4688430000000 1.0
C      1  0.5646720000000  0.5101140000000  0.5572670000000 1.0
C      1  0.5217170000000  0.5821090000000  0.4619610000000 1.0
C      1  0.5199970000000  0.4323220000000  0.4557790000000 1.0
C      1  0.5229810000000  0.5007130000000  0.5833630000000 1.0
C      1  0.5231570000000  0.4554450000000  0.4805240000000 1.0
C      1  0.5129350000000  0.5111740000000  0.5460850000000 1.0
C      1  0.5291220000000  0.5509600000000  0.4726970000000 1.0
C      1  0.4693940000000  0.5683770000000  0.5569810000000 1.0
C      1  0.4685260000000  0.5261290000000  0.4351290000000 1.0
C      1  0.4640810000000  0.4286420000000  0.5140910000000 1.0
C      1  0.5073580000000  0.4779120000000  0.5415400000000 1.0
C      1  0.5020230000000  0.5518220000000  0.4932210000000 1.0
C      1  0.4971270000000  0.4708830000000  0.4650170000000 1.0
C      1  0.4744090000000  0.5028200000000  0.4730070000000 1.0
C      1  0.4761050000000  0.4701410000000  0.5104520000000 1.0
C      1  0.4755090000000  0.5220190000000  0.5199800000000 1.0
C      1  0.5512640000000  0.4177680000000  0.5068400000000 1.0
C      1  0.5380510000000  0.5504410000000  0.5681450000000 1.0
C      1  0.5504580000000  0.5288750000000  0.4318420000000 1.0
C      1  0.5096210000000  0.4640610000000  0.5105390000000 1.0
C      1  0.5069930000000  0.5298330000000  0.5186850000000 1.0
C      1  0.5050690000000  0.5039050000000  0.4666520000000 1.0
C      1  0.4555000000000  0.5280250000000  0.4632210000000 1.0
C      1  0.4532700000000  0.4507080000000  0.4947700000000 1.0
C      1  0.4615190000000  0.5078060000000  0.5464590000000 1.0
C      1  0.4992010000000  0.4450980000000  0.5440560000000 1.0
C      1  0.4958550000000  0.5753990000000  0.5160020000000 1.0
C      1  0.4946310000000  0.4820370000000  0.4331230000000 1.0
C      1  0.5337350000000  0.4856580000000  0.4682110000000 1.0
C      1  0.5411040000000  0.4676520000000  0.5228900000000 1.0
C      1  0.5370670000000  0.5391890000000  0.5057860000000 1.0
C      1  0.5295130000000  0.4441110000000  0.5388730000000 1.0
C      1  0.5252680000000  0.5650260000000  0.5229080000000 1.0
C      1  0.5256750000000  0.4879610000000  0.4365770000000 1.0
C      1  0.5568310000000  0.4951700000000  0.4833330000000 1.0
C      1  0.5570900000000  0.4876980000000  0.5144850000000 1.0
C      1  0.5566520000000  0.5181810000000  0.5044710000000 1.0
C      1  0.4587010000000  0.4829070000000  0.5676490000000 1.0
C      1  0.4555510000000  0.5563230000000  0.4809330000000 1.0
C      1  0.4514700000000  0.4528220000000  0.4613520000000 1.0
C      1  0.4978880000000  0.4297820000000  0.4429690000000 1.0
C      1  0.5051650000000  0.4832500000000  0.5735760000000 1.0
C      1  0.4974880000000  0.5901060000000  0.4645180000000 1.0
C      1  0.4940560000000  0.5382220000000  0.4347920000000 1.0
C      1  0.4860930000000  0.4154240000000  0.5031150000000 1.0
C      1  0.4811250000000  0.5470010000000  0.5697500000000 1.0
C      1  0.4808780000000  0.5734770000000  0.4825160000000 1.0
C      1  0.4788380000000  0.4517630000000  0.4472830000000 1.0
C      1  0.4796490000000  0.4781830000000  0.5838760000000 1.0
C      1  0.5362220000000  0.5681590000000  0.5475370000000 1.0
C      1  0.5433730000000  0.5037410000000  0.4228770000000 1.0
C      1  0.5452460000000  0.4209910000000  0.5337190000000 1.0
C      1  0.4574590000000  0.4688340000000  0.5388710000000 1.0
C      1  0.4574110000000  0.5474150000000  0.5134360000000 1.0
C      1  0.4529840000000  0.4859380000000  0.4549090000000 1.0
C      1  0.4350210000000  0.4923090000000  0.5325080000000 1.0
C      1  0.4377780000000  0.5292700000000  0.4924270000000 1.0
C      1  0.4336240000000  0.4748850000000  0.4805810000000 1.0
C      1  0.4717570000000  0.4415380000000  0.5380670000000 1.0
C      1  0.4701330000000  0.5693670000000  0.5299920000000 1.0
C      1  0.4684330000000  0.4973980000000  0.4297630000000 1.0
C      1  0.5394350000000  0.5197820000000  0.5641210000000 1.0
C      1  0.5551770000000  0.5456230000000  0.4539290000000 1.0
C      1  0.5511820000000  0.4370330000000  0.4862050000000 1.0
C      1  0.4341450000000  0.4988790000000  0.5017700000000 1.0
C      1  0.4676230000000  0.4984550000000  0.5017050000000 1.0
END
