TITL C-2622966-9038-780 -0.00116299917717139 125000 -982.348921079842 0 0 184 (C1) n - 1
REM
REM in /nfs/bkarasulu/CARBON/AIRSS/Generating-Clusters/AIREBO/with-SteepDescent/Higher-Symm/SD-CG/HFTN-CG
REM
REM
REM
REM
REM
REM ./C.cell (b20cbc046b6831c77cfcea5457e17084)
REM
REM compiler GCC version 9.2.1 20190827 (Red Hat 9.2.1-1)
REM options -cpp -mtune=generic -march=x86-64 -g -O0 -fpre-include=/usr/include/finclude/math-vector-fortran.h
REM seed 250376506 1841401432 -426420718 -196015899 515488386 805368096 1333341025 -243010305 252860831 1902026815 1292578706 -1709968718 365374426 -1414795060 -2017120059 -907380434 -564445063 57862609 -1892729766 674175474 849500528 804384100 -211764909 -1543455539 1091713641 -872255338 -239135826 -521766487 1871370665 1865760070 175389571 1058918554 -1387894765
REM
CELL 1.54180   50.00000   50.00000   50.00000   90.00000   90.00000   90.00000
LATT -1
SFAC C  
C      1  0.5241450000000  0.4807540000000  0.6066280000000 1.0
C      1  0.3959970000000  0.4818280000000  0.4547600000000 1.0
C      1  0.5871990000000  0.4786710000000  0.4350530000000 1.0
C      1  0.4505940000000  0.5816980000000  0.5631410000000 1.0
C      1  0.4618400000000  0.5820500000000  0.4296770000000 1.0
C      1  0.5793410000000  0.5769570000000  0.5172090000000 1.0
C      1  0.5467010000000  0.5552520000000  0.5785830000000 1.0
C      1  0.4184500000000  0.5563450000000  0.4802500000000 1.0
C      1  0.5527480000000  0.5595020000000  0.4306910000000 1.0
C      1  0.4562510000000  0.5468200000000  0.5290550000000 1.0
C      1  0.4988070000000  0.5489520000000  0.4481680000000 1.0
C      1  0.5265490000000  0.5607920000000  0.5256940000000 1.0
C      1  0.5633500000000  0.5523640000000  0.5011740000000 1.0
C      1  0.4631900000000  0.5525750000000  0.5595700000000 1.0
C      1  0.4678160000000  0.5577940000000  0.4512920000000 1.0
C      1  0.5164050000000  0.5699280000000  0.5790160000000 1.0
C      1  0.4433530000000  0.5759770000000  0.4770760000000 1.0
C      1  0.5495940000000  0.5776870000000  0.4563340000000 1.0
C      1  0.5748990000000  0.5945090000000  0.5442380000000 1.0
C      1  0.4281040000000  0.5956050000000  0.5484360000000 1.0
C      1  0.4837080000000  0.5998050000000  0.4151870000000 1.0
C      1  0.4066810000000  0.5252220000000  0.4274590000000 1.0
C      1  0.6044030000000  0.5273630000000  0.4506980000000 1.0
C      1  0.4930200000000  0.5266700000000  0.6051610000000 1.0
C      1  0.5092290000000  0.4279140000000  0.5812060000000 1.0
C      1  0.4300910000000  0.4321010000000  0.4595840000000 1.0
C      1  0.5696810000000  0.4286440000000  0.4565560000000 1.0
C      1  0.4197810000000  0.4628580000000  0.5255040000000 1.0
C      1  0.5108220000000  0.4624590000000  0.4304060000000 1.0
C      1  0.5557320000000  0.4725270000000  0.5353630000000 1.0
C      1  0.4777540000000  0.4258700000000  0.5751490000000 1.0
C      1  0.4594260000000  0.4224120000000  0.4453580000000 1.0
C      1  0.5896260000000  0.4271700000000  0.4772290000000 1.0
C      1  0.4891080000000  0.4206330000000  0.4277580000000 1.0
C      1  0.5823480000000  0.4207230000000  0.5102380000000 1.0
C      1  0.4445510000000  0.4205730000000  0.5699540000000 1.0
C      1  0.4356660000000  0.4848740000000  0.4516540000000 1.0
C      1  0.5643080000000  0.4866520000000  0.4668530000000 1.0
C      1  0.4988270000000  0.4813220000000  0.5748820000000 1.0
C      1  0.5923010000000  0.6136870000000  0.5502750000000 1.0
C      1  0.4080880000000  0.6086520000000  0.5585780000000 1.0
C      1  0.4823410000000  0.6140900000000  0.3937590000000 1.0
C      1  0.5844260000000  0.5081880000000  0.4794840000000 1.0
C      1  0.4728210000000  0.5025250000000  0.5808640000000 1.0
C      1  0.4472420000000  0.5047210000000  0.4315390000000 1.0
C      1  0.4604340000000  0.4533820000000  0.4313490000000 1.0
C      1  0.5956820000000  0.4574210000000  0.5019940000000 1.0
C      1  0.4440120000000  0.4698710000000  0.5628960000000 1.0
C      1  0.5221860000000  0.4228050000000  0.4354570000000 1.0
C      1  0.5615210000000  0.4298470000000  0.5383530000000 1.0
C      1  0.4207950000000  0.4304820000000  0.5084120000000 1.0
C      1  0.4291280000000  0.4148730000000  0.4827650000000 1.0
C      1  0.5483820000000  0.4107120000000  0.4527800000000 1.0
C      1  0.5146590000000  0.4068880000000  0.5601100000000 1.0
C      1  0.4554030000000  0.4967360000000  0.5453990000000 1.0
C      1  0.5008610000000  0.4897150000000  0.4616530000000 1.0
C      1  0.5394030000000  0.4871440000000  0.5147490000000 1.0
C      1  0.4590350000000  0.5525810000000  0.4128750000000 1.0
C      1  0.6020580000000  0.5528440000000  0.5094100000000 1.0
C      1  0.4371610000000  0.5509150000000  0.5768990000000 1.0
C      1  0.4499920000000  0.4660860000000  0.5921700000000 1.0
C      1  0.4471920000000  0.4666450000000  0.4029610000000 1.0
C      1  0.6251610000000  0.4712860000000  0.5043560000000 1.0
C      1  0.5429060000000  0.5474790000000  0.4672240000000 1.0
C      1  0.5122530000000  0.5497510000000  0.5527040000000 1.0
C      1  0.4597630000000  0.5496680000000  0.4833310000000 1.0
C      1  0.3862850000000  0.5347410000000  0.5028550000000 1.0
C      1  0.5475080000000  0.5241760000000  0.3913760000000 1.0
C      1  0.5713270000000  0.5404030000000  0.5896690000000 1.0
C      1  0.4246760000000  0.4353750000000  0.5688300000000 1.0
C      1  0.4850180000000  0.4253220000000  0.3974270000000 1.0
C      1  0.5952750000000  0.4296380000000  0.5397460000000 1.0
C      1  0.4916140000000  0.5092740000000  0.4084120000000 1.0
C      1  0.5821190000000  0.5147890000000  0.5314680000000 1.0
C      1  0.4189200000000  0.5123500000000  0.5479000000000 1.0
C      1  0.5553260000000  0.5331210000000  0.5275320000000 1.0
C      1  0.4283080000000  0.5300050000000  0.5251700000000 1.0
C      1  0.4982240000000  0.5202220000000  0.4372410000000 1.0
C      1  0.5010810000000  0.5819840000000  0.4895100000000 1.0
C      1  0.5329200000000  0.5824720000000  0.4918060000000 1.0
C      1  0.4867420000000  0.5780380000000  0.5162740000000 1.0
C      1  0.4805790000000  0.5195930000000  0.5453110000000 1.0
C      1  0.4746010000000  0.5111120000000  0.4599870000000 1.0
C      1  0.5310020000000  0.5188730000000  0.5076600000000 1.0
C      1  0.4178860000000  0.4622240000000  0.4699530000000 1.0
C      1  0.5618690000000  0.4598930000000  0.4456120000000 1.0
C      1  0.5239640000000  0.4586000000000  0.5807900000000 1.0
C      1  0.5518010000000  0.5614410000000  0.5460430000000 1.0
C      1  0.4303740000000  0.5611770000000  0.5117470000000 1.0
C      1  0.5195030000000  0.5660170000000  0.4336950000000 1.0
C      1  0.4453640000000  0.4923280000000  0.5170090000000 1.0
C      1  0.5318930000000  0.4844950000000  0.4562330000000 1.0
C      1  0.5232270000000  0.4873940000000  0.5531850000000 1.0
C      1  0.4757180000000  0.4311300000000  0.4966140000000 1.0
C      1  0.5214340000000  0.4295710000000  0.4802250000000 1.0
C      1  0.5030670000000  0.4253750000000  0.5266290000000 1.0
C      1  0.6321170000000  0.4919410000000  0.4914640000000 1.0
C      1  0.4510920000000  0.4861800000000  0.6100970000000 1.0
C      1  0.4399600000000  0.4947070000000  0.4015870000000 1.0
C      1  0.4619080000000  0.5961480000000  0.4608820000000 1.0
C      1  0.5489610000000  0.5917550000000  0.5139580000000 1.0
C      1  0.4796740000000  0.5899640000000  0.5473260000000 1.0
C      1  0.4542770000000  0.3988900000000  0.4870610000000 1.0
C      1  0.5399550000000  0.3955490000000  0.4782380000000 1.0
C      1  0.4899030000000  0.3944360000000  0.5521200000000 1.0
C      1  0.4569530000000  0.4652720000000  0.4628050000000 1.0
C      1  0.5511960000000  0.4640990000000  0.4845580000000 1.0
C      1  0.4864280000000  0.4711990000000  0.5464600000000 1.0
C      1  0.5736280000000  0.5374890000000  0.4403620000000 1.0
C      1  0.5197860000000  0.5379350000000  0.5900690000000 1.0
C      1  0.4186190000000  0.5356980000000  0.4575490000000 1.0
C      1  0.4976860000000  0.4508730000000  0.4797590000000 1.0
C      1  0.5085280000000  0.4539740000000  0.5180420000000 1.0
C      1  0.4701870000000  0.4616320000000  0.5106410000000 1.0
C      1  0.4469270000000  0.6055470000000  0.4903690000000 1.0
C      1  0.5260100000000  0.5969160000000  0.4620700000000 1.0
C      1  0.5111820000000  0.5905510000000  0.5554800000000 1.0
C      1  0.5298940000000  0.5239260000000  0.4463450000000 1.0
C      1  0.5336070000000  0.5259030000000  0.5525870000000 1.0
C      1  0.4422650000000  0.5274510000000  0.4942670000000 1.0
C      1  0.5311020000000  0.4891490000000  0.4247000000000 1.0
C      1  0.5520000000000  0.4917630000000  0.5621360000000 1.0
C      1  0.4135670000000  0.4919280000000  0.5089760000000 1.0
C      1  0.5521560000000  0.4518470000000  0.5629430000000 1.0
C      1  0.4004240000000  0.4558740000000  0.4984400000000 1.0
C      1  0.5395920000000  0.4495030000000  0.4221050000000 1.0
C      1  0.5788940000000  0.5058930000000  0.4288760000000 1.0
C      1  0.5310770000000  0.5082250000000  0.6024290000000 1.0
C      1  0.3998850000000  0.5083830000000  0.4629980000000 1.0
C      1  0.4727870000000  0.4219300000000  0.5417300000000 1.0
C      1  0.4785360000000  0.4113900000000  0.4690590000000 1.0
C      1  0.5430370000000  0.4184430000000  0.5032670000000 1.0
C      1  0.3842410000000  0.4780830000000  0.5191890000000 1.0
C      1  0.5296130000000  0.4700750000000  0.3965920000000 1.0
C      1  0.5781970000000  0.4729750000000  0.5685550000000 1.0
C      1  0.4049920000000  0.4756860000000  0.4277850000000 1.0
C      1  0.6081900000000  0.4747180000000  0.4538860000000 1.0
C      1  0.5016200000000  0.4793920000000  0.6225960000000 1.0
C      1  0.6140010000000  0.5012800000000  0.4682060000000 1.0
C      1  0.4795850000000  0.4995630000000  0.6140760000000 1.0
C      1  0.4119020000000  0.5003180000000  0.4135180000000 1.0
C      1  0.5344540000000  0.5985750000000  0.5361420000000 1.0
C      1  0.4648110000000  0.6018480000000  0.5190490000000 1.0
C      1  0.4918330000000  0.6005240000000  0.4652960000000 1.0
C      1  0.5218310000000  0.4696920000000  0.4945830000000 1.0
C      1  0.4939050000000  0.4847180000000  0.5184910000000 1.0
C      1  0.4790900000000  0.4780230000000  0.4819470000000 1.0
C      1  0.4003210000000  0.4905210000000  0.5464900000000 1.0
C      1  0.5003820000000  0.4848550000000  0.3991970000000 1.0
C      1  0.5891170000000  0.4922050000000  0.5443950000000 1.0
C      1  0.4889840000000  0.5485840000000  0.5296360000000 1.0
C      1  0.4935990000000  0.5517990000000  0.4807660000000 1.0
C      1  0.5239410000000  0.5497830000000  0.4953500000000 1.0
C      1  0.4625860000000  0.4536600000000  0.5430670000000 1.0
C      1  0.4897770000000  0.4481380000000  0.4477360000000 1.0
C      1  0.5639030000000  0.4452960000000  0.5016230000000 1.0
C      1  0.5724540000000  0.5368110000000  0.4743090000000 1.0
C      1  0.4826260000000  0.5343900000000  0.5746170000000 1.0
C      1  0.4490680000000  0.5311230000000  0.4497550000000 1.0
C      1  0.6083310000000  0.4525370000000  0.4718450000000 1.0
C      1  0.4615200000000  0.4423250000000  0.5986090000000 1.0
C      1  0.4267710000000  0.4556760000000  0.4253310000000 1.0
C      1  0.5511930000000  0.5157330000000  0.5796770000000 1.0
C      1  0.4097990000000  0.5175550000000  0.4920850000000 1.0
C      1  0.5489230000000  0.5136420000000  0.4200870000000 1.0
C      1  0.5864770000000  0.4614350000000  0.5315390000000 1.0
C      1  0.4141180000000  0.4627910000000  0.5561270000000 1.0
C      1  0.4859240000000  0.4565620000000  0.4088870000000 1.0
C      1  0.4512860000000  0.4172480000000  0.5157690000000 1.0
C      1  0.5099600000000  0.4054680000000  0.4620410000000 1.0
C      1  0.5333090000000  0.4146190000000  0.5351940000000 1.0
C      1  0.4337890000000  0.5908440000000  0.5184510000000 1.0
C      1  0.5059020000000  0.5951220000000  0.4353540000000 1.0
C      1  0.5483210000000  0.5903260000000  0.5636410000000 1.0
C      1  0.4419230000000  0.4686980000000  0.4931110000000 1.0
C      1  0.5331470000000  0.4509200000000  0.4614450000000 1.0
C      1  0.5153990000000  0.4567320000000  0.5481300000000 1.0
C      1  0.5101230000000  0.5107140000000  0.5332340000000 1.0
C      1  0.4618220000000  0.5037610000000  0.4907540000000 1.0
C      1  0.5337770000000  0.5102850000000  0.4772540000000 1.0
C      1  0.5932220000000  0.5264270000000  0.5068190000000 1.0
C      1  0.4447310000000  0.5185550000000  0.5692050000000 1.0
C      1  0.4663020000000  0.5263560000000  0.4140300000000 1.0
C      1  0.4966160000000  0.4054050000000  0.5042070000000 1.0
END
