TITL C-2622967-6265-82 -0.00033957018040743 125000 -144.009762737097 0 0 27 (C1) n - 1
REM
REM in /nfs/bkarasulu/CARBON/AIRSS/Generating-Clusters/AIREBO/with-SteepDescent/Higher-Symm/SD-CG/HFTN-CG
REM
REM
REM
REM
REM
REM ./C.cell (b20cbc046b6831c77cfcea5457e17084)
REM
REM compiler GCC version 9.2.1 20190827 (Red Hat 9.2.1-1)
REM options -cpp -mtune=generic -march=x86-64 -g -O0 -fpre-include=/usr/include/finclude/math-vector-fortran.h
REM seed 972640823 -1227233971 -160411274 896008096 1861803677 536074705 2036547456 -1360740177 -658266652 -805905443 244893088 -181073314 1181770144 -2011340023 938128545 913754235 -1658820875 1016820018 -1429969931 -2066878121 139097346 -1605870606 -1218408213 537143183 2012453588 1127737845 -2040175873 648905179 973137543 -479868642 -817428719 -59948338 1343000225
REM
CELL 1.54180   50.00000   50.00000   50.00000   90.00000   90.00000   90.00000
LATT -1
SFAC C  
C      1  0.4393630000000  0.4854570000000  0.4633200000000 1.0
C      1  0.4527290000000  0.4763100000000  0.4866840000000 1.0
C      1  0.4391240000000  0.4914060000000  0.5285580000000 1.0
C      1  0.4564150000000  0.5113600000000  0.5156710000000 1.0
C      1  0.4440120000000  0.5337760000000  0.5032900000000 1.0
C      1  0.4295340000000  0.5313750000000  0.4798670000000 1.0
C      1  0.4303330000000  0.5114750000000  0.4608590000000 1.0
C      1  0.5535090000000  0.4981750000000  0.5379640000000 1.0
C      1  0.5524000000000  0.5225050000000  0.5190260000000 1.0
C      1  0.5347280000000  0.5356500000000  0.4973460000000 1.0
C      1  0.5300780000000  0.5189180000000  0.4743020000000 1.0
C      1  0.5368940000000  0.4856010000000  0.4742410000000 1.0
C      1  0.5345800000000  0.4628140000000  0.4993960000000 1.0
C      1  0.5402170000000  0.4691450000000  0.5261030000000 1.0
C      1  0.5149210000000  0.5079950000000  0.5349030000000 1.0
C      1  0.5052970000000  0.5348580000000  0.5346220000000 1.0
C      1  0.5143610000000  0.5498770000000  0.5124320000000 1.0
C      1  0.5087990000000  0.4963100000000  0.4594630000000 1.0
C      1  0.5101430000000  0.4634100000000  0.4546780000000 1.0
C      1  0.5214540000000  0.4488020000000  0.4756660000000 1.0
C      1  0.5267170000000  0.4853320000000  0.5527960000000 1.0
C      1  0.4367600000000  0.4695180000000  0.5103680000000 1.0
C      1  0.5216060000000  0.4995560000000  0.5082000000000 1.0
C      1  0.5006020000000  0.4974560000000  0.4906050000000 1.0
C      1  0.4739880000000  0.4952360000000  0.4969720000000 1.0
C      1  0.5809260000000  0.4901650000000  0.4944810000000 1.0
C      1  0.5540900000000  0.4976820000000  0.4981600000000 1.0
END
