TITL C-2622963-3633-83 0.00144136139632812 125000 -288.320721012342 0 0 54 (C1) n - 1
REM
REM in /nfs/bkarasulu/CARBON/AIRSS/Generating-Clusters/AIREBO/with-SteepDescent/Higher-Symm/SD-CG/HFTN-CG
REM
REM
REM
REM
REM
REM ./C.cell (b20cbc046b6831c77cfcea5457e17084)
REM
REM compiler GCC version 9.2.1 20190827 (Red Hat 9.2.1-1)
REM options -cpp -mtune=generic -march=x86-64 -g -O0 -fpre-include=/usr/include/finclude/math-vector-fortran.h
REM seed 1131545628 -551142923 377682080 -1203772164 -1806549124 -1617161577 1912383400 87178317 488484006 -929689025 568834674 1414829410 -2110010270 -66457400 2127160644 -1116556688 -1610760745 -101016372 2066034091 713226870 380910094 -815507544 2048368593 9545290 2129291319 1194662196 -811284248 279827528 -874197617 1531047874 -1558906680 1420692532 390670753
REM
CELL 1.54180   50.00000   50.00000   50.00000   90.00000   90.00000   90.00000
LATT -1
SFAC C  
C      1  0.4857390000000  0.4264910000000  0.4730920000000 1.0
C      1  0.5131200000000  0.5765230000000  0.5296900000000 1.0
C      1  0.5206130000000  0.5265900000000  0.5071960000000 1.0
C      1  0.4705050000000  0.4736020000000  0.4896260000000 1.0
C      1  0.4950790000000  0.5636010000000  0.5447550000000 1.0
C      1  0.5030650000000  0.4428650000000  0.4592610000000 1.0
C      1  0.5690580000000  0.4749670000000  0.4977080000000 1.0
C      1  0.4446320000000  0.5136850000000  0.4978700000000 1.0
C      1  0.5297530000000  0.5064560000000  0.4397550000000 1.0
C      1  0.4722480000000  0.4805780000000  0.5627850000000 1.0
C      1  0.5309100000000  0.5256990000000  0.4747950000000 1.0
C      1  0.4738140000000  0.4737500000000  0.5234710000000 1.0
C      1  0.4385390000000  0.4896860000000  0.5103870000000 1.0
C      1  0.5715710000000  0.5006440000000  0.4874970000000 1.0
C      1  0.4468030000000  0.5113660000000  0.5609860000000 1.0
C      1  0.5558490000000  0.4807680000000  0.4390410000000 1.0
C      1  0.4862640000000  0.5477780000000  0.4656650000000 1.0
C      1  0.5212820000000  0.4557960000000  0.5379800000000 1.0
C      1  0.4642190000000  0.5311030000000  0.5579050000000 1.0
C      1  0.5231850000000  0.4733500000000  0.4438700000000 1.0
C      1  0.5633980000000  0.5138490000000  0.5354090000000 1.0
C      1  0.4436250000000  0.4803640000000  0.4608010000000 1.0
C      1  0.4936100000000  0.5376360000000  0.5607350000000 1.0
C      1  0.4894920000000  0.4673550000000  0.4413600000000 1.0
C      1  0.4681960000000  0.4994070000000  0.4689180000000 1.0
C      1  0.5392830000000  0.5015570000000  0.5205350000000 1.0
C      1  0.4868180000000  0.5285240000000  0.5104060000000 1.0
C      1  0.5003870000000  0.4822800000000  0.4949010000000 1.0
C      1  0.5543460000000  0.5430820000000  0.4942810000000 1.0
C      1  0.4490420000000  0.4513200000000  0.5141530000000 1.0
C      1  0.4712180000000  0.5270310000000  0.4836270000000 1.0
C      1  0.5408790000000  0.4702430000000  0.5206220000000 1.0
C      1  0.4597900000000  0.4593240000000  0.4390770000000 1.0
C      1  0.5407940000000  0.5264000000000  0.5515640000000 1.0
C      1  0.5336300000000  0.5572220000000  0.5141990000000 1.0
C      1  0.4621330000000  0.4416490000000  0.4847340000000 1.0
C      1  0.5411090000000  0.5533650000000  0.5458830000000 1.0
C      1  0.4387870000000  0.4467620000000  0.4626840000000 1.0
C      1  0.5702640000000  0.5220390000000  0.5057700000000 1.0
C      1  0.4312170000000  0.4663990000000  0.4893940000000 1.0
C      1  0.5116470000000  0.5136110000000  0.5504250000000 1.0
C      1  0.4913930000000  0.4984160000000  0.4470800000000 1.0
C      1  0.5555850000000  0.5061830000000  0.4618660000000 1.0
C      1  0.4475630000000  0.4868450000000  0.5406670000000 1.0
C      1  0.5060470000000  0.5198630000000  0.4262980000000 1.0
C      1  0.4958690000000  0.4884270000000  0.5631430000000 1.0
C      1  0.4713240000000  0.5471830000000  0.5292330000000 1.0
C      1  0.5200620000000  0.4643680000000  0.4761570000000 1.0
C      1  0.5442860000000  0.4578440000000  0.4913510000000 1.0
C      1  0.4508260000000  0.5624650000000  0.5180440000000 1.0
C      1  0.4957540000000  0.5000940000000  0.5234960000000 1.0
C      1  0.5080420000000  0.5023520000000  0.4730530000000 1.0
C      1  0.4962700000000  0.4536790000000  0.5366530000000 1.0
C      1  0.5110670000000  0.5475650000000  0.4601470000000 1.0
END
