TITL C-2622960-5345-374 0.00232706520503223 125000 -979.822420778446 0 0 174 (C1) n - 1
REM
REM in /nfs/bkarasulu/CARBON/AIRSS/Generating-Clusters/AIREBO/with-SteepDescent/Higher-Symm/SD-CG/HFTN-CG
REM
REM
REM
REM
REM
REM ./C.cell (b20cbc046b6831c77cfcea5457e17084)
REM
REM compiler GCC version 9.2.1 20190827 (Red Hat 9.2.1-1)
REM options -cpp -mtune=generic -march=x86-64 -g -O0 -fpre-include=/usr/include/finclude/math-vector-fortran.h
REM seed 473600142 -1313766301 -60732875 1924601449 -1441491580 -418256322 -1765983097 -1691498590 1699256315 1349887231 587045490 -2013253738 1583763718 -2126206677 1467839424 1864887412 1858312709 1704776044 1066547558 399266312 -1722879597 -1492422549 1153029503 1357994846 -1127359633 1487514246 -1414500443 456147853 -1463967383 -1407913264 -1929420047 1104575497 1923011842
REM
CELL 1.54180   50.00000   50.00000   50.00000   90.00000   90.00000   90.00000
LATT -1
SFAC C  
C      1  0.4670470000000  0.5912390000000  0.5031550000000 1.0
C      1  0.5293890000000  0.4073880000000  0.4960280000000 1.0
C      1  0.5518660000000  0.5571060000000  0.5311160000000 1.0
C      1  0.4503370000000  0.4417430000000  0.4694750000000 1.0
C      1  0.4708120000000  0.5968760000000  0.4551910000000 1.0
C      1  0.5243170000000  0.4043170000000  0.5438660000000 1.0
C      1  0.5639710000000  0.5874440000000  0.5727760000000 1.0
C      1  0.4357310000000  0.4094970000000  0.4335250000000 1.0
C      1  0.5379970000000  0.3966580000000  0.5202960000000 1.0
C      1  0.4570880000000  0.6039400000000  0.4785900000000 1.0
C      1  0.4968810000000  0.5812680000000  0.4396690000000 1.0
C      1  0.5005910000000  0.4206750000000  0.5623310000000 1.0
C      1  0.5259000000000  0.5072540000000  0.4063190000000 1.0
C      1  0.4573870000000  0.4895930000000  0.5962750000000 1.0
C      1  0.4727040000000  0.4147260000000  0.5508120000000 1.0
C      1  0.5251430000000  0.5874790000000  0.4512830000000 1.0
C      1  0.4825970000000  0.4790590000000  0.4533410000000 1.0
C      1  0.5109710000000  0.5163470000000  0.5399440000000 1.0
C      1  0.4594410000000  0.5214560000000  0.4664690000000 1.0
C      1  0.5447080000000  0.4804740000000  0.5368380000000 1.0
C      1  0.5661050000000  0.4332520000000  0.4752660000000 1.0
C      1  0.4232610000000  0.5665430000000  0.5271780000000 1.0
C      1  0.4773420000000  0.5791430000000  0.5332190000000 1.0
C      1  0.5248910000000  0.4222670000000  0.4657430000000 1.0
C      1  0.4023350000000  0.4936750000000  0.4509000000000 1.0
C      1  0.5998980000000  0.5057810000000  0.5489610000000 1.0
C      1  0.6041940000000  0.4886890000000  0.4869840000000 1.0
C      1  0.3884210000000  0.5117580000000  0.5116820000000 1.0
C      1  0.4081830000000  0.4991380000000  0.5295900000000 1.0
C      1  0.5981090000000  0.4968660000000  0.4585550000000 1.0
C      1  0.4295070000000  0.6021100000000  0.4768810000000 1.0
C      1  0.5662210000000  0.3942830000000  0.5232190000000 1.0
C      1  0.4608440000000  0.4913920000000  0.5282510000000 1.0
C      1  0.5360980000000  0.5108400000000  0.4690990000000 1.0
C      1  0.4923120000000  0.5239700000000  0.6100250000000 1.0
C      1  0.5092170000000  0.4731550000000  0.3889870000000 1.0
C      1  0.5134540000000  0.4784710000000  0.5727590000000 1.0
C      1  0.4941150000000  0.5255650000000  0.4328260000000 1.0
C      1  0.5580390000000  0.4334170000000  0.4415740000000 1.0
C      1  0.4271160000000  0.5453430000000  0.5449270000000 1.0
C      1  0.4751780000000  0.4180510000000  0.4699510000000 1.0
C      1  0.5285870000000  0.5818840000000  0.5328080000000 1.0
C      1  0.5067600000000  0.5509380000000  0.4514670000000 1.0
C      1  0.4997310000000  0.4525550000000  0.5581190000000 1.0
C      1  0.5720820000000  0.5601030000000  0.4593670000000 1.0
C      1  0.4241720000000  0.4413130000000  0.5370350000000 1.0
C      1  0.4310550000000  0.4941410000000  0.4100570000000 1.0
C      1  0.5667850000000  0.5033510000000  0.5859110000000 1.0
C      1  0.4905930000000  0.4937190000000  0.3848590000000 1.0
C      1  0.5111870000000  0.5047090000000  0.6160710000000 1.0
C      1  0.5557980000000  0.4659020000000  0.4443380000000 1.0
C      1  0.4473360000000  0.5454080000000  0.5684870000000 1.0
C      1  0.6138680000000  0.4855120000000  0.5255060000000 1.0
C      1  0.3879930000000  0.5162590000000  0.4717480000000 1.0
C      1  0.5138390000000  0.4257970000000  0.4115280000000 1.0
C      1  0.4878900000000  0.5672820000000  0.5872080000000 1.0
C      1  0.3852340000000  0.5493700000000  0.4790050000000 1.0
C      1  0.6063380000000  0.4528910000000  0.5191070000000 1.0
C      1  0.4472700000000  0.4037280000000  0.4577680000000 1.0
C      1  0.5545120000000  0.5946430000000  0.5489140000000 1.0
C      1  0.5023140000000  0.4790960000000  0.6231930000000 1.0
C      1  0.4993600000000  0.5202480000000  0.3794940000000 1.0
C      1  0.4241830000000  0.5101490000000  0.4341970000000 1.0
C      1  0.5787410000000  0.4872430000000  0.5645830000000 1.0
C      1  0.5212180000000  0.5375110000000  0.4001340000000 1.0
C      1  0.4793760000000  0.4663210000000  0.6019010000000 1.0
C      1  0.5256240000000  0.6016250000000  0.4746700000000 1.0
C      1  0.4775980000000  0.3992180000000  0.5272940000000 1.0
C      1  0.5949150000000  0.5813170000000  0.5034960000000 1.0
C      1  0.4266960000000  0.4398200000000  0.5015940000000 1.0
C      1  0.4143740000000  0.5303560000000  0.4598960000000 1.0
C      1  0.5837720000000  0.4726790000000  0.5342150000000 1.0
C      1  0.4468760000000  0.5227640000000  0.5066090000000 1.0
C      1  0.5512800000000  0.4888270000000  0.4869580000000 1.0
C      1  0.4608510000000  0.5645230000000  0.5887240000000 1.0
C      1  0.5407410000000  0.4265740000000  0.4158520000000 1.0
C      1  0.5129260000000  0.4879530000000  0.5270050000000 1.0
C      1  0.4815340000000  0.5024620000000  0.4780100000000 1.0
C      1  0.4861400000000  0.4860790000000  0.5075910000000 1.0
C      1  0.5090490000000  0.5127440000000  0.4869390000000 1.0
C      1  0.5709930000000  0.5381350000000  0.4360240000000 1.0
C      1  0.4338860000000  0.4679390000000  0.5646210000000 1.0
C      1  0.4032280000000  0.5628460000000  0.5050060000000 1.0
C      1  0.5920170000000  0.4326820000000  0.4972780000000 1.0
C      1  0.5594290000000  0.5313760000000  0.6003870000000 1.0
C      1  0.4392300000000  0.4639060000000  0.3994400000000 1.0
C      1  0.4444330000000  0.5841370000000  0.5255870000000 1.0
C      1  0.5541510000000  0.4056590000000  0.4608230000000 1.0
C      1  0.4661620000000  0.4455220000000  0.4071820000000 1.0
C      1  0.5331170000000  0.5486110000000  0.5906110000000 1.0
C      1  0.5351060000000  0.5076100000000  0.5958790000000 1.0
C      1  0.4632980000000  0.4878610000000  0.4011550000000 1.0
C      1  0.4594660000000  0.4684630000000  0.4836840000000 1.0
C      1  0.5433880000000  0.5317090000000  0.5148160000000 1.0
C      1  0.5487550000000  0.5165750000000  0.4380630000000 1.0
C      1  0.4401710000000  0.4942670000000  0.5551250000000 1.0
C      1  0.5512890000000  0.5359090000000  0.4834490000000 1.0
C      1  0.4478760000000  0.4633660000000  0.5140030000000 1.0
C      1  0.4160570000000  0.4714120000000  0.5229630000000 1.0
C      1  0.5824550000000  0.5465490000000  0.4882240000000 1.0
C      1  0.5280070000000  0.4531300000000  0.4588210000000 1.0
C      1  0.4673020000000  0.5488980000000  0.5419940000000 1.0
C      1  0.4898930000000  0.5456500000000  0.3971730000000 1.0
C      1  0.5107720000000  0.4544620000000  0.6044640000000 1.0
C      1  0.4998790000000  0.5884940000000  0.5736760000000 1.0
C      1  0.5003470000000  0.4068670000000  0.4273170000000 1.0
C      1  0.5217800000000  0.4292510000000  0.5875120000000 1.0
C      1  0.4775730000000  0.5711090000000  0.4134120000000 1.0
C      1  0.5122880000000  0.4347270000000  0.5013790000000 1.0
C      1  0.4919040000000  0.5707740000000  0.4968300000000 1.0
C      1  0.5317790000000  0.5427550000000  0.4299240000000 1.0
C      1  0.4733110000000  0.4646110000000  0.5697780000000 1.0
C      1  0.5953360000000  0.4597210000000  0.4815890000000 1.0
C      1  0.3814360000000  0.5377370000000  0.5087320000000 1.0
C      1  0.5022010000000  0.5873250000000  0.5468880000000 1.0
C      1  0.4992970000000  0.4117130000000  0.4537550000000 1.0
C      1  0.5646430000000  0.4499890000000  0.5206220000000 1.0
C      1  0.4324830000000  0.5444550000000  0.4849840000000 1.0
C      1  0.4288600000000  0.5590950000000  0.4479700000000 1.0
C      1  0.5717630000000  0.4335840000000  0.5561470000000 1.0
C      1  0.5393880000000  0.4282020000000  0.5594800000000 1.0
C      1  0.4587660000000  0.5700280000000  0.4415890000000 1.0
C      1  0.5513390000000  0.4872790000000  0.4241550000000 1.0
C      1  0.4449200000000  0.5169630000000  0.5800820000000 1.0
C      1  0.5071240000000  0.4984940000000  0.4286630000000 1.0
C      1  0.4788460000000  0.4982500000000  0.5713560000000 1.0
C      1  0.4933380000000  0.4652560000000  0.4821950000000 1.0
C      1  0.5097040000000  0.5350720000000  0.5115780000000 1.0
C      1  0.4424840000000  0.4979280000000  0.4842150000000 1.0
C      1  0.5580830000000  0.5009170000000  0.5149560000000 1.0
C      1  0.5632020000000  0.5570990000000  0.5792490000000 1.0
C      1  0.4365260000000  0.4394840000000  0.4227150000000 1.0
C      1  0.4531340000000  0.4416470000000  0.5548860000000 1.0
C      1  0.5437240000000  0.5674620000000  0.4452890000000 1.0
C      1  0.4741380000000  0.4423690000000  0.5200560000000 1.0
C      1  0.5435580000000  0.5678300000000  0.4859190000000 1.0
C      1  0.5809420000000  0.4214830000000  0.5270640000000 1.0
C      1  0.4170020000000  0.5732750000000  0.4757190000000 1.0
C      1  0.5582390000000  0.4631430000000  0.5630170000000 1.0
C      1  0.4468680000000  0.5321270000000  0.4376770000000 1.0
C      1  0.4715580000000  0.5166440000000  0.5464490000000 1.0
C      1  0.5219380000000  0.4858490000000  0.4516510000000 1.0
C      1  0.4686140000000  0.5381020000000  0.4199110000000 1.0
C      1  0.5370890000000  0.4599370000000  0.5836450000000 1.0
C      1  0.5898240000000  0.5042330000000  0.5104200000000 1.0
C      1  0.4104240000000  0.4980410000000  0.4896880000000 1.0
C      1  0.4834660000000  0.4165880000000  0.4999400000000 1.0
C      1  0.5210470000000  0.5860420000000  0.5037500000000 1.0
C      1  0.4284180000000  0.4515910000000  0.4503640000000 1.0
C      1  0.5714150000000  0.5466870000000  0.5517720000000 1.0
C      1  0.4971930000000  0.4495560000000  0.4061760000000 1.0
C      1  0.5040040000000  0.5424040000000  0.5883980000000 1.0
C      1  0.4397030000000  0.4148380000000  0.4873600000000 1.0
C      1  0.5646120000000  0.5839600000000  0.5157220000000 1.0
C      1  0.5715790000000  0.4770230000000  0.4673550000000 1.0
C      1  0.4317220000000  0.5182690000000  0.5325610000000 1.0
C      1  0.5710410000000  0.5848160000000  0.4821540000000 1.0
C      1  0.4475450000000  0.4237200000000  0.5197030000000 1.0
C      1  0.4091320000000  0.4690030000000  0.4617140000000 1.0
C      1  0.5914000000000  0.5309470000000  0.5400850000000 1.0
C      1  0.5378000000000  0.4803720000000  0.3943970000000 1.0
C      1  0.4650340000000  0.5190930000000  0.6074170000000 1.0
C      1  0.4016300000000  0.4668250000000  0.4924470000000 1.0
C      1  0.5953520000000  0.5353920000000  0.5101610000000 1.0
C      1  0.4855840000000  0.4773190000000  0.4213650000000 1.0
C      1  0.5097410000000  0.5122620000000  0.5736960000000 1.0
C      1  0.4743590000000  0.5503790000000  0.4599650000000 1.0
C      1  0.5353950000000  0.4478660000000  0.5343280000000 1.0
C      1  0.5253240000000  0.4696640000000  0.4877130000000 1.0
C      1  0.4766430000000  0.5375480000000  0.5129510000000 1.0
C      1  0.4632590000000  0.5543200000000  0.4887820000000 1.0
C      1  0.5444490000000  0.4442590000000  0.4956320000000 1.0
C      1  0.5036130000000  0.4552550000000  0.5266390000000 1.0
C      1  0.5150910000000  0.5527450000000  0.4830110000000 1.0
END
