TITL C-2622961-1971-404 0.000114631707982636 125000 -1039.72621911775 0 0 192 (C1) n - 1
REM
REM in /nfs/bkarasulu/CARBON/AIRSS/Generating-Clusters/AIREBO/with-SteepDescent/Higher-Symm/SD-CG/HFTN-CG
REM
REM
REM
REM
REM
REM ./C.cell (b20cbc046b6831c77cfcea5457e17084)
REM
REM compiler GCC version 9.2.1 20190827 (Red Hat 9.2.1-1)
REM options -cpp -mtune=generic -march=x86-64 -g -O0 -fpre-include=/usr/include/finclude/math-vector-fortran.h
REM seed -1397756575 -361519849 1378637783 -1738498725 -660424230 -857977676 1340526555 1337216623 -1821001215 1118490050 -2145777534 -115892580 -1714165705 841514389 -164035224 950132957 -1817521244 -623452632 1739205035 1493863257 203220919 147934902 -77894210 1185661262 -642035081 1813668644 1705028634 -1562297654 1470315907 -1908937893 -1427343304 -1630432764 919904815
REM
CELL 1.54180   50.00000   50.00000   50.00000   90.00000   90.00000   90.00000
LATT -1
SFAC C  
C      1  0.4595450000000  0.5783040000000  0.4662010000000 1.0
C      1  0.4370290000000  0.4355720000000  0.4512280000000 1.0
C      1  0.4580460000000  0.4864580000000  0.5879450000000 1.0
C      1  0.4416520000000  0.5183130000000  0.3960140000000 1.0
C      1  0.4281350000000  0.4139380000000  0.5289420000000 1.0
C      1  0.4360200000000  0.5799230000000  0.5613910000000 1.0
C      1  0.4797590000000  0.5974120000000  0.4459470000000 1.0
C      1  0.4923540000000  0.4026760000000  0.4439390000000 1.0
C      1  0.4854370000000  0.4896560000000  0.6079040000000 1.0
C      1  0.4174820000000  0.5004220000000  0.5449520000000 1.0
C      1  0.4070070000000  0.5227870000000  0.4904760000000 1.0
C      1  0.4120800000000  0.4790300000000  0.4882620000000 1.0
C      1  0.5690090000000  0.5067620000000  0.5948740000000 1.0
C      1  0.5554790000000  0.5822200000000  0.4558960000000 1.0
C      1  0.5677580000000  0.4112340000000  0.4625300000000 1.0
C      1  0.4883530000000  0.6234920000000  0.5041340000000 1.0
C      1  0.4898780000000  0.4444950000000  0.3986310000000 1.0
C      1  0.4929850000000  0.4333120000000  0.6026690000000 1.0
C      1  0.4910160000000  0.4241490000000  0.4885640000000 1.0
C      1  0.4878530000000  0.5146680000000  0.5697670000000 1.0
C      1  0.4890090000000  0.5524660000000  0.4473060000000 1.0
C      1  0.4705890000000  0.4885900000000  0.5564130000000 1.0
C      1  0.4780040000000  0.5533560000000  0.4794700000000 1.0
C      1  0.4577550000000  0.4597640000000  0.4628300000000 1.0
C      1  0.5070730000000  0.4529860000000  0.4336250000000 1.0
C      1  0.5055420000000  0.4568040000000  0.5730100000000 1.0
C      1  0.5081040000000  0.5900450000000  0.4946040000000 1.0
C      1  0.5089990000000  0.5991220000000  0.4358190000000 1.0
C      1  0.5176050000000  0.3986010000000  0.4563960000000 1.0
C      1  0.5141400000000  0.5078900000000  0.6094630000000 1.0
C      1  0.4668210000000  0.5285960000000  0.4410250000000 1.0
C      1  0.4607540000000  0.4384410000000  0.4891560000000 1.0
C      1  0.4630340000000  0.5341480000000  0.5604130000000 1.0
C      1  0.3881360000000  0.4915980000000  0.5065840000000 1.0
C      1  0.3951880000000  0.5124310000000  0.5276370000000 1.0
C      1  0.3850190000000  0.5064180000000  0.4777160000000 1.0
C      1  0.5017020000000  0.4646130000000  0.6045000000000 1.0
C      1  0.4860590000000  0.6070000000000  0.4744860000000 1.0
C      1  0.4889690000000  0.4250870000000  0.4260590000000 1.0
C      1  0.4342260000000  0.4236730000000  0.4988510000000 1.0
C      1  0.4400230000000  0.5514690000000  0.5742850000000 1.0
C      1  0.4425810000000  0.5363990000000  0.4226710000000 1.0
C      1  0.4737450000000  0.4878290000000  0.4131280000000 1.0
C      1  0.4682180000000  0.4366500000000  0.5425620000000 1.0
C      1  0.4713280000000  0.5691540000000  0.5275570000000 1.0
C      1  0.5175410000000  0.4277160000000  0.5796880000000 1.0
C      1  0.5172970000000  0.6134190000000  0.5144060000000 1.0
C      1  0.5179160000000  0.4593400000000  0.4038880000000 1.0
C      1  0.4754780000000  0.4510670000000  0.5135880000000 1.0
C      1  0.4706550000000  0.5382660000000  0.5318320000000 1.0
C      1  0.4807820000000  0.5021400000000  0.4423020000000 1.0
C      1  0.5993710000000  0.4656240000000  0.5112530000000 1.0
C      1  0.6030620000000  0.5323130000000  0.5292600000000 1.0
C      1  0.5986100000000  0.5040520000000  0.4614910000000 1.0
C      1  0.4800470000000  0.5771500000000  0.5003000000000 1.0
C      1  0.4741230000000  0.4615160000000  0.4330590000000 1.0
C      1  0.4757200000000  0.4566770000000  0.5636820000000 1.0
C      1  0.5590760000000  0.4564780000000  0.4734440000000 1.0
C      1  0.5539020000000  0.4915130000000  0.5536210000000 1.0
C      1  0.5650410000000  0.5630310000000  0.4895810000000 1.0
C      1  0.4950380000000  0.5699540000000  0.5464550000000 1.0
C      1  0.4927600000000  0.5096510000000  0.3990710000000 1.0
C      1  0.4845300000000  0.4119880000000  0.5521330000000 1.0
C      1  0.5913510000000  0.5262510000000  0.4437410000000 1.0
C      1  0.5996670000000  0.4322870000000  0.5036530000000 1.0
C      1  0.5977530000000  0.5317770000000  0.5627420000000 1.0
C      1  0.4892860000000  0.5276880000000  0.4932350000000 1.0
C      1  0.4911190000000  0.4614670000000  0.4691750000000 1.0
C      1  0.4944120000000  0.4843620000000  0.5353310000000 1.0
C      1  0.4396940000000  0.4290790000000  0.5478060000000 1.0
C      1  0.4440750000000  0.5814420000000  0.5359180000000 1.0
C      1  0.4467650000000  0.4920700000000  0.4017460000000 1.0
C      1  0.4864120000000  0.3865320000000  0.5001250000000 1.0
C      1  0.4918380000000  0.5557470000000  0.6051110000000 1.0
C      1  0.4930790000000  0.5580820000000  0.4003600000000 1.0
C      1  0.5316610000000  0.5328760000000  0.4954610000000 1.0
C      1  0.5264150000000  0.4848730000000  0.4812550000000 1.0
C      1  0.5320440000000  0.4865080000000  0.5207900000000 1.0
C      1  0.5152930000000  0.4167250000000  0.5475870000000 1.0
C      1  0.5165080000000  0.5892730000000  0.5354780000000 1.0
C      1  0.5186420000000  0.4903450000000  0.4022800000000 1.0
C      1  0.4346400000000  0.5669410000000  0.5118520000000 1.0
C      1  0.4286520000000  0.4797610000000  0.4186490000000 1.0
C      1  0.4272660000000  0.4519100000000  0.5603270000000 1.0
C      1  0.5538420000000  0.5527500000000  0.5341470000000 1.0
C      1  0.5637640000000  0.5062410000000  0.4419920000000 1.0
C      1  0.5612160000000  0.4455180000000  0.5320680000000 1.0
C      1  0.5508100000000  0.4669150000000  0.4048890000000 1.0
C      1  0.5506190000000  0.4305710000000  0.5815440000000 1.0
C      1  0.5495290000000  0.6068900000000  0.5219040000000 1.0
C      1  0.5118650000000  0.5029060000000  0.4331430000000 1.0
C      1  0.5051920000000  0.4569740000000  0.5228460000000 1.0
C      1  0.5036360000000  0.5373630000000  0.5235970000000 1.0
C      1  0.5146210000000  0.4974850000000  0.5778590000000 1.0
C      1  0.5186510000000  0.5666530000000  0.4561980000000 1.0
C      1  0.5136830000000  0.4360350000000  0.4697690000000 1.0
C      1  0.4146660000000  0.5284830000000  0.4401960000000 1.0
C      1  0.4128740000000  0.4467150000000  0.5119020000000 1.0
C      1  0.4225360000000  0.5396810000000  0.5475690000000 1.0
C      1  0.5129660000000  0.5386410000000  0.6000980000000 1.0
C      1  0.5164250000000  0.5704410000000  0.4221690000000 1.0
C      1  0.5156670000000  0.3920270000000  0.4836820000000 1.0
C      1  0.5937510000000  0.4792880000000  0.5631210000000 1.0
C      1  0.5910830000000  0.5701770000000  0.4689590000000 1.0
C      1  0.5967930000000  0.4459480000000  0.4494240000000 1.0
C      1  0.6226880000000  0.5192630000000  0.5100670000000 1.0
C      1  0.6166880000000  0.5051890000000  0.4819810000000 1.0
C      1  0.6197580000000  0.4872160000000  0.5083090000000 1.0
C      1  0.5707580000000  0.4279010000000  0.5545360000000 1.0
C      1  0.5710850000000  0.5809320000000  0.5261160000000 1.0
C      1  0.5747960000000  0.4879590000000  0.4155320000000 1.0
C      1  0.5283760000000  0.4612530000000  0.5025060000000 1.0
C      1  0.5303250000000  0.5174260000000  0.5257610000000 1.0
C      1  0.5142890000000  0.5156860000000  0.4735160000000 1.0
C      1  0.3959870000000  0.4751320000000  0.5523510000000 1.0
C      1  0.4011070000000  0.5503360000000  0.4977630000000 1.0
C      1  0.3957420000000  0.4726080000000  0.4592440000000 1.0
C      1  0.5755680000000  0.4294230000000  0.4396920000000 1.0
C      1  0.5773420000000  0.4789010000000  0.5864890000000 1.0
C      1  0.5768980000000  0.5978540000000  0.4739350000000 1.0
C      1  0.4750240000000  0.4052890000000  0.4669650000000 1.0
C      1  0.4747550000000  0.5200630000000  0.6006760000000 1.0
C      1  0.4681520000000  0.5714550000000  0.4283080000000 1.0
C      1  0.3903430000000  0.4662020000000  0.5244230000000 1.0
C      1  0.3962670000000  0.5420190000000  0.5260850000000 1.0
C      1  0.3920060000000  0.5040120000000  0.4475550000000 1.0
C      1  0.5304400000000  0.4450570000000  0.5388860000000 1.0
C      1  0.5259530000000  0.5627190000000  0.5212780000000 1.0
C      1  0.5375360000000  0.4864450000000  0.4371690000000 1.0
C      1  0.4343350000000  0.5373970000000  0.5157080000000 1.0
C      1  0.4239390000000  0.4959090000000  0.4432400000000 1.0
C      1  0.4292780000000  0.4646520000000  0.5330110000000 1.0
C      1  0.5287670000000  0.5986410000000  0.4617480000000 1.0
C      1  0.5378790000000  0.4218920000000  0.4504490000000 1.0
C      1  0.5407170000000  0.4895970000000  0.5981690000000 1.0
C      1  0.4347730000000  0.5869110000000  0.4870410000000 1.0
C      1  0.4302560000000  0.4502360000000  0.4222310000000 1.0
C      1  0.4370570000000  0.4623890000000  0.5879580000000 1.0
C      1  0.4420360000000  0.5139580000000  0.5937310000000 1.0
C      1  0.4383980000000  0.5712740000000  0.4421670000000 1.0
C      1  0.4433150000000  0.4096560000000  0.4626540000000 1.0
C      1  0.4369780000000  0.5125640000000  0.4925950000000 1.0
C      1  0.4386790000000  0.4871780000000  0.4699530000000 1.0
C      1  0.4472320000000  0.4935230000000  0.5336710000000 1.0
C      1  0.5797610000000  0.5456300000000  0.5145680000000 1.0
C      1  0.5737880000000  0.4862680000000  0.4661670000000 1.0
C      1  0.5759850000000  0.4738970000000  0.5346360000000 1.0
C      1  0.5346940000000  0.5417530000000  0.4212350000000 1.0
C      1  0.5351480000000  0.4081060000000  0.5064530000000 1.0
C      1  0.5304810000000  0.5447010000000  0.5743590000000 1.0
C      1  0.5230480000000  0.4772770000000  0.5522580000000 1.0
C      1  0.5311950000000  0.5660100000000  0.4878380000000 1.0
C      1  0.5299610000000  0.4625270000000  0.4569140000000 1.0
C      1  0.5508180000000  0.4377470000000  0.5006210000000 1.0
C      1  0.5486950000000  0.5251450000000  0.5533280000000 1.0
C      1  0.5382840000000  0.5266580000000  0.4515200000000 1.0
C      1  0.4163190000000  0.5575250000000  0.4523970000000 1.0
C      1  0.4096790000000  0.4469680000000  0.4780500000000 1.0
C      1  0.4199610000000  0.5169740000000  0.5728380000000 1.0
C      1  0.5039210000000  0.4112330000000  0.5160100000000 1.0
C      1  0.5043870000000  0.5413820000000  0.5573610000000 1.0
C      1  0.5017380000000  0.5334410000000  0.4221320000000 1.0
C      1  0.5986380000000  0.5040190000000  0.5477210000000 1.0
C      1  0.5977080000000  0.5524000000000  0.4490470000000 1.0
C      1  0.5924040000000  0.4544440000000  0.4799070000000 1.0
C      1  0.5534770000000  0.4976040000000  0.4848520000000 1.0
C      1  0.5627000000000  0.4965290000000  0.5152750000000 1.0
C      1  0.5620590000000  0.5247050000000  0.5005350000000 1.0
C      1  0.4122780000000  0.4834900000000  0.5797090000000 1.0
C      1  0.4108850000000  0.5675390000000  0.4784900000000 1.0
C      1  0.4052340000000  0.4441040000000  0.4444360000000 1.0
C      1  0.5753450000000  0.4193900000000  0.4883080000000 1.0
C      1  0.5727110000000  0.5266520000000  0.5757110000000 1.0
C      1  0.5555450000000  0.5523200000000  0.4592230000000 1.0
C      1  0.5439080000000  0.4042220000000  0.5610430000000 1.0
C      1  0.5446590000000  0.5885790000000  0.5501940000000 1.0
C      1  0.5472080000000  0.4992790000000  0.3949130000000 1.0
C      1  0.5512020000000  0.4399580000000  0.4247480000000 1.0
C      1  0.5557100000000  0.4588400000000  0.5949450000000 1.0
C      1  0.5495760000000  0.6050230000000  0.4879320000000 1.0
C      1  0.4652250000000  0.5118030000000  0.5112950000000 1.0
C      1  0.4885950000000  0.4934460000000  0.4720220000000 1.0
C      1  0.4818940000000  0.4831450000000  0.5037340000000 1.0
C      1  0.5481380000000  0.3933810000000  0.5316280000000 1.0
C      1  0.5431940000000  0.5740530000000  0.5745240000000 1.0
C      1  0.5489940000000  0.5290060000000  0.3993600000000 1.0
C      1  0.4636520000000  0.5506210000000  0.5967020000000 1.0
C      1  0.4608150000000  0.5555730000000  0.4010510000000 1.0
C      1  0.4552380000000  0.3977120000000  0.4923820000000 1.0
C      1  0.4614040000000  0.6038110000000  0.4966210000000 1.0
C      1  0.4598860000000  0.4375440000000  0.4135990000000 1.0
C      1  0.4671220000000  0.4479100000000  0.5933480000000 1.0
END
