TITL C-2622966-9038-486 -0.00235795072532268 125000 -745.273578617411 0 0 134 (C1) n - 1
REM
REM in /nfs/bkarasulu/CARBON/AIRSS/Generating-Clusters/AIREBO/with-SteepDescent/Higher-Symm/SD-CG/HFTN-CG
REM
REM
REM
REM
REM
REM ./C.cell (b20cbc046b6831c77cfcea5457e17084)
REM
REM compiler GCC version 9.2.1 20190827 (Red Hat 9.2.1-1)
REM options -cpp -mtune=generic -march=x86-64 -g -O0 -fpre-include=/usr/include/finclude/math-vector-fortran.h
REM seed 1248368785 1923923365 224370728 1379493656 -443770742 -1911837513 646891 -1145977778 1158258549 79826605 -1340628473 -265605499 -354470289 -1961015158 1611025938 -231220959 1042206322 2043476047 856725583 772721397 -468754321 487819855 -1993240334 -1585149058 1575033843 -339868345 618051283 235831820 768514810 -2014594938 1552572225 -123569239 24114747
REM
CELL 1.54180   50.00000   50.00000   50.00000   90.00000   90.00000   90.00000
LATT -1
SFAC C  
C      1  0.5159150000000  0.4281760000000  0.4829060000000 1.0
C      1  0.4527080000000  0.4609860000000  0.5031040000000 1.0
C      1  0.4339730000000  0.5279190000000  0.4909200000000 1.0
C      1  0.4852230000000  0.5574290000000  0.5137440000000 1.0
C      1  0.5416310000000  0.5316830000000  0.4829620000000 1.0
C      1  0.5588250000000  0.4830380000000  0.5102070000000 1.0
C      1  0.5916910000000  0.5367790000000  0.4719040000000 1.0
C      1  0.5835720000000  0.4526900000000  0.5181240000000 1.0
C      1  0.4850630000000  0.4045040000000  0.4736250000000 1.0
C      1  0.4095790000000  0.4601490000000  0.5237430000000 1.0
C      1  0.4104390000000  0.5544520000000  0.4725400000000 1.0
C      1  0.5192730000000  0.5981460000000  0.5270170000000 1.0
C      1  0.4787280000000  0.4772150000000  0.5423800000000 1.0
C      1  0.4681090000000  0.5074350000000  0.4510130000000 1.0
C      1  0.4851600000000  0.5492130000000  0.5467410000000 1.0
C      1  0.5277210000000  0.5332850000000  0.4524850000000 1.0
C      1  0.5422840000000  0.4895100000000  0.5454900000000 1.0
C      1  0.5085590000000  0.4503700000000  0.4596030000000 1.0
C      1  0.4050000000000  0.4869590000000  0.5174120000000 1.0
C      1  0.4405080000000  0.5609830000000  0.4864230000000 1.0
C      1  0.5298600000000  0.5677260000000  0.5167790000000 1.0
C      1  0.5774020000000  0.5114900000000  0.4890770000000 1.0
C      1  0.5512330000000  0.4439290000000  0.5173420000000 1.0
C      1  0.4710050000000  0.4314790000000  0.4833160000000 1.0
C      1  0.4483150000000  0.5170630000000  0.5728100000000 1.0
C      1  0.4855990000000  0.5554860000000  0.4189930000000 1.0
C      1  0.5372200000000  0.5328490000000  0.5748120000000 1.0
C      1  0.5429690000000  0.4855810000000  0.4347220000000 1.0
C      1  0.5114210000000  0.4490620000000  0.5711600000000 1.0
C      1  0.4605810000000  0.4630020000000  0.4269090000000 1.0
C      1  0.5460520000000  0.4307370000000  0.4885020000000 1.0
C      1  0.4629540000000  0.4307360000000  0.5147690000000 1.0
C      1  0.4159330000000  0.4992770000000  0.4876040000000 1.0
C      1  0.4542090000000  0.5685480000000  0.5142260000000 1.0
C      1  0.5370860000000  0.5652820000000  0.4855840000000 1.0
C      1  0.5841820000000  0.5031690000000  0.5206300000000 1.0
C      1  0.4109570000000  0.5038240000000  0.5392420000000 1.0
C      1  0.4594100000000  0.5689410000000  0.4631480000000 1.0
C      1  0.5466810000000  0.5711990000000  0.5461240000000 1.0
C      1  0.5844240000000  0.5000590000000  0.4578280000000 1.0
C      1  0.5449820000000  0.4258080000000  0.5449700000000 1.0
C      1  0.4553180000000  0.4229380000000  0.4543710000000 1.0
C      1  0.5634050000000  0.5141200000000  0.5721720000000 1.0
C      1  0.5425360000000  0.4543600000000  0.4391300000000 1.0
C      1  0.4803040000000  0.4366620000000  0.5673460000000 1.0
C      1  0.4332760000000  0.4836050000000  0.4275920000000 1.0
C      1  0.4537530000000  0.5506330000000  0.5720210000000 1.0
C      1  0.5169980000000  0.5644400000000  0.4285140000000 1.0
C      1  0.4714430000000  0.5048510000000  0.4047980000000 1.0
C      1  0.4901700000000  0.5276210000000  0.5971830000000 1.0
C      1  0.5180510000000  0.5209060000000  0.4031250000000 1.0
C      1  0.5265220000000  0.4926060000000  0.5962360000000 1.0
C      1  0.5081060000000  0.4716650000000  0.4076320000000 1.0
C      1  0.4792470000000  0.4793880000000  0.5904100000000 1.0
C      1  0.3970660000000  0.4710920000000  0.4532850000000 1.0
C      1  0.4095110000000  0.5629450000000  0.5439680000000 1.0
C      1  0.5067420000000  0.6066540000000  0.4618610000000 1.0
C      1  0.5954920000000  0.5513380000000  0.5409040000000 1.0
C      1  0.5844610000000  0.4300200000000  0.4552930000000 1.0
C      1  0.4834320000000  0.3966900000000  0.5437970000000 1.0
C      1  0.5107010000000  0.4187940000000  0.5123070000000 1.0
C      1  0.4336810000000  0.4554770000000  0.4796370000000 1.0
C      1  0.4415830000000  0.5242760000000  0.5238580000000 1.0
C      1  0.4935190000000  0.5594020000000  0.4815470000000 1.0
C      1  0.5676030000000  0.5391660000000  0.5255570000000 1.0
C      1  0.5680010000000  0.4716730000000  0.4805150000000 1.0
C      1  0.4720080000000  0.4845920000000  0.5013510000000 1.0
C      1  0.4644800000000  0.5154050000000  0.4890950000000 1.0
C      1  0.4904950000000  0.5253480000000  0.5086050000000 1.0
C      1  0.5194160000000  0.5196030000000  0.5052620000000 1.0
C      1  0.5256740000000  0.4901050000000  0.5069440000000 1.0
C      1  0.5028500000000  0.4762770000000  0.4895170000000 1.0
C      1  0.4460540000000  0.5084060000000  0.4176850000000 1.0
C      1  0.4805610000000  0.5529670000000  0.5861070000000 1.0
C      1  0.5332840000000  0.5431060000000  0.4143700000000 1.0
C      1  0.5529660000000  0.4898590000000  0.5845960000000 1.0
C      1  0.5193400000000  0.4487510000000  0.4211580000000 1.0
C      1  0.4643840000000  0.4598650000000  0.5753920000000 1.0
C      1  0.5383620000000  0.5363610000000  0.5250030000000 1.0
C      1  0.5486730000000  0.4992220000000  0.4756350000000 1.0
C      1  0.5279700000000  0.4649820000000  0.5277580000000 1.0
C      1  0.4793090000000  0.4602010000000  0.4709780000000 1.0
C      1  0.4696690000000  0.5063960000000  0.5274630000000 1.0
C      1  0.4808780000000  0.5334760000000  0.4687970000000 1.0
C      1  0.4898630000000  0.5264230000000  0.4024420000000 1.0
C      1  0.5178970000000  0.5203320000000  0.5961250000000 1.0
C      1  0.5256430000000  0.4940670000000  0.4100610000000 1.0
C      1  0.5070100000000  0.4728120000000  0.5910070000000 1.0
C      1  0.4805230000000  0.4778020000000  0.4078750000000 1.0
C      1  0.4715420000000  0.5064070000000  0.5924480000000 1.0
C      1  0.5163950000000  0.5740640000000  0.4610020000000 1.0
C      1  0.5827570000000  0.5205530000000  0.5483940000000 1.0
C      1  0.5597670000000  0.4459220000000  0.4646000000000 1.0
C      1  0.4866130000000  0.4263080000000  0.5348690000000 1.0
C      1  0.4258200000000  0.4808210000000  0.4606720000000 1.0
C      1  0.4421580000000  0.5542490000000  0.5406900000000 1.0
C      1  0.4313390000000  0.4969240000000  0.5578790000000 1.0
C      1  0.4620870000000  0.5550110000000  0.4407810000000 1.0
C      1  0.5322970000000  0.5616570000000  0.5691460000000 1.0
C      1  0.5664620000000  0.5038810000000  0.4370760000000 1.0
C      1  0.5400850000000  0.4409290000000  0.5679360000000 1.0
C      1  0.4678790000000  0.4340290000000  0.4316490000000 1.0
C      1  0.4974150000000  0.5800090000000  0.5366390000000 1.0
C      1  0.5653710000000  0.5433070000000  0.4614640000000 1.0
C      1  0.5701220000000  0.4710610000000  0.5398090000000 1.0
C      1  0.5073520000000  0.4106690000000  0.4558270000000 1.0
C      1  0.4359170000000  0.4560840000000  0.5290800000000 1.0
C      1  0.4235500000000  0.5298690000000  0.4585130000000 1.0
C      1  0.4980570000000  0.4309310000000  0.4337490000000 1.0
C      1  0.4474890000000  0.4714630000000  0.5520480000000 1.0
C      1  0.4464090000000  0.5295640000000  0.4399380000000 1.0
C      1  0.5028030000000  0.5679670000000  0.5678800000000 1.0
C      1  0.5558190000000  0.5326300000000  0.4333500000000 1.0
C      1  0.5568980000000  0.4650680000000  0.5680640000000 1.0
C      1  0.4325700000000  0.4278090000000  0.4735780000000 1.0
C      1  0.4095900000000  0.5338990000000  0.5301920000000 1.0
C      1  0.4816130000000  0.5896540000000  0.4730740000000 1.0
C      1  0.5727500000000  0.5715800000000  0.5257650000000 1.0
C      1  0.5988090000000  0.4798940000000  0.4775540000000 1.0
C      1  0.5344700000000  0.4082170000000  0.5235240000000 1.0
C      1  0.4957890000000  0.5335740000000  0.4412340000000 1.0
C      1  0.5305620000000  0.5163870000000  0.5480800000000 1.0
C      1  0.5234220000000  0.4808500000000  0.4621580000000 1.0
C      1  0.5011860000000  0.4565920000000  0.5400730000000 1.0
C      1  0.4595630000000  0.4788740000000  0.4567860000000 1.0
C      1  0.4751460000000  0.5215840000000  0.5556210000000 1.0
C      1  0.4380470000000  0.4141140000000  0.4988760000000 1.0
C      1  0.3961510000000  0.5227150000000  0.5023230000000 1.0
C      1  0.4617190000000  0.5944790000000  0.4988180000000 1.0
C      1  0.5622770000000  0.5799450000000  0.4968480000000 1.0
C      1  0.6083610000000  0.4895670000000  0.5016900000000 1.0
C      1  0.5551190000000  0.4010710000000  0.5023790000000 1.0
C      1  0.5092590000000  0.5066100000000  0.4522030000000 1.0
C      1  0.5028040000000  0.5134160000000  0.5485430000000 1.0
END
