TITL C-2622965-4321-212 -0.000726149992633997 125000 -239.798930359109 0 0 43 (C1) n - 1
REM
REM in /nfs/bkarasulu/CARBON/AIRSS/Generating-Clusters/AIREBO/with-SteepDescent/Higher-Symm/SD-CG/HFTN-CG
REM
REM
REM
REM
REM
REM ./C.cell (b20cbc046b6831c77cfcea5457e17084)
REM
REM compiler GCC version 9.2.1 20190827 (Red Hat 9.2.1-1)
REM options -cpp -mtune=generic -march=x86-64 -g -O0 -fpre-include=/usr/include/finclude/math-vector-fortran.h
REM seed -731441236 820972842 424796232 -802108872 398527194 -1513495801 1611942062 -853399121 435516149 -1151054487 -38615344 -1238172797 1923702563 -2092911465 893728279 11428092 -1373625013 -228294554 1725991224 -10250561 1365649751 323306167 -1535003759 1859845135 -265879068 -2094398613 -1838648933 680957572 1280691706 -672755125 -738822289 1668106771 -1311154428
REM
CELL 1.54180   50.00000   50.00000   50.00000   90.00000   90.00000   90.00000
LATT -1
SFAC C  
C      1  0.5601780000000  0.5219150000000  0.4832700000000 1.0
C      1  0.5602200000000  0.4786410000000  0.5193930000000 1.0
C      1  0.5601040000000  0.5264440000000  0.5147160000000 1.0
C      1  0.5629420000000  0.4740290000000  0.4880510000000 1.0
C      1  0.5168880000000  0.4472200000000  0.5225510000000 1.0
C      1  0.5057260000000  0.5455400000000  0.4732580000000 1.0
C      1  0.5053900000000  0.4507860000000  0.4760990000000 1.0
C      1  0.5051550000000  0.5523240000000  0.5225430000000 1.0
C      1  0.4731730000000  0.4747460000000  0.5577420000000 1.0
C      1  0.5128790000000  0.5113750000000  0.4274840000000 1.0
C      1  0.5062100000000  0.4790820000000  0.4361930000000 1.0
C      1  0.4990910000000  0.5235190000000  0.5603320000000 1.0
C      1  0.4575290000000  0.4409210000000  0.4697660000000 1.0
C      1  0.4522060000000  0.5612590000000  0.5332340000000 1.0
C      1  0.4405030000000  0.4734420000000  0.5103520000000 1.0
C      1  0.4578130000000  0.5631550000000  0.4747200000000 1.0
C      1  0.5217000000000  0.4655870000000  0.4585350000000 1.0
C      1  0.5179000000000  0.5352150000000  0.5406970000000 1.0
C      1  0.5137710000000  0.4747620000000  0.5275420000000 1.0
C      1  0.5164700000000  0.5215870000000  0.4565160000000 1.0
C      1  0.5414600000000  0.5092680000000  0.4675570000000 1.0
C      1  0.5366480000000  0.4897980000000  0.5306950000000 1.0
C      1  0.5386860000000  0.5183830000000  0.5311470000000 1.0
C      1  0.5426400000000  0.4811100000000  0.4698900000000 1.0
C      1  0.4758510000000  0.4609150000000  0.4783240000000 1.0
C      1  0.4731280000000  0.5478420000000  0.5212370000000 1.0
C      1  0.4670050000000  0.4719760000000  0.5064820000000 1.0
C      1  0.4789160000000  0.5536730000000  0.4894110000000 1.0
C      1  0.4809090000000  0.4852360000000  0.5818570000000 1.0
C      1  0.4881410000000  0.5057810000000  0.4127160000000 1.0
C      1  0.4739930000000  0.4836610000000  0.4263240000000 1.0
C      1  0.4907610000000  0.5110130000000  0.5834990000000 1.0
C      1  0.4820210000000  0.5175940000000  0.5337320000000 1.0
C      1  0.4780950000000  0.4843120000000  0.4586310000000 1.0
C      1  0.4900950000000  0.5087840000000  0.4713840000000 1.0
C      1  0.4844900000000  0.4839730000000  0.5292720000000 1.0
C      1  0.5145200000000  0.4356370000000  0.4977200000000 1.0
C      1  0.5144190000000  0.5627110000000  0.4972140000000 1.0
C      1  0.3887860000000  0.4804400000000  0.5182470000000 1.0
C      1  0.4142900000000  0.4772990000000  0.5130940000000 1.0
C      1  0.5130580000000  0.5022990000000  0.4956780000000 1.0
C      1  0.4851450000000  0.5148710000000  0.5026690000000 1.0
C      1  0.5791870000000  0.5009330000000  0.5020960000000 1.0
END
