TITL C-2622965-4321-331 0.000194641962242437 125000 -1008.85952951614 0 0 187 (C1) n - 1
REM
REM in /nfs/bkarasulu/CARBON/AIRSS/Generating-Clusters/AIREBO/with-SteepDescent/Higher-Symm/SD-CG/HFTN-CG
REM
REM
REM
REM
REM
REM ./C.cell (b20cbc046b6831c77cfcea5457e17084)
REM
REM compiler GCC version 9.2.1 20190827 (Red Hat 9.2.1-1)
REM options -cpp -mtune=generic -march=x86-64 -g -O0 -fpre-include=/usr/include/finclude/math-vector-fortran.h
REM seed 302353207 2098487202 173067626 315688492 -1973823978 -1980835219 -948079656 -1161830538 -1926357608 1691154230 -440928147 -1522238268 339499528 205438309 294952327 1385016584 438499299 921929290 1114532917 -1262433324 -1428798385 2018692142 606065475 -1032380470 -2030979450 -141667108 -492474242 -417413063 -522792584 2029326558 431012464 1751313789 -87456411
REM
CELL 1.54180   50.00000   50.00000   50.00000   90.00000   90.00000   90.00000
LATT -1
SFAC C  
C      1  0.5480080000000  0.4179200000000  0.5504910000000 1.0
C      1  0.5225970000000  0.4175860000000  0.4295820000000 1.0
C      1  0.4285930000000  0.4094420000000  0.5105330000000 1.0
C      1  0.5449700000000  0.5900300000000  0.4477420000000 1.0
C      1  0.5128840000000  0.5721420000000  0.5651120000000 1.0
C      1  0.4287390000000  0.5819730000000  0.4861410000000 1.0
C      1  0.4968790000000  0.4775990000000  0.5956520000000 1.0
C      1  0.5767910000000  0.4813090000000  0.4459100000000 1.0
C      1  0.4292420000000  0.4768170000000  0.4563770000000 1.0
C      1  0.4968780000000  0.5274690000000  0.4068540000000 1.0
C      1  0.5827410000000  0.5184580000000  0.5439600000000 1.0
C      1  0.4181860000000  0.5146490000000  0.5451670000000 1.0
C      1  0.5310020000000  0.4217840000000  0.5212860000000 1.0
C      1  0.4880340000000  0.4093840000000  0.4680520000000 1.0
C      1  0.4754910000000  0.4049850000000  0.5179750000000 1.0
C      1  0.5287270000000  0.5938060000000  0.4846330000000 1.0
C      1  0.4964150000000  0.5931530000000  0.5248820000000 1.0
C      1  0.4773810000000  0.5896980000000  0.4774610000000 1.0
C      1  0.5552270000000  0.4926670000000  0.6014750000000 1.0
C      1  0.5484570000000  0.5169560000000  0.4113280000000 1.0
C      1  0.3986690000000  0.4790550000000  0.4980910000000 1.0
C      1  0.5621120000000  0.5414420000000  0.3935990000000 1.0
C      1  0.5859190000000  0.5299750000000  0.5875620000000 1.0
C      1  0.3851180000000  0.5211830000000  0.5279670000000 1.0
C      1  0.4653990000000  0.4944460000000  0.5231950000000 1.0
C      1  0.5396620000000  0.4921480000000  0.5188220000000 1.0
C      1  0.4976320000000  0.4980930000000  0.4572610000000 1.0
C      1  0.4645380000000  0.5004610000000  0.4647060000000 1.0
C      1  0.5527980000000  0.5019230000000  0.4887270000000 1.0
C      1  0.4912650000000  0.5074460000000  0.5410300000000 1.0
C      1  0.4324040000000  0.4239500000000  0.4610270000000 1.0
C      1  0.5017120000000  0.4111340000000  0.5833370000000 1.0
C      1  0.5675540000000  0.4218930000000  0.4651140000000 1.0
C      1  0.4373430000000  0.5799000000000  0.5396620000000 1.0
C      1  0.4966670000000  0.5786860000000  0.4251280000000 1.0
C      1  0.5610770000000  0.5822040000000  0.5380500000000 1.0
C      1  0.5386400000000  0.5347900000000  0.6208530000000 1.0
C      1  0.5992530000000  0.5463860000000  0.4070510000000 1.0
C      1  0.3753910000000  0.5226920000000  0.4813990000000 1.0
C      1  0.5505360000000  0.4785010000000  0.3840710000000 1.0
C      1  0.5834840000000  0.4745900000000  0.6086330000000 1.0
C      1  0.3712890000000  0.4647250000000  0.5230200000000 1.0
C      1  0.5735890000000  0.4692130000000  0.5116480000000 1.0
C      1  0.4575230000000  0.4838520000000  0.4292650000000 1.0
C      1  0.4450410000000  0.4969440000000  0.5836630000000 1.0
C      1  0.5825930000000  0.4962700000000  0.4942860000000 1.0
C      1  0.4600450000000  0.5234170000000  0.5786850000000 1.0
C      1  0.4705050000000  0.5141760000000  0.4356720000000 1.0
C      1  0.4723760000000  0.4888550000000  0.3992730000000 1.0
C      1  0.4141090000000  0.4882820000000  0.5788550000000 1.0
C      1  0.5990500000000  0.4664100000000  0.5340210000000 1.0
C      1  0.4799260000000  0.5293940000000  0.6056120000000 1.0
C      1  0.4072270000000  0.5078910000000  0.4256160000000 1.0
C      1  0.6029620000000  0.5009290000000  0.4686850000000 1.0
C      1  0.6145940000000  0.4747250000000  0.4837440000000 1.0
C      1  0.4098850000000  0.4841320000000  0.4120940000000 1.0
C      1  0.4684060000000  0.4994740000000  0.6157600000000 1.0
C      1  0.6132840000000  0.4926600000000  0.5196290000000 1.0
C      1  0.4113490000000  0.5191130000000  0.5863020000000 1.0
C      1  0.4572680000000  0.5160510000000  0.3908300000000 1.0
C      1  0.4476270000000  0.5870970000000  0.4666250000000 1.0
C      1  0.4936840000000  0.5954780000000  0.5533880000000 1.0
C      1  0.5549210000000  0.6071380000000  0.4696960000000 1.0
C      1  0.4462980000000  0.3976270000000  0.5283950000000 1.0
C      1  0.4974200000000  0.4061470000000  0.4367490000000 1.0
C      1  0.5710270000000  0.3982400000000  0.5500200000000 1.0
C      1  0.5033590000000  0.5070900000000  0.5967430000000 1.0
C      1  0.5843200000000  0.5128410000000  0.4436910000000 1.0
C      1  0.4151250000000  0.5049580000000  0.4550840000000 1.0
C      1  0.5042970000000  0.4948000000000  0.4008770000000 1.0
C      1  0.5859740000000  0.4887440000000  0.5560850000000 1.0
C      1  0.4130850000000  0.4821130000000  0.5474190000000 1.0
C      1  0.5327110000000  0.4878990000000  0.5517080000000 1.0
C      1  0.5217920000000  0.4875610000000  0.4427630000000 1.0
C      1  0.4393180000000  0.4870370000000  0.5071150000000 1.0
C      1  0.5343870000000  0.5170250000000  0.4403380000000 1.0
C      1  0.5266930000000  0.5169270000000  0.5658400000000 1.0
C      1  0.4246370000000  0.5111450000000  0.4933900000000 1.0
C      1  0.4907540000000  0.4234770000000  0.5558960000000 1.0
C      1  0.5418380000000  0.4288580000000  0.4791040000000 1.0
C      1  0.4601210000000  0.4378950000000  0.4725050000000 1.0
C      1  0.5023900000000  0.5565650000000  0.4479100000000 1.0
C      1  0.5456020000000  0.5706780000000  0.5122940000000 1.0
C      1  0.4644080000000  0.5696940000000  0.5258490000000 1.0
C      1  0.4149630000000  0.5346290000000  0.4197470000000 1.0
C      1  0.4805770000000  0.5564700000000  0.5871250000000 1.0
C      1  0.6044920000000  0.5319480000000  0.4802500000000 1.0
C      1  0.4303310000000  0.4598860000000  0.5809880000000 1.0
C      1  0.4668140000000  0.4566140000000  0.4015870000000 1.0
C      1  0.5886420000000  0.4351210000000  0.5255690000000 1.0
C      1  0.4999200000000  0.5644260000000  0.4809070000000 1.0
C      1  0.4951700000000  0.5608320000000  0.5143930000000 1.0
C      1  0.5328900000000  0.5601230000000  0.4825650000000 1.0
C      1  0.4800290000000  0.4374950000000  0.5268490000000 1.0
C      1  0.4938780000000  0.4403360000000  0.4761080000000 1.0
C      1  0.5060410000000  0.4395510000000  0.5062960000000 1.0
C      1  0.5244240000000  0.6004700000000  0.5142400000000 1.0
C      1  0.5042320000000  0.6016240000000  0.4670890000000 1.0
C      1  0.4703560000000  0.5978480000000  0.5068370000000 1.0
C      1  0.5204690000000  0.4113600000000  0.4689470000000 1.0
C      1  0.5049650000000  0.4002260000000  0.5257780000000 1.0
C      1  0.4675620000000  0.3998780000000  0.4872700000000 1.0
C      1  0.4152740000000  0.4405520000000  0.4470060000000 1.0
C      1  0.5120930000000  0.4301490000000  0.6003230000000 1.0
C      1  0.5883900000000  0.4406490000000  0.4665290000000 1.0
C      1  0.4200100000000  0.5574570000000  0.5473610000000 1.0
C      1  0.4787610000000  0.5688140000000  0.4067480000000 1.0
C      1  0.5768840000000  0.5635050000000  0.5503050000000 1.0
C      1  0.5502060000000  0.4573920000000  0.4264660000000 1.0
C      1  0.4163690000000  0.4518220000000  0.4848150000000 1.0
C      1  0.5283040000000  0.4504890000000  0.5839240000000 1.0
C      1  0.5562740000000  0.5437600000000  0.5645510000000 1.0
C      1  0.4139790000000  0.5442750000000  0.5186370000000 1.0
C      1  0.5427950000000  0.5561830000000  0.4164770000000 1.0
C      1  0.5957260000000  0.4550530000000  0.4900580000000 1.0
C      1  0.4310570000000  0.4628400000000  0.4254310000000 1.0
C      1  0.4653920000000  0.4745090000000  0.5928300000000 1.0
C      1  0.5948670000000  0.5172190000000  0.5159140000000 1.0
C      1  0.4315700000000  0.5351600000000  0.5702850000000 1.0
C      1  0.4653010000000  0.5386740000000  0.4149140000000 1.0
C      1  0.5759750000000  0.5661150000000  0.4131790000000 1.0
C      1  0.3860040000000  0.5418570000000  0.5009320000000 1.0
C      1  0.5593700000000  0.5448390000000  0.5978330000000 1.0
C      1  0.5572240000000  0.4606360000000  0.5929740000000 1.0
C      1  0.3909580000000  0.4471950000000  0.5069330000000 1.0
C      1  0.5644480000000  0.4640030000000  0.4031940000000 1.0
C      1  0.5407520000000  0.5288080000000  0.4716040000000 1.0
C      1  0.4608970000000  0.5282650000000  0.4805740000000 1.0
C      1  0.5066460000000  0.5347110000000  0.5277290000000 1.0
C      1  0.5257550000000  0.4613520000000  0.5226560000000 1.0
C      1  0.4564680000000  0.4616430000000  0.5223280000000 1.0
C      1  0.5039100000000  0.4594920000000  0.4497300000000 1.0
C      1  0.4385700000000  0.5240520000000  0.5216140000000 1.0
C      1  0.5495880000000  0.5235920000000  0.5415720000000 1.0
C      1  0.5184150000000  0.5404690000000  0.4257870000000 1.0
C      1  0.4459290000000  0.4665090000000  0.4841690000000 1.0
C      1  0.5479560000000  0.4756370000000  0.4550680000000 1.0
C      1  0.5107250000000  0.4700340000000  0.5666840000000 1.0
C      1  0.5023000000000  0.4807860000000  0.5268420000000 1.0
C      1  0.5286550000000  0.4799420000000  0.4827810000000 1.0
C      1  0.4778220000000  0.4782470000000  0.4831470000000 1.0
C      1  0.5085720000000  0.5218370000000  0.4745060000000 1.0
C      1  0.5247560000000  0.5189240000000  0.5106140000000 1.0
C      1  0.4779430000000  0.5186860000000  0.5054010000000 1.0
C      1  0.3951290000000  0.5024430000000  0.4789000000000 1.0
C      1  0.5345740000000  0.5134670000000  0.5987350000000 1.0
C      1  0.5819980000000  0.5214280000000  0.4145970000000 1.0
C      1  0.3891940000000  0.4902220000000  0.5282780000000 1.0
C      1  0.5341870000000  0.4981110000000  0.3932140000000 1.0
C      1  0.5840230000000  0.4995250000000  0.5855140000000 1.0
C      1  0.4368280000000  0.5937360000000  0.5108200000000 1.0
C      1  0.5321960000000  0.5905940000000  0.5440700000000 1.0
C      1  0.5168970000000  0.5933290000000  0.4424660000000 1.0
C      1  0.4395310000000  0.4056920000000  0.4840190000000 1.0
C      1  0.5456740000000  0.4063250000000  0.4465760000000 1.0
C      1  0.5190270000000  0.4053020000000  0.5554180000000 1.0
C      1  0.3982650000000  0.4664190000000  0.4469160000000 1.0
C      1  0.5034840000000  0.4534710000000  0.6150870000000 1.0
C      1  0.5912200000000  0.4583850000000  0.4442670000000 1.0
C      1  0.3946460000000  0.5371500000000  0.5549470000000 1.0
C      1  0.4873490000000  0.5502720000000  0.3837350000000 1.0
C      1  0.5959320000000  0.5419900000000  0.5626210000000 1.0
C      1  0.4201650000000  0.4376980000000  0.5166470000000 1.0
C      1  0.5535460000000  0.4441630000000  0.5640700000000 1.0
C      1  0.5258680000000  0.4439290000000  0.4203260000000 1.0
C      1  0.4143370000000  0.5554930000000  0.4869110000000 1.0
C      1  0.5623620000000  0.5644310000000  0.4429770000000 1.0
C      1  0.5323890000000  0.5573200000000  0.5811350000000 1.0
C      1  0.5457320000000  0.4549580000000  0.4983280000000 1.0
C      1  0.4711600000000  0.4630030000000  0.4524100000000 1.0
C      1  0.4858900000000  0.4625490000000  0.5490880000000 1.0
C      1  0.5507290000000  0.5394870000000  0.5115310000000 1.0
C      1  0.4674450000000  0.5378980000000  0.5315140000000 1.0
C      1  0.4832180000000  0.5351700000000  0.4593880000000 1.0
C      1  0.5607420000000  0.4702230000000  0.5440770000000 1.0
C      1  0.5037060000000  0.4643910000000  0.4160750000000 1.0
C      1  0.4308000000000  0.4570330000000  0.5412970000000 1.0
C      1  0.5706430000000  0.5385920000000  0.4605690000000 1.0
C      1  0.4931180000000  0.5231290000000  0.5685590000000 1.0
C      1  0.4305670000000  0.5326730000000  0.4673300000000 1.0
C      1  0.4573380000000  0.4599700000000  0.5631070000000 1.0
C      1  0.5625670000000  0.4310640000000  0.5157300000000 1.0
C      1  0.4674650000000  0.4446530000000  0.4240170000000 1.0
C      1  0.4376640000000  0.5418110000000  0.4347360000000 1.0
C      1  0.5754980000000  0.5353570000000  0.4941040000000 1.0
C      1  0.4858540000000  0.5536910000000  0.5555400000000 1.0
C      1  0.5027220000000  0.4969140000000  0.4969010000000 1.0
END
