TITL C-2622953-3516-77 -0.000403623644204472 125000 -783.424439623505 0 0 146 (C1) n - 1
REM
REM in /nfs/bkarasulu/CARBON/AIRSS/Generating-Clusters/AIREBO/with-SteepDescent/Higher-Symm/SD-CG/HFTN-CG
REM
REM
REM
REM
REM
REM ./C.cell (b20cbc046b6831c77cfcea5457e17084)
REM
REM compiler GCC version 9.2.1 20190827 (Red Hat 9.2.1-1)
REM options -cpp -mtune=generic -march=x86-64 -g -O0 -fpre-include=/usr/include/finclude/math-vector-fortran.h
REM seed -77120117 -128630234 924380535 1148294398 -504712389 1693968295 1133729234 1696098805 1378268009 975582031 593281939 -386205748 1811681170 1650331267 -925201245 555591908 -975606636 -2089160825 -1472987185 1140666355 2099093565 -107353458 461652167 -217643560 -687753366 918280730 -1725136577 1948373924 1003514918 -1466092868 -1130519197 1745972014 1449773204
REM
CELL 1.54180   50.00000   50.00000   50.00000   90.00000   90.00000   90.00000
LATT -1
SFAC C  
C      1  0.5184080000000  0.5322860000000  0.6088160000000 1.0
C      1  0.5185820000000  0.6039730000000  0.5029000000000 1.0
C      1  0.5138710000000  0.5407630000000  0.3920430000000 1.0
C      1  0.5156190000000  0.4266730000000  0.4537390000000 1.0
C      1  0.5118330000000  0.4243090000000  0.5602760000000 1.0
C      1  0.5676590000000  0.4305190000000  0.4526620000000 1.0
C      1  0.5659500000000  0.4619400000000  0.5534140000000 1.0
C      1  0.5614620000000  0.5290390000000  0.5570600000000 1.0
C      1  0.5717820000000  0.5670050000000  0.4864220000000 1.0
C      1  0.5747290000000  0.4804100000000  0.4312180000000 1.0
C      1  0.4753950000000  0.5589190000000  0.5771840000000 1.0
C      1  0.4623270000000  0.5913310000000  0.4681640000000 1.0
C      1  0.4615400000000  0.4970270000000  0.4017720000000 1.0
C      1  0.4633080000000  0.3965890000000  0.4771310000000 1.0
C      1  0.4651710000000  0.4484540000000  0.5745400000000 1.0
C      1  0.4798710000000  0.5830790000000  0.5644470000000 1.0
C      1  0.4738020000000  0.5867360000000  0.4376870000000 1.0
C      1  0.4758660000000  0.4684240000000  0.4087020000000 1.0
C      1  0.4823770000000  0.3895790000000  0.4954200000000 1.0
C      1  0.4745710000000  0.4668100000000  0.5986140000000 1.0
C      1  0.5712260000000  0.4496000000000  0.5229330000000 1.0
C      1  0.5612670000000  0.4945710000000  0.5561760000000 1.0
C      1  0.5662320000000  0.5454260000000  0.5310220000000 1.0
C      1  0.5789120000000  0.5299230000000  0.4727120000000 1.0
C      1  0.5698070000000  0.4856330000000  0.4614000000000 1.0
C      1  0.5527270000000  0.4712010000000  0.5042820000000 1.0
C      1  0.5398870000000  0.4990750000000  0.5293310000000 1.0
C      1  0.5584230000000  0.5381880000000  0.4985640000000 1.0
C      1  0.5511900000000  0.5132820000000  0.4681140000000 1.0
C      1  0.5417700000000  0.4714980000000  0.4720930000000 1.0
C      1  0.5944320000000  0.4962560000000  0.5532850000000 1.0
C      1  0.5969480000000  0.5401990000000  0.5222470000000 1.0
C      1  0.6074260000000  0.5339870000000  0.4581470000000 1.0
C      1  0.6158380000000  0.4629370000000  0.4663120000000 1.0
C      1  0.5926880000000  0.4284830000000  0.5248220000000 1.0
C      1  0.5306910000000  0.5524500000000  0.5941380000000 1.0
C      1  0.5209540000000  0.5991690000000  0.4760530000000 1.0
C      1  0.5241630000000  0.5159450000000  0.3870640000000 1.0
C      1  0.5247020000000  0.4034450000000  0.4690900000000 1.0
C      1  0.5306740000000  0.4334970000000  0.5782140000000 1.0
C      1  0.4471900000000  0.4254410000000  0.4830010000000 1.0
C      1  0.4349500000000  0.4591940000000  0.5632130000000 1.0
C      1  0.4362420000000  0.5518450000000  0.5513230000000 1.0
C      1  0.4384540000000  0.5671210000000  0.4697040000000 1.0
C      1  0.4348720000000  0.5007780000000  0.4225810000000 1.0
C      1  0.4120240000000  0.5494330000000  0.4682980000000 1.0
C      1  0.4132110000000  0.4879230000000  0.4454420000000 1.0
C      1  0.4246640000000  0.4430930000000  0.5001990000000 1.0
C      1  0.4100710000000  0.4770610000000  0.5480680000000 1.0
C      1  0.4063660000000  0.5464310000000  0.5355900000000 1.0
C      1  0.4878280000000  0.5078260000000  0.5650210000000 1.0
C      1  0.4946280000000  0.5571020000000  0.5071850000000 1.0
C      1  0.4962240000000  0.5283360000000  0.4461680000000 1.0
C      1  0.4936250000000  0.4709730000000  0.4632280000000 1.0
C      1  0.5010220000000  0.4455820000000  0.5230430000000 1.0
C      1  0.4618990000000  0.4173970000000  0.5333650000000 1.0
C      1  0.4550960000000  0.5151620000000  0.5863570000000 1.0
C      1  0.4541670000000  0.5877650000000  0.5165230000000 1.0
C      1  0.4517880000000  0.5399780000000  0.4206390000000 1.0
C      1  0.4624190000000  0.4351240000000  0.4473250000000 1.0
C      1  0.5040920000000  0.5220000000000  0.4786610000000 1.0
C      1  0.5156640000000  0.4920820000000  0.4659960000000 1.0
C      1  0.5037000000000  0.4710590000000  0.5019080000000 1.0
C      1  0.5063920000000  0.4936920000000  0.5270260000000 1.0
C      1  0.5011610000000  0.5241410000000  0.5125080000000 1.0
C      1  0.4074250000000  0.5245750000000  0.4872310000000 1.0
C      1  0.4058640000000  0.4966430000000  0.4719710000000 1.0
C      1  0.4092390000000  0.4727490000000  0.4959330000000 1.0
C      1  0.4019390000000  0.4867170000000  0.5230470000000 1.0
C      1  0.4047440000000  0.5199010000000  0.5190100000000 1.0
C      1  0.5158640000000  0.5535980000000  0.4741140000000 1.0
C      1  0.5166260000000  0.4976230000000  0.4324240000000 1.0
C      1  0.5245440000000  0.4474760000000  0.4889050000000 1.0
C      1  0.5146210000000  0.4706370000000  0.5506520000000 1.0
C      1  0.5124370000000  0.5407080000000  0.5400120000000 1.0
C      1  0.4152070000000  0.4602910000000  0.4449680000000 1.0
C      1  0.4454980000000  0.4375400000000  0.5218740000000 1.0
C      1  0.4224730000000  0.4965640000000  0.5679530000000 1.0
C      1  0.4258940000000  0.5732210000000  0.5285740000000 1.0
C      1  0.4037660000000  0.5421890000000  0.4410280000000 1.0
C      1  0.4662060000000  0.5485200000000  0.5397000000000 1.0
C      1  0.4662520000000  0.5521730000000  0.4632620000000 1.0
C      1  0.4599220000000  0.4908460000000  0.4404660000000 1.0
C      1  0.4753500000000  0.4344360000000  0.4930700000000 1.0
C      1  0.4547090000000  0.4863600000000  0.5684640000000 1.0
C      1  0.5130350000000  0.5082030000000  0.5972980000000 1.0
C      1  0.5138880000000  0.5876430000000  0.5242760000000 1.0
C      1  0.5072940000000  0.5547310000000  0.4154220000000 1.0
C      1  0.5171800000000  0.4454300000000  0.4259100000000 1.0
C      1  0.5181020000000  0.4116340000000  0.5350120000000 1.0
C      1  0.4822650000000  0.5773630000000  0.5315290000000 1.0
C      1  0.4778440000000  0.5533990000000  0.4323610000000 1.0
C      1  0.4856540000000  0.4530770000000  0.4354230000000 1.0
C      1  0.4898530000000  0.4141940000000  0.5162310000000 1.0
C      1  0.4826650000000  0.4970450000000  0.5949570000000 1.0
C      1  0.5693340000000  0.4186570000000  0.4751780000000 1.0
C      1  0.5594870000000  0.4455200000000  0.5772900000000 1.0
C      1  0.5597490000000  0.5491570000000  0.5814510000000 1.0
C      1  0.5641340000000  0.5768560000000  0.4645560000000 1.0
C      1  0.5576690000000  0.4762350000000  0.4115010000000 1.0
C      1  0.4399520000000  0.4786260000000  0.4825750000000 1.0
C      1  0.4505970000000  0.4857950000000  0.5140640000000 1.0
C      1  0.4349810000000  0.5087950000000  0.5265390000000 1.0
C      1  0.4385100000000  0.5300470000000  0.5002300000000 1.0
C      1  0.4430430000000  0.5109550000000  0.4724560000000 1.0
C      1  0.5416010000000  0.4467160000000  0.4488450000000 1.0
C      1  0.5325570000000  0.4588640000000  0.5262040000000 1.0
C      1  0.5297040000000  0.5184760000000  0.5534590000000 1.0
C      1  0.5282380000000  0.5525200000000  0.5048520000000 1.0
C      1  0.5299650000000  0.5245690000000  0.4483240000000 1.0
C      1  0.5336980000000  0.5574280000000  0.5606570000000 1.0
C      1  0.5342540000000  0.5761340000000  0.4575170000000 1.0
C      1  0.5303990000000  0.4928080000000  0.4060720000000 1.0
C      1  0.5425150000000  0.4187090000000  0.4917550000000 1.0
C      1  0.5333140000000  0.4673150000000  0.5758880000000 1.0
C      1  0.6078370000000  0.5172320000000  0.5123880000000 1.0
C      1  0.6035720000000  0.5113840000000  0.4833360000000 1.0
C      1  0.5951190000000  0.4809730000000  0.4796720000000 1.0
C      1  0.5919980000000  0.4735630000000  0.5106370000000 1.0
C      1  0.6034700000000  0.4935660000000  0.5268690000000 1.0
C      1  0.5272340000000  0.5537830000000  0.4360960000000 1.0
C      1  0.5311260000000  0.4595300000000  0.4031130000000 1.0
C      1  0.5432750000000  0.4286210000000  0.5211620000000 1.0
C      1  0.5366090000000  0.4976130000000  0.5794030000000 1.0
C      1  0.5405660000000  0.5677500000000  0.5312460000000 1.0
C      1  0.4678510000000  0.5288990000000  0.5161120000000 1.0
C      1  0.4703420000000  0.5255290000000  0.4764850000000 1.0
C      1  0.4657410000000  0.4795520000000  0.4628650000000 1.0
C      1  0.4726420000000  0.4649530000000  0.5011250000000 1.0
C      1  0.4777140000000  0.4856070000000  0.5434320000000 1.0
C      1  0.4569950000000  0.5461590000000  0.5931590000000 1.0
C      1  0.4580790000000  0.6072250000000  0.4950750000000 1.0
C      1  0.4527860000000  0.5268230000000  0.3962710000000 1.0
C      1  0.4609260000000  0.4080340000000  0.4497280000000 1.0
C      1  0.4634080000000  0.4183140000000  0.5606910000000 1.0
C      1  0.4971370000000  0.4422470000000  0.4735010000000 1.0
C      1  0.4901500000000  0.4474740000000  0.5552030000000 1.0
C      1  0.4883070000000  0.5364260000000  0.5590310000000 1.0
C      1  0.4871780000000  0.5698040000000  0.4782310000000 1.0
C      1  0.4850330000000  0.5033420000000  0.4257050000000 1.0
C      1  0.4378160000000  0.5624480000000  0.5005360000000 1.0
C      1  0.4326870000000  0.5257870000000  0.4436280000000 1.0
C      1  0.4381850000000  0.4506180000000  0.4633470000000 1.0
C      1  0.4528710000000  0.4635960000000  0.5358290000000 1.0
C      1  0.4412700000000  0.5214250000000  0.5557960000000 1.0
C      1  0.5517980000000  0.5047870000000  0.5010370000000 1.0
END
