TITL C-2622966-9038-828 2.91582886189467e-05 125000 -166.734570537157 0 0 30 (C1) n - 1
REM
REM in /nfs/bkarasulu/CARBON/AIRSS/Generating-Clusters/AIREBO/with-SteepDescent/Higher-Symm/SD-CG/HFTN-CG
REM
REM
REM
REM
REM
REM ./C.cell (b20cbc046b6831c77cfcea5457e17084)
REM
REM compiler GCC version 9.2.1 20190827 (Red Hat 9.2.1-1)
REM options -cpp -mtune=generic -march=x86-64 -g -O0 -fpre-include=/usr/include/finclude/math-vector-fortran.h
REM seed 2133447937 734155417 396873307 161048002 841587979 114215565 138626233 1765890373 -1032332511 1755294854 1307870544 1880872694 -1545090552 -1235307991 1973769788 1598267667 1741959677 -1669431592 -338523363 -2042127470 136541497 1211780644 -381667025 876927610 695969582 2123458629 711931293 1638068502 -1011215821 828130602 1936391109 -625844799 -195528711
REM
CELL 1.54180   50.00000   50.00000   50.00000   90.00000   90.00000   90.00000
LATT -1
SFAC C  
C      1  0.5205590000000  0.5135230000000  0.5240870000000 1.0
C      1  0.5220380000000  0.5291500000000  0.4951260000000 1.0
C      1  0.5201390000000  0.5063560000000  0.4715460000000 1.0
C      1  0.5190430000000  0.4771010000000  0.4857570000000 1.0
C      1  0.5199370000000  0.4810230000000  0.5185970000000 1.0
C      1  0.5211270000000  0.4964010000000  0.5652590000000 1.0
C      1  0.5108090000000  0.5628090000000  0.5278410000000 1.0
C      1  0.5216950000000  0.5365910000000  0.4454040000000 1.0
C      1  0.5206390000000  0.4610160000000  0.4487630000000 1.0
C      1  0.5144280000000  0.4343350000000  0.5116340000000 1.0
C      1  0.4723150000000  0.5161400000000  0.5483670000000 1.0
C      1  0.4746710000000  0.5481600000000  0.4983400000000 1.0
C      1  0.4716500000000  0.5140560000000  0.4539510000000 1.0
C      1  0.4706620000000  0.4598640000000  0.4727230000000 1.0
C      1  0.4743960000000  0.4613320000000  0.5291140000000 1.0
C      1  0.4578720000000  0.5071250000000  0.4774610000000 1.0
C      1  0.4572440000000  0.4799510000000  0.4871390000000 1.0
C      1  0.4588170000000  0.4807280000000  0.5160410000000 1.0
C      1  0.4597980000000  0.5084160000000  0.5243440000000 1.0
C      1  0.4594820000000  0.5246750000000  0.5003600000000 1.0
C      1  0.4977060000000  0.4577760000000  0.4676610000000 1.0
C      1  0.5014080000000  0.4558500000000  0.5252530000000 1.0
C      1  0.5016880000000  0.5179920000000  0.5549060000000 1.0
C      1  0.5018700000000  0.5527810000000  0.5027460000000 1.0
C      1  0.4985220000000  0.5180710000000  0.4493270000000 1.0
C      1  0.5282980000000  0.4448270000000  0.4896800000000 1.0
C      1  0.5342390000000  0.4840430000000  0.5473790000000 1.0
C      1  0.5193180000000  0.5416830000000  0.5431050000000 1.0
C      1  0.5358560000000  0.5428510000000  0.4684420000000 1.0
C      1  0.5337730000000  0.4853770000000  0.4496470000000 1.0
END
