TITL C-2622961-1971-343 -0.00245176071088128 125000 -544.701939243518 0 0 106 (C1) n - 1
REM
REM in /nfs/bkarasulu/CARBON/AIRSS/Generating-Clusters/AIREBO/with-SteepDescent/Higher-Symm/SD-CG/HFTN-CG
REM
REM
REM
REM
REM
REM ./C.cell (b20cbc046b6831c77cfcea5457e17084)
REM
REM compiler GCC version 9.2.1 20190827 (Red Hat 9.2.1-1)
REM options -cpp -mtune=generic -march=x86-64 -g -O0 -fpre-include=/usr/include/finclude/math-vector-fortran.h
REM seed -1450308427 -284819197 1835423352 -1394678826 1396881646 868431133 -1165779842 346846457 -2100132185 -1178603589 624901629 -436769774 -917505992 -1844511516 875245489 -1437536531 449373303 893070787 -915247704 -1852594387 646865782 -845984245 1345848124 1715472019 2033138492 -692004315 -1171350025 430557387 -1133703461 -1677791316 548800097 -1509592337 -964703198
REM
CELL 1.54180   50.00000   50.00000   50.00000   90.00000   90.00000   90.00000
LATT -1
SFAC C  
C      1  0.4337770000000  0.5224840000000  0.5163610000000 1.0
C      1  0.4390180000000  0.4945910000000  0.5288640000000 1.0
C      1  0.4354380000000  0.4749970000000  0.5013790000000 1.0
C      1  0.4442300000000  0.4868060000000  0.4706960000000 1.0
C      1  0.4443610000000  0.5182200000000  0.4835230000000 1.0
C      1  0.5593280000000  0.5275520000000  0.5199110000000 1.0
C      1  0.5537290000000  0.5017700000000  0.5400600000000 1.0
C      1  0.5693130000000  0.4635030000000  0.5006850000000 1.0
C      1  0.5618340000000  0.4723110000000  0.4685730000000 1.0
C      1  0.5542570000000  0.5235640000000  0.4670710000000 1.0
C      1  0.5339920000000  0.3986690000000  0.5250000000000 1.0
C      1  0.5477630000000  0.4486400000000  0.4261450000000 1.0
C      1  0.5509850000000  0.5522500000000  0.4370100000000 1.0
C      1  0.5370410000000  0.5964110000000  0.5259540000000 1.0
C      1  0.5517110000000  0.4996620000000  0.5810380000000 1.0
C      1  0.4574040000000  0.4131560000000  0.5252170000000 1.0
C      1  0.4554570000000  0.4507330000000  0.4295940000000 1.0
C      1  0.4667370000000  0.5662880000000  0.4388160000000 1.0
C      1  0.4544700000000  0.5889760000000  0.5256840000000 1.0
C      1  0.4694360000000  0.4891550000000  0.5947860000000 1.0
C      1  0.4774770000000  0.4669030000000  0.4838000000000 1.0
C      1  0.4810370000000  0.5008300000000  0.4753700000000 1.0
C      1  0.4816650000000  0.5275190000000  0.4942200000000 1.0
C      1  0.4711260000000  0.5183210000000  0.5297760000000 1.0
C      1  0.4764080000000  0.4855700000000  0.5201180000000 1.0
C      1  0.5310860000000  0.4732980000000  0.4945160000000 1.0
C      1  0.5203380000000  0.5020160000000  0.4691290000000 1.0
C      1  0.5155820000000  0.5251340000000  0.4936690000000 1.0
C      1  0.5198810000000  0.5174640000000  0.5265330000000 1.0
C      1  0.5212590000000  0.4715430000000  0.5256570000000 1.0
C      1  0.4376410000000  0.5370710000000  0.5438690000000 1.0
C      1  0.4278310000000  0.4642310000000  0.5329410000000 1.0
C      1  0.4252030000000  0.4529540000000  0.4775800000000 1.0
C      1  0.4224740000000  0.5047230000000  0.4533760000000 1.0
C      1  0.4202860000000  0.5406190000000  0.4921760000000 1.0
C      1  0.5697670000000  0.5299110000000  0.5506130000000 1.0
C      1  0.5689170000000  0.4773340000000  0.5292840000000 1.0
C      1  0.5762440000000  0.4425010000000  0.4763310000000 1.0
C      1  0.5636150000000  0.5005650000000  0.4548030000000 1.0
C      1  0.5658230000000  0.5360260000000  0.4907250000000 1.0
C      1  0.5454580000000  0.5738400000000  0.5404230000000 1.0
C      1  0.5520030000000  0.4701550000000  0.5641350000000 1.0
C      1  0.5482730000000  0.4101040000000  0.5033780000000 1.0
C      1  0.5583290000000  0.4717820000000  0.4175860000000 1.0
C      1  0.5589070000000  0.5628490000000  0.4619900000000 1.0
C      1  0.4446760000000  0.5667090000000  0.5428680000000 1.0
C      1  0.4485410000000  0.4766410000000  0.5764990000000 1.0
C      1  0.4497420000000  0.4220890000000  0.4988340000000 1.0
C      1  0.4461330000000  0.4827980000000  0.4304510000000 1.0
C      1  0.4464700000000  0.5638930000000  0.4639780000000 1.0
C      1  0.4889040000000  0.4203810000000  0.5292980000000 1.0
C      1  0.4880390000000  0.4515310000000  0.4392900000000 1.0
C      1  0.4871140000000  0.5480690000000  0.4271040000000 1.0
C      1  0.4838050000000  0.5992090000000  0.5195300000000 1.0
C      1  0.4888660000000  0.5094520000000  0.5880370000000 1.0
C      1  0.5157390000000  0.4155420000000  0.5397640000000 1.0
C      1  0.5165540000000  0.4480230000000  0.4396230000000 1.0
C      1  0.5174390000000  0.5483120000000  0.4331160000000 1.0
C      1  0.5088710000000  0.6071370000000  0.5147680000000 1.0
C      1  0.5180720000000  0.5041690000000  0.5831170000000 1.0
C      1  0.5423910000000  0.4427040000000  0.5033770000000 1.0
C      1  0.5326440000000  0.4755640000000  0.4514180000000 1.0
C      1  0.5253530000000  0.5414570000000  0.4654780000000 1.0
C      1  0.5325910000000  0.5486220000000  0.5215840000000 1.0
C      1  0.5254470000000  0.4886390000000  0.5536600000000 1.0
C      1  0.4786710000000  0.4381200000000  0.5019040000000 1.0
C      1  0.4717670000000  0.4787090000000  0.4524140000000 1.0
C      1  0.4664610000000  0.5364030000000  0.4651310000000 1.0
C      1  0.4696180000000  0.5519630000000  0.5250790000000 1.0
C      1  0.4646260000000  0.4927270000000  0.5512080000000 1.0
C      1  0.5403740000000  0.4264600000000  0.4508390000000 1.0
C      1  0.5383760000000  0.5236100000000  0.4227320000000 1.0
C      1  0.5277370000000  0.5895270000000  0.4935830000000 1.0
C      1  0.5369290000000  0.5295970000000  0.5728880000000 1.0
C      1  0.5267320000000  0.4382840000000  0.5524930000000 1.0
C      1  0.4668300000000  0.4309660000000  0.4553960000000 1.0
C      1  0.4770910000000  0.5224090000000  0.4235340000000 1.0
C      1  0.4667990000000  0.5841020000000  0.4943230000000 1.0
C      1  0.4766660000000  0.5301430000000  0.5725040000000 1.0
C      1  0.4653960000000  0.4355200000000  0.5490380000000 1.0
C      1  0.5580190000000  0.4983490000000  0.4272630000000 1.0
C      1  0.5459050000000  0.5623200000000  0.4934400000000 1.0
C      1  0.5558440000000  0.5553290000000  0.5612000000000 1.0
C      1  0.5518660000000  0.4485870000000  0.5355170000000 1.0
C      1  0.5593170000000  0.4190780000000  0.4759220000000 1.0
C      1  0.4529980000000  0.5149270000000  0.4424050000000 1.0
C      1  0.4506720000000  0.5552160000000  0.4966210000000 1.0
C      1  0.4500370000000  0.5209330000000  0.5634290000000 1.0
C      1  0.4418100000000  0.4551140000000  0.5565710000000 1.0
C      1  0.4418720000000  0.4311300000000  0.4741250000000 1.0
C      1  0.4892760000000  0.5459690000000  0.5522010000000 1.0
C      1  0.4808500000000  0.4634640000000  0.5574450000000 1.0
C      1  0.4955180000000  0.4327440000000  0.4737880000000 1.0
C      1  0.4899340000000  0.4967010000000  0.4299720000000 1.0
C      1  0.4840980000000  0.5632090000000  0.4765210000000 1.0
C      1  0.5177580000000  0.5475560000000  0.5521840000000 1.0
C      1  0.5092090000000  0.4598990000000  0.5618350000000 1.0
C      1  0.5221950000000  0.4337110000000  0.4774960000000 1.0
C      1  0.5182920000000  0.4969270000000  0.4291950000000 1.0
C      1  0.5103860000000  0.5677090000000  0.4761220000000 1.0
C      1  0.4964350000000  0.5054700000000  0.5480600000000 1.0
C      1  0.4928950000000  0.4597870000000  0.5198240000000 1.0
C      1  0.5071200000000  0.4709850000000  0.4734150000000 1.0
C      1  0.4974130000000  0.5241100000000  0.4578230000000 1.0
C      1  0.5004200000000  0.5505650000000  0.5107500000000 1.0
C      1  0.5060960000000  0.4945100000000  0.5056890000000 1.0
END
