TITL C-2622953-3516-90 -0.00402796464049048 125000 -932.629421980738 0 0 178 (C1) n - 1
REM
REM in /nfs/bkarasulu/CARBON/AIRSS/Generating-Clusters/AIREBO/with-SteepDescent/Higher-Symm/SD-CG/HFTN-CG
REM
REM
REM
REM
REM
REM ./C.cell (b20cbc046b6831c77cfcea5457e17084)
REM
REM compiler GCC version 9.2.1 20190827 (Red Hat 9.2.1-1)
REM options -cpp -mtune=generic -march=x86-64 -g -O0 -fpre-include=/usr/include/finclude/math-vector-fortran.h
REM seed -546006889 -1546258170 -2014638437 -140574189 1313119631 -1024358704 408338850 1999398712 1731616387 636592166 -1204523153 -1990318972 240034371 1519904524 1433878447 -1751902049 248472599 1916624003 -1427796186 -1557932654 320123817 56232705 734858435 187604437 -467269708 -1682128909 1910215970 489113907 -1221428444 221992436 -601312031 -462697729 928720230
REM
CELL 1.54180   50.00000   50.00000   50.00000   90.00000   90.00000   90.00000
LATT -1
SFAC C  
C      1  0.5604450000000  0.5843630000000  0.5401110000000 1.0
C      1  0.4507790000000  0.5350180000000  0.6000690000000 1.0
C      1  0.5475900000000  0.4627920000000  0.6049070000000 1.0
C      1  0.4377450000000  0.4069080000000  0.5286510000000 1.0
C      1  0.5575470000000  0.4167910000000  0.4624590000000 1.0
C      1  0.4421030000000  0.4731470000000  0.4137130000000 1.0
C      1  0.5684720000000  0.5435970000000  0.4105300000000 1.0
C      1  0.4465320000000  0.5836360000000  0.4585750000000 1.0
C      1  0.4798400000000  0.4671090000000  0.5516710000000 1.0
C      1  0.5157050000000  0.4392860000000  0.5132030000000 1.0
C      1  0.4841850000000  0.4468730000000  0.4620830000000 1.0
C      1  0.5170740000000  0.4910370000000  0.4360070000000 1.0
C      1  0.4854230000000  0.5396350000000  0.4432790000000 1.0
C      1  0.5155810000000  0.5613470000000  0.4862680000000 1.0
C      1  0.4811060000000  0.5528770000000  0.5380340000000 1.0
C      1  0.5139060000000  0.5111370000000  0.5646570000000 1.0
C      1  0.4863430000000  0.4659340000000  0.4856980000000 1.0
C      1  0.5052370000000  0.4861620000000  0.4671970000000 1.0
C      1  0.5013220000000  0.5196440000000  0.4627010000000 1.0
C      1  0.5020640000000  0.5341040000000  0.4908220000000 1.0
C      1  0.4945860000000  0.5308080000000  0.5209230000000 1.0
C      1  0.5142030000000  0.5091340000000  0.5342860000000 1.0
C      1  0.4835810000000  0.4940310000000  0.5316510000000 1.0
C      1  0.5018830000000  0.4702560000000  0.5156310000000 1.0
C      1  0.5787650000000  0.5169280000000  0.5746960000000 1.0
C      1  0.4188520000000  0.4567730000000  0.5754160000000 1.0
C      1  0.5670930000000  0.4208860000000  0.5105730000000 1.0
C      1  0.4291650000000  0.4326500000000  0.4563930000000 1.0
C      1  0.5752650000000  0.4811350000000  0.4188500000000 1.0
C      1  0.4283390000000  0.5459960000000  0.4349010000000 1.0
C      1  0.5772040000000  0.5716590000000  0.4838600000000 1.0
C      1  0.4248510000000  0.5662520000000  0.5537270000000 1.0
C      1  0.5689890000000  0.4542860000000  0.5806070000000 1.0
C      1  0.4142870000000  0.4147330000000  0.5050990000000 1.0
C      1  0.5786450000000  0.4413520000000  0.4565840000000 1.0
C      1  0.4197040000000  0.4952240000000  0.4246750000000 1.0
C      1  0.5840300000000  0.5527150000000  0.4384460000000 1.0
C      1  0.4312450000000  0.5719880000000  0.4806080000000 1.0
C      1  0.5789060000000  0.5585930000000  0.5489860000000 1.0
C      1  0.4332100000000  0.5194700000000  0.5760330000000 1.0
C      1  0.4470490000000  0.4507970000000  0.4357930000000 1.0
C      1  0.5641450000000  0.5118250000000  0.4126250000000 1.0
C      1  0.4457110000000  0.5697610000000  0.4341660000000 1.0
C      1  0.5560290000000  0.5822280000000  0.5066410000000 1.0
C      1  0.4469970000000  0.5501800000000  0.5707620000000 1.0
C      1  0.5674900000000  0.4866810000000  0.5803260000000 1.0
C      1  0.4399260000000  0.4326390000000  0.5488270000000 1.0
C      1  0.5552180000000  0.4059280000000  0.4884500000000 1.0
C      1  0.5075170000000  0.5855510000000  0.5434790000000 1.0
C      1  0.5031940000000  0.5321780000000  0.5969240000000 1.0
C      1  0.5000300000000  0.4535610000000  0.5892360000000 1.0
C      1  0.4915480000000  0.4071580000000  0.5328770000000 1.0
C      1  0.5073250000000  0.4084840000000  0.4591740000000 1.0
C      1  0.4949770000000  0.4749450000000  0.4035150000000 1.0
C      1  0.5115360000000  0.5483970000000  0.4075840000000 1.0
C      1  0.4980750000000  0.5973210000000  0.4665560000000 1.0
C      1  0.5478170000000  0.5554940000000  0.4782110000000 1.0
C      1  0.4485300000000  0.5596960000000  0.5319960000000 1.0
C      1  0.5475220000000  0.5155060000000  0.5613410000000 1.0
C      1  0.4462030000000  0.4650600000000  0.5569710000000 1.0
C      1  0.5478670000000  0.4397530000000  0.5242410000000 1.0
C      1  0.4528280000000  0.4469520000000  0.4755010000000 1.0
C      1  0.5466660000000  0.4849070000000  0.4362750000000 1.0
C      1  0.4569590000000  0.5324760000000  0.4436350000000 1.0
C      1  0.5243370000000  0.4043130000000  0.5410660000000 1.0
C      1  0.4775490000000  0.4047820000000  0.4582050000000 1.0
C      1  0.5268100000000  0.4630850000000  0.4019630000000 1.0
C      1  0.4790190000000  0.5450760000000  0.3985320000000 1.0
C      1  0.5309370000000  0.5950000000000  0.4581300000000 1.0
C      1  0.4761230000000  0.5948650000000  0.5397360000000 1.0
C      1  0.5371170000000  0.5289860000000  0.5956840000000 1.0
C      1  0.4679100000000  0.4581260000000  0.5963930000000 1.0
C      1  0.5937590000000  0.4645350000000  0.4375690000000 1.0
C      1  0.4107140000000  0.5229650000000  0.4365910000000 1.0
C      1  0.5986620000000  0.5640490000000  0.4634070000000 1.0
C      1  0.4008090000000  0.5536340000000  0.5478920000000 1.0
C      1  0.5969490000000  0.5363880000000  0.5594750000000 1.0
C      1  0.3966290000000  0.4572930000000  0.5631170000000 1.0
C      1  0.5919690000000  0.4317530000000  0.5108620000000 1.0
C      1  0.4067770000000  0.4309540000000  0.4777450000000 1.0
C      1  0.5639500000000  0.4696650000000  0.5267710000000 1.0
C      1  0.4386130000000  0.4631240000000  0.5018510000000 1.0
C      1  0.5632380000000  0.4905850000000  0.4654180000000 1.0
C      1  0.4410270000000  0.5055090000000  0.4568820000000 1.0
C      1  0.5577850000000  0.5234100000000  0.4728880000000 1.0
C      1  0.4287460000000  0.5378350000000  0.5149090000000 1.0
C      1  0.5659940000000  0.5224910000000  0.5336580000000 1.0
C      1  0.4301190000000  0.4798090000000  0.5308860000000 1.0
C      1  0.4970760000000  0.4395420000000  0.5416680000000 1.0
C      1  0.4989360000000  0.4276540000000  0.4859750000000 1.0
C      1  0.4974180000000  0.4632670000000  0.4353700000000 1.0
C      1  0.5031930000000  0.5191260000000  0.4227630000000 1.0
C      1  0.5036980000000  0.5659390000000  0.4547240000000 1.0
C      1  0.4987040000000  0.5700430000000  0.5145160000000 1.0
C      1  0.4993980000000  0.5419090000000  0.5645530000000 1.0
C      1  0.4958920000000  0.4846210000000  0.5760240000000 1.0
C      1  0.4701230000000  0.4578510000000  0.5134910000000 1.0
C      1  0.5355780000000  0.4741650000000  0.4758980000000 1.0
C      1  0.4744760000000  0.4993700000000  0.4576650000000 1.0
C      1  0.5304130000000  0.5252180000000  0.4536790000000 1.0
C      1  0.4575550000000  0.5366420000000  0.5007820000000 1.0
C      1  0.5353840000000  0.5323800000000  0.5275340000000 1.0
C      1  0.4599670000000  0.5065070000000  0.5494320000000 1.0
C      1  0.5319240000000  0.4755960000000  0.5306340000000 1.0
C      1  0.4697870000000  0.5921670000000  0.4802920000000 1.0
C      1  0.5350780000000  0.5817480000000  0.5598730000000 1.0
C      1  0.4752480000000  0.5165780000000  0.6085760000000 1.0
C      1  0.5289480000000  0.4441560000000  0.5859870000000 1.0
C      1  0.4648920000000  0.3972540000000  0.5165220000000 1.0
C      1  0.5311160000000  0.4220570000000  0.4462480000000 1.0
C      1  0.4659700000000  0.4866620000000  0.3977000000000 1.0
C      1  0.5417230000000  0.5597230000000  0.4124410000000 1.0
C      1  0.6205270000000  0.5024940000000  0.4634660000000 1.0
C      1  0.3912450000000  0.5061800000000  0.4806920000000 1.0
C      1  0.6043520000000  0.5424620000000  0.4836330000000 1.0
C      1  0.3812660000000  0.5089670000000  0.5252600000000 1.0
C      1  0.6173900000000  0.5004870000000  0.5209640000000 1.0
C      1  0.3796020000000  0.4841800000000  0.5221510000000 1.0
C      1  0.6146470000000  0.4777400000000  0.5110050000000 1.0
C      1  0.3904310000000  0.4813780000000  0.4824690000000 1.0
C      1  0.5959790000000  0.5110270000000  0.5391150000000 1.0
C      1  0.4000080000000  0.4641980000000  0.5333080000000 1.0
C      1  0.5887150000000  0.4622910000000  0.5057040000000 1.0
C      1  0.4148270000000  0.4633760000000  0.4775430000000 1.0
C      1  0.5937750000000  0.4954460000000  0.4512610000000 1.0
C      1  0.4140000000000  0.5225040000000  0.4686520000000 1.0
C      1  0.5809920000000  0.5334720000000  0.4953180000000 1.0
C      1  0.4051650000000  0.5266390000000  0.5320400000000 1.0
C      1  0.4421960000000  0.5823710000000  0.5074590000000 1.0
C      1  0.5553250000000  0.5481640000000  0.5667330000000 1.0
C      1  0.4433870000000  0.4881830000000  0.5817410000000 1.0
C      1  0.5561010000000  0.4410700000000  0.5572050000000 1.0
C      1  0.4429760000000  0.4183270000000  0.4908110000000 1.0
C      1  0.5557610000000  0.4521820000000  0.4379000000000 1.0
C      1  0.4448590000000  0.5137600000000  0.4179540000000 1.0
C      1  0.5587230000000  0.5678850000000  0.4487160000000 1.0
C      1  0.5787910000000  0.4644090000000  0.4779970000000 1.0
C      1  0.4285440000000  0.4748650000000  0.4511030000000 1.0
C      1  0.5747440000000  0.5219380000000  0.4434440000000 1.0
C      1  0.4219820000000  0.5459200000000  0.4850870000000 1.0
C      1  0.5683160000000  0.5524630000000  0.5177390000000 1.0
C      1  0.4285530000000  0.5094020000000  0.5439690000000 1.0
C      1  0.5767560000000  0.4870770000000  0.5486120000000 1.0
C      1  0.4211990000000  0.4420070000000  0.5220280000000 1.0
C      1  0.5109650000000  0.4997140000000  0.6025100000000 1.0
C      1  0.4847380000000  0.4313420000000  0.5722760000000 1.0
C      1  0.5074130000000  0.4009060000000  0.5051850000000 1.0
C      1  0.4815290000000  0.4365180000000  0.4216420000000 1.0
C      1  0.5148140000000  0.5005520000000  0.3967590000000 1.0
C      1  0.4940490000000  0.5729170000000  0.4228680000000 1.0
C      1  0.5073830000000  0.5989550000000  0.4992240000000 1.0
C      1  0.4906710000000  0.5742470000000  0.5704240000000 1.0
C      1  0.5352860000000  0.5968400000000  0.4882490000000 1.0
C      1  0.4610980000000  0.5787150000000  0.5648310000000 1.0
C      1  0.5422210000000  0.4958210000000  0.6012240000000 1.0
C      1  0.4553250000000  0.4325310000000  0.5779560000000 1.0
C      1  0.5361260000000  0.3957220000000  0.5103370000000 1.0
C      1  0.4637390000000  0.4213480000000  0.4392130000000 1.0
C      1  0.5435900000000  0.4913550000000  0.3970510000000 1.0
C      1  0.4656470000000  0.5689830000000  0.4144400000000 1.0
C      1  0.5353460000000  0.4392630000000  0.4164990000000 1.0
C      1  0.4652240000000  0.5207830000000  0.3931630000000 1.0
C      1  0.5413910000000  0.5889940000000  0.4302230000000 1.0
C      1  0.4674400000000  0.6011110000000  0.5131940000000 1.0
C      1  0.5330860000000  0.5619790000000  0.5884360000000 1.0
C      1  0.4617640000000  0.4848900000000  0.6101690000000 1.0
C      1  0.5339290000000  0.4172360000000  0.5648840000000 1.0
C      1  0.4650370000000  0.3962130000000  0.4822150000000 1.0
C      1  0.5250650000000  0.4542320000000  0.5537320000000 1.0
C      1  0.4717740000000  0.4280660000000  0.5051220000000 1.0
C      1  0.5256430000000  0.4543200000000  0.4520830000000 1.0
C      1  0.4746250000000  0.5010920000000  0.4264140000000 1.0
C      1  0.5303770000000  0.5527050000000  0.4424460000000 1.0
C      1  0.4694120000000  0.5641690000000  0.4982820000000 1.0
C      1  0.5267680000000  0.5512720000000  0.5504950000000 1.0
C      1  0.4706780000000  0.5057660000000  0.5780310000000 1.0
C      1  0.5031720000000  0.4999530000000  0.4972980000000 1.0
C      1  0.4725430000000  0.5109580000000  0.5043060000000 1.0
END
