TITL C-2622962-9663-214 -0.000655077564083 125000 -203.322464867151 0 0 45 (C1) n - 1
REM
REM in /nfs/bkarasulu/CARBON/AIRSS/Generating-Clusters/AIREBO/with-SteepDescent/Higher-Symm/SD-CG/HFTN-CG
REM
REM
REM
REM
REM
REM ./C.cell (b20cbc046b6831c77cfcea5457e17084)
REM
REM compiler GCC version 9.2.1 20190827 (Red Hat 9.2.1-1)
REM options -cpp -mtune=generic -march=x86-64 -g -O0 -fpre-include=/usr/include/finclude/math-vector-fortran.h
REM seed 1603095769 -1747033840 -1008444818 -831322590 -1713155876 -134366129 -1158706881 -18851564 -494696515 1918285730 -1246015220 -201492015 -325439005 -428927077 626854665 -385775652 2031763305 -1412852255 560650030 -2003677491 1029360744 -1976762244 -1644808835 2020908010 -1548724510 1077499680 1952387236 693684818 1265152507 -1430091209 -1940070123 605209316 -966923851
REM
CELL 1.54180   50.00000   50.00000   50.00000   90.00000   90.00000   90.00000
LATT -1
SFAC C  
C      1  0.4520910000000  0.5298860000000  0.4566450000000 1.0
C      1  0.4763770000000  0.4409820000000  0.5210910000000 1.0
C      1  0.5253070000000  0.4681060000000  0.4432210000000 1.0
C      1  0.5384290000000  0.4979220000000  0.4084140000000 1.0
C      1  0.5400690000000  0.5154910000000  0.5209500000000 1.0
C      1  0.4455210000000  0.4763220000000  0.5219210000000 1.0
C      1  0.5233270000000  0.5596040000000  0.5318500000000 1.0
C      1  0.5432470000000  0.4498570000000  0.4950610000000 1.0
C      1  0.4793870000000  0.5678000000000  0.4772460000000 1.0
C      1  0.4830720000000  0.5284320000000  0.4427420000000 1.0
C      1  0.4698450000000  0.4739420000000  0.5559040000000 1.0
C      1  0.5229900000000  0.5266010000000  0.5668190000000 1.0
C      1  0.4483040000000  0.5267850000000  0.5189560000000 1.0
C      1  0.4753700000000  0.4380970000000  0.4743290000000 1.0
C      1  0.5186270000000  0.4735350000000  0.5631860000000 1.0
C      1  0.5485340000000  0.4744170000000  0.5367400000000 1.0
C      1  0.5485860000000  0.5349440000000  0.4517260000000 1.0
C      1  0.4512480000000  0.4734740000000  0.4677660000000 1.0
C      1  0.5283420000000  0.5491370000000  0.4831010000000 1.0
C      1  0.5211040000000  0.4354200000000  0.5369890000000 1.0
C      1  0.4787040000000  0.5626150000000  0.5313420000000 1.0
C      1  0.4734080000000  0.5240120000000  0.5611370000000 1.0
C      1  0.4762490000000  0.4697820000000  0.4477990000000 1.0
C      1  0.5288820000000  0.5157200000000  0.4517150000000 1.0
C      1  0.4671390000000  0.5004970000000  0.4544700000000 1.0
C      1  0.5307500000000  0.4940470000000  0.4340460000000 1.0
C      1  0.5340080000000  0.5014580000000  0.5513650000000 1.0
C      1  0.4582010000000  0.5019150000000  0.5404500000000 1.0
C      1  0.5018710000000  0.5493040000000  0.4619490000000 1.0
C      1  0.4967720000000  0.4587060000000  0.5417470000000 1.0
C      1  0.4994660000000  0.5408670000000  0.5472180000000 1.0
C      1  0.5009250000000  0.4549340000000  0.4595130000000 1.0
C      1  0.4597230000000  0.4581530000000  0.4969160000000 1.0
C      1  0.5353570000000  0.5440720000000  0.5103150000000 1.0
C      1  0.5442850000000  0.4471510000000  0.5235400000000 1.0
C      1  0.4656350000000  0.5524880000000  0.5043150000000 1.0
C      1  0.4785850000000  0.4857480000000  0.5185540000000 1.0
C      1  0.5216830000000  0.4682820000000  0.4829100000000 1.0
C      1  0.4742060000000  0.5287140000000  0.4815580000000 1.0
C      1  0.5059490000000  0.5175190000000  0.4733280000000 1.0
C      1  0.5184770000000  0.4775040000000  0.5235170000000 1.0
C      1  0.4787980000000  0.5153360000000  0.5092070000000 1.0
C      1  0.5063390000000  0.5194910000000  0.5224850000000 1.0
C      1  0.4907940000000  0.4717050000000  0.4942750000000 1.0
C      1  0.5125650000000  0.4978940000000  0.4969590000000 1.0
END
