TITL C-2622967-6265-137 -7.47416242320472e-07 125000 -805.339357152607 0 0 146 (C1) n - 1
REM
REM in /nfs/bkarasulu/CARBON/AIRSS/Generating-Clusters/AIREBO/with-SteepDescent/Higher-Symm/SD-CG/HFTN-CG
REM
REM
REM
REM
REM
REM ./C.cell (b20cbc046b6831c77cfcea5457e17084)
REM
REM compiler GCC version 9.2.1 20190827 (Red Hat 9.2.1-1)
REM options -cpp -mtune=generic -march=x86-64 -g -O0 -fpre-include=/usr/include/finclude/math-vector-fortran.h
REM seed 1163101269 -1915885963 635164343 48443701 -1014677442 -1216235786 469542332 -317184300 -114517469 -1503495264 -1007763161 -156684792 -1319173686 -929415103 1604927882 -2116529771 594226889 -142178766 1585772390 -629460907 -1581628842 1657014935 2113732661 -650427882 -900526135 -2045296483 2144981811 552074984 1421780350 -1797901016 1021848807 201344895 1863446581
REM
CELL 1.54180   50.00000   50.00000   50.00000   90.00000   90.00000   90.00000
LATT -1
SFAC C  
C      1  0.4774990000000  0.6102100000000  0.4847150000000 1.0
C      1  0.4673770000000  0.3850310000000  0.4974080000000 1.0
C      1  0.4748280000000  0.6125660000000  0.5141260000000 1.0
C      1  0.4829350000000  0.3902090000000  0.5272210000000 1.0
C      1  0.4987600000000  0.6190170000000  0.5292650000000 1.0
C      1  0.5169330000000  0.3894660000000  0.5280880000000 1.0
C      1  0.5233410000000  0.6170900000000  0.5135310000000 1.0
C      1  0.5287800000000  0.3926360000000  0.5010560000000 1.0
C      1  0.5258670000000  0.6115700000000  0.4855520000000 1.0
C      1  0.5141360000000  0.3934190000000  0.4763380000000 1.0
C      1  0.5023530000000  0.6088340000000  0.4704370000000 1.0
C      1  0.4855920000000  0.3862210000000  0.4747910000000 1.0
C      1  0.4695200000000  0.4263760000000  0.4886150000000 1.0
C      1  0.4690800000000  0.5605370000000  0.5059320000000 1.0
C      1  0.4698190000000  0.4298950000000  0.5209070000000 1.0
C      1  0.4888440000000  0.5693000000000  0.5278440000000 1.0
C      1  0.5081980000000  0.4283580000000  0.5313240000000 1.0
C      1  0.5208970000000  0.5782200000000  0.5217340000000 1.0
C      1  0.5334910000000  0.4313570000000  0.5097450000000 1.0
C      1  0.5417360000000  0.5640350000000  0.4909960000000 1.0
C      1  0.5191180000000  0.4329130000000  0.4724500000000 1.0
C      1  0.5146890000000  0.5628720000000  0.4614390000000 1.0
C      1  0.4901490000000  0.4240920000000  0.4637680000000 1.0
C      1  0.4795900000000  0.5709590000000  0.4786980000000 1.0
C      1  0.5447010000000  0.4590170000000  0.5455720000000 1.0
C      1  0.5588300000000  0.5456430000000  0.5253870000000 1.0
C      1  0.5612090000000  0.4596630000000  0.4814690000000 1.0
C      1  0.5476120000000  0.5379610000000  0.4615580000000 1.0
C      1  0.5111630000000  0.4664180000000  0.4394800000000 1.0
C      1  0.4847310000000  0.5380720000000  0.4389950000000 1.0
C      1  0.4586780000000  0.4530590000000  0.4569980000000 1.0
C      1  0.4428210000000  0.5360410000000  0.4883230000000 1.0
C      1  0.4375130000000  0.4555470000000  0.5090820000000 1.0
C      1  0.4576840000000  0.5425480000000  0.5480330000000 1.0
C      1  0.4769860000000  0.4553050000000  0.5649430000000 1.0
C      1  0.5114230000000  0.5510610000000  0.5651730000000 1.0
C      1  0.5547540000000  0.5017760000000  0.4178360000000 1.0
C      1  0.4993270000000  0.4988130000000  0.4193820000000 1.0
C      1  0.4535280000000  0.4979170000000  0.4186340000000 1.0
C      1  0.4192640000000  0.4849190000000  0.4510720000000 1.0
C      1  0.4094370000000  0.5118730000000  0.5235450000000 1.0
C      1  0.4238680000000  0.4908130000000  0.5403790000000 1.0
C      1  0.4398480000000  0.5031770000000  0.5773350000000 1.0
C      1  0.4992110000000  0.4877420000000  0.5917270000000 1.0
C      1  0.5390700000000  0.5139970000000  0.5813820000000 1.0
C      1  0.5786440000000  0.4988900000000  0.5489500000000 1.0
C      1  0.5892780000000  0.5117150000000  0.5063280000000 1.0
C      1  0.5862120000000  0.4990190000000  0.4572060000000 1.0
C      1  0.4073740000000  0.5437540000000  0.5276040000000 1.0
C      1  0.4385960000000  0.4468510000000  0.5583270000000 1.0
C      1  0.4586150000000  0.5432140000000  0.6001260000000 1.0
C      1  0.5182640000000  0.4444730000000  0.5843830000000 1.0
C      1  0.5593990000000  0.5550310000000  0.5694150000000 1.0
C      1  0.5926000000000  0.4524040000000  0.5334450000000 1.0
C      1  0.5888690000000  0.5535320000000  0.4848040000000 1.0
C      1  0.5724800000000  0.4547450000000  0.4332550000000 1.0
C      1  0.5276050000000  0.5460700000000  0.4119520000000 1.0
C      1  0.4817150000000  0.4582840000000  0.3989390000000 1.0
C      1  0.4354600000000  0.5451310000000  0.4262160000000 1.0
C      1  0.4098840000000  0.4430090000000  0.4694910000000 1.0
C      1  0.4538820000000  0.4770120000000  0.5621450000000 1.0
C      1  0.4830380000000  0.5464660000000  0.5785490000000 1.0
C      1  0.5237560000000  0.4696890000000  0.5659140000000 1.0
C      1  0.5625960000000  0.5271170000000  0.5519620000000 1.0
C      1  0.5688460000000  0.4640780000000  0.5113770000000 1.0
C      1  0.5743410000000  0.5269800000000  0.4725070000000 1.0
C      1  0.5440170000000  0.4722420000000  0.4395640000000 1.0
C      1  0.5093710000000  0.5252380000000  0.4272600000000 1.0
C      1  0.4615590000000  0.4610580000000  0.4247540000000 1.0
C      1  0.4422240000000  0.5323280000000  0.4569800000000 1.0
C      1  0.4201060000000  0.4681310000000  0.4872880000000 1.0
C      1  0.4295650000000  0.5576050000000  0.5359810000000 1.0
C      1  0.4807110000000  0.4830200000000  0.4422770000000 1.0
C      1  0.4546580000000  0.5024400000000  0.4523200000000 1.0
C      1  0.4337010000000  0.4982780000000  0.4788100000000 1.0
C      1  0.4406150000000  0.5098530000000  0.5101230000000 1.0
C      1  0.4554870000000  0.5034470000000  0.5406950000000 1.0
C      1  0.4800030000000  0.5190800000000  0.5584770000000 1.0
C      1  0.5077360000000  0.4994900000000  0.5620000000000 1.0
C      1  0.5393260000000  0.5024080000000  0.5496360000000 1.0
C      1  0.5581090000000  0.4927640000000  0.5225510000000 1.0
C      1  0.5641960000000  0.4994840000000  0.4897710000000 1.0
C      1  0.5522620000000  0.4971430000000  0.4577990000000 1.0
C      1  0.5367270000000  0.5190720000000  0.4399900000000 1.0
C      1  0.4676020000000  0.4054700000000  0.5522370000000 1.0
C      1  0.4994900000000  0.6037820000000  0.5553890000000 1.0
C      1  0.5309150000000  0.4026020000000  0.5513860000000 1.0
C      1  0.5441910000000  0.6010930000000  0.5312640000000 1.0
C      1  0.5571230000000  0.4095620000000  0.4986690000000 1.0
C      1  0.5491530000000  0.5930060000000  0.4759330000000 1.0
C      1  0.5260380000000  0.4100570000000  0.4491220000000 1.0
C      1  0.5037840000000  0.5885310000000  0.4431450000000 1.0
C      1  0.4715950000000  0.4007390000000  0.4474060000000 1.0
C      1  0.4547000000000  0.5920980000000  0.4691740000000 1.0
C      1  0.4415890000000  0.3974650000000  0.4950340000000 1.0
C      1  0.4580420000000  0.5947140000000  0.5293790000000 1.0
C      1  0.5049080000000  0.4716690000000  0.4064690000000 1.0
C      1  0.4601370000000  0.5273510000000  0.4216530000000 1.0
C      1  0.4263230000000  0.4583130000000  0.4492740000000 1.0
C      1  0.4100900000000  0.5324870000000  0.4968220000000 1.0
C      1  0.4260860000000  0.4632860000000  0.5369340000000 1.0
C      1  0.4463740000000  0.5296310000000  0.5773850000000 1.0
C      1  0.4932980000000  0.4610200000000  0.5900320000000 1.0
C      1  0.5358800000000  0.5409960000000  0.5802750000000 1.0
C      1  0.5737020000000  0.4692060000000  0.5506750000000 1.0
C      1  0.5855110000000  0.5383010000000  0.5096540000000 1.0
C      1  0.5803270000000  0.4689490000000  0.4594050000000 1.0
C      1  0.5493120000000  0.5283490000000  0.4032030000000 1.0
C      1  0.5064490000000  0.5427740000000  0.5331770000000 1.0
C      1  0.5158850000000  0.4617500000000  0.5276400000000 1.0
C      1  0.5299040000000  0.5365470000000  0.5170770000000 1.0
C      1  0.5309740000000  0.4613560000000  0.4971660000000 1.0
C      1  0.5265310000000  0.5340460000000  0.4859040000000 1.0
C      1  0.5075970000000  0.4635270000000  0.4731740000000 1.0
C      1  0.4966220000000  0.5356510000000  0.4709320000000 1.0
C      1  0.4777880000000  0.4641450000000  0.4788620000000 1.0
C      1  0.4750360000000  0.5251640000000  0.4890100000000 1.0
C      1  0.4668510000000  0.4652620000000  0.5035000000000 1.0
C      1  0.4760470000000  0.5323450000000  0.5212800000000 1.0
C      1  0.4828600000000  0.4590080000000  0.5316430000000 1.0
C      1  0.4702030000000  0.5739310000000  0.5519920000000 1.0
C      1  0.4886610000000  0.4271860000000  0.5560040000000 1.0
C      1  0.5196330000000  0.5793900000000  0.5539730000000 1.0
C      1  0.5471700000000  0.4255790000000  0.5397780000000 1.0
C      1  0.5602480000000  0.5778650000000  0.5145840000000 1.0
C      1  0.5507350000000  0.4292860000000  0.4740180000000 1.0
C      1  0.5460960000000  0.5692590000000  0.4517910000000 1.0
C      1  0.5055310000000  0.4338790000000  0.4350680000000 1.0
C      1  0.4781260000000  0.5685770000000  0.4468020000000 1.0
C      1  0.4505120000000  0.4216590000000  0.4626450000000 1.0
C      1  0.4414590000000  0.5699610000000  0.4903100000000 1.0
C      1  0.4374290000000  0.4225030000000  0.5176810000000 1.0
C      1  0.5721950000000  0.4311800000000  0.5192930000000 1.0
C      1  0.5782660000000  0.5796640000000  0.4873930000000 1.0
C      1  0.5448260000000  0.4382360000000  0.4423690000000 1.0
C      1  0.5277050000000  0.5717910000000  0.4251060000000 1.0
C      1  0.4733710000000  0.4293760000000  0.4284910000000 1.0
C      1  0.4459080000000  0.5654300000000  0.4497320000000 1.0
C      1  0.4245320000000  0.4212630000000  0.4808430000000 1.0
C      1  0.4366480000000  0.5795110000000  0.5195210000000 1.0
C      1  0.4428650000000  0.4201000000000  0.5486150000000 1.0
C      1  0.4874100000000  0.5806340000000  0.5771970000000 1.0
C      1  0.5150920000000  0.4182570000000  0.5702910000000 1.0
C      1  0.5523020000000  0.5760640000000  0.5528380000000 1.0
C      1  0.4946310000000  0.4130810000000  0.5049460000000 1.0
C      1  0.5085170000000  0.5689940000000  0.4930890000000 1.0
END
