TITL C-2622967-6265-400 -0.00348754708134824 125000 -388.699503277286 0 0 72 (C1) n - 1
REM
REM in /nfs/bkarasulu/CARBON/AIRSS/Generating-Clusters/AIREBO/with-SteepDescent/Higher-Symm/SD-CG/HFTN-CG
REM
REM
REM
REM
REM
REM ./C.cell (b20cbc046b6831c77cfcea5457e17084)
REM
REM compiler GCC version 9.2.1 20190827 (Red Hat 9.2.1-1)
REM options -cpp -mtune=generic -march=x86-64 -g -O0 -fpre-include=/usr/include/finclude/math-vector-fortran.h
REM seed 361776538 -2080377958 2047184972 -1026119995 244669270 -1143013961 1772216459 1375236898 -1242373940 -957493951 -143210998 -654182771 -1711776366 -1571273871 1487927703 958796372 1058261965 1728313339 -1493233387 -1580467799 648185150 916301286 -1072174749 -2139872227 1616201296 -1812054256 2029778652 1902652329 -1801637554 243826635 -1705897358 -1000664908 -1266356152
REM
CELL 1.54180   50.00000   50.00000   50.00000   90.00000   90.00000   90.00000
LATT -1
SFAC C  
C      1  0.5265120000000  0.5342730000000  0.5168320000000 1.0
C      1  0.4780940000000  0.5491340000000  0.5183910000000 1.0
C      1  0.4391280000000  0.5043800000000  0.5193200000000 1.0
C      1  0.4822770000000  0.4495680000000  0.5195710000000 1.0
C      1  0.5469660000000  0.4599740000000  0.5204030000000 1.0
C      1  0.5437170000000  0.4404200000000  0.5466590000000 1.0
C      1  0.5582400000000  0.5125600000000  0.5263880000000 1.0
C      1  0.5043600000000  0.5709050000000  0.5507100000000 1.0
C      1  0.4349480000000  0.5238750000000  0.5463660000000 1.0
C      1  0.4509950000000  0.4539350000000  0.5191130000000 1.0
C      1  0.4737730000000  0.4932920000000  0.4576990000000 1.0
C      1  0.4975940000000  0.4691320000000  0.4526060000000 1.0
C      1  0.5279530000000  0.4844210000000  0.4535040000000 1.0
C      1  0.5112270000000  0.5112290000000  0.4419670000000 1.0
C      1  0.4932330000000  0.5188240000000  0.4689210000000 1.0
C      1  0.4881690000000  0.5719600000000  0.4660260000000 1.0
C      1  0.4264370000000  0.5149710000000  0.4780500000000 1.0
C      1  0.4711790000000  0.4433290000000  0.4677090000000 1.0
C      1  0.5478170000000  0.4511360000000  0.4673800000000 1.0
C      1  0.5506760000000  0.5292680000000  0.4699480000000 1.0
C      1  0.4649420000000  0.5228940000000  0.5087170000000 1.0
C      1  0.4878360000000  0.4782910000000  0.5039370000000 1.0
C      1  0.5190660000000  0.4688790000000  0.5087330000000 1.0
C      1  0.5183890000000  0.5028890000000  0.5114980000000 1.0
C      1  0.5049960000000  0.5524130000000  0.5097010000000 1.0
C      1  0.4700940000000  0.5434880000000  0.4654130000000 1.0
C      1  0.4457470000000  0.4871470000000  0.4750200000000 1.0
C      1  0.5043330000000  0.4397520000000  0.4683340000000 1.0
C      1  0.5451250000000  0.4819400000000  0.4815230000000 1.0
C      1  0.5177470000000  0.5420060000000  0.4733850000000 1.0
C      1  0.4381420000000  0.5347780000000  0.4933580000000 1.0
C      1  0.4621030000000  0.4643970000000  0.4886210000000 1.0
C      1  0.5254670000000  0.4425520000000  0.4915450000000 1.0
C      1  0.5472520000000  0.5086690000000  0.4944450000000 1.0
C      1  0.5123700000000  0.5728510000000  0.4875710000000 1.0
C      1  0.5398210000000  0.4579230000000  0.4357400000000 1.0
C      1  0.5428250000000  0.5204070000000  0.4417770000000 1.0
C      1  0.4936840000000  0.5560530000000  0.4363020000000 1.0
C      1  0.4653850000000  0.5077250000000  0.4300390000000 1.0
C      1  0.4724220000000  0.4542080000000  0.4352940000000 1.0
C      1  0.5506290000000  0.4900030000000  0.4287080000000 1.0
C      1  0.5182010000000  0.5417150000000  0.4313870000000 1.0
C      1  0.4688530000000  0.5352860000000  0.4330970000000 1.0
C      1  0.4590400000000  0.4792260000000  0.4233060000000 1.0
C      1  0.5079140000000  0.4516230000000  0.4253380000000 1.0
C      1  0.4108740000000  0.4750230000000  0.5228510000000 1.0
C      1  0.5157540000000  0.4202790000000  0.5139980000000 1.0
C      1  0.5846940000000  0.4727390000000  0.5192750000000 1.0
C      1  0.5363450000000  0.5765840000000  0.5114270000000 1.0
C      1  0.4399350000000  0.5589420000000  0.5135340000000 1.0
C      1  0.5695910000000  0.4885390000000  0.5367890000000 1.0
C      1  0.5294580000000  0.5670580000000  0.5392530000000 1.0
C      1  0.4455320000000  0.5498900000000  0.5411440000000 1.0
C      1  0.4341890000000  0.4682770000000  0.5357240000000 1.0
C      1  0.5178080000000  0.4296860000000  0.5410140000000 1.0
C      1  0.5255230000000  0.4859930000000  0.5645690000000 1.0
C      1  0.5226830000000  0.5202730000000  0.5669460000000 1.0
C      1  0.4892390000000  0.5230950000000  0.5614610000000 1.0
C      1  0.4758990000000  0.4923620000000  0.5613990000000 1.0
C      1  0.4961090000000  0.4715640000000  0.5616190000000 1.0
C      1  0.4480690000000  0.4927480000000  0.5502400000000 1.0
C      1  0.4963940000000  0.4481220000000  0.5459700000000 1.0
C      1  0.5494040000000  0.4719540000000  0.5540190000000 1.0
C      1  0.5410950000000  0.5354980000000  0.5450140000000 1.0
C      1  0.4783990000000  0.5504030000000  0.5499190000000 1.0
C      1  0.5668030000000  0.4614190000000  0.4942100000000 1.0
C      1  0.5438280000000  0.5494170000000  0.4939020000000 1.0
C      1  0.4649380000000  0.5641500000000  0.4908680000000 1.0
C      1  0.4189430000000  0.4897120000000  0.4962100000000 1.0
C      1  0.4883580000000  0.4283150000000  0.4954540000000 1.0
C      1  0.4886030000000  0.5082850000000  0.4977150000000 1.0
C      1  0.5086050000000  0.5035680000000  0.5414160000000 1.0
END
