TITL C-2622968-4806-866 -0.00345992966320192 125000 -917.188585074913 0 0 174 (C1) n - 1
REM
REM in /nfs/bkarasulu/CARBON/AIRSS/Generating-Clusters/AIREBO/with-SteepDescent/Higher-Symm/SD-CG/HFTN-CG
REM
REM
REM
REM
REM
REM ./C.cell (b20cbc046b6831c77cfcea5457e17084)
REM
REM compiler GCC version 9.2.1 20190827 (Red Hat 9.2.1-1)
REM options -cpp -mtune=generic -march=x86-64 -g -O0 -fpre-include=/usr/include/finclude/math-vector-fortran.h
REM seed -1542217637 -852506469 -1755998926 -963749810 1832058125 -1974154778 -880991475 2050567883 -1668488442 -1364775121 705454641 -1060193952 -1916501322 1934702228 -691848262 -1999586969 1874919675 -190206311 1726386969 737246401 -670740508 -1569233525 172216260 -1698154519 -1464383938 -1907127825 -522198045 2061754475 906229879 1305140523 1552910779 -1230419334 517830103
REM
CELL 1.54180   50.00000   50.00000   50.00000   90.00000   90.00000   90.00000
LATT -1
SFAC C  
C      1  0.4411070000000  0.4356480000000  0.4591210000000 1.0
C      1  0.4402410000000  0.5633660000000  0.5407970000000 1.0
C      1  0.4440300000000  0.5504420000000  0.4697050000000 1.0
C      1  0.4474860000000  0.4445460000000  0.5384610000000 1.0
C      1  0.5505930000000  0.4681510000000  0.5130010000000 1.0
C      1  0.5427320000000  0.5365860000000  0.4909160000000 1.0
C      1  0.5571830000000  0.5286990000000  0.5192310000000 1.0
C      1  0.5507890000000  0.4652050000000  0.4800880000000 1.0
C      1  0.5189220000000  0.4766560000000  0.4833280000000 1.0
C      1  0.5249490000000  0.5238960000000  0.5289240000000 1.0
C      1  0.5109910000000  0.5284270000000  0.4820950000000 1.0
C      1  0.5206130000000  0.4778470000000  0.5247390000000 1.0
C      1  0.5282000000000  0.5994930000000  0.4710290000000 1.0
C      1  0.5356530000000  0.4024000000000  0.5312020000000 1.0
C      1  0.5262510000000  0.4003170000000  0.4741460000000 1.0
C      1  0.5353040000000  0.5946940000000  0.5341490000000 1.0
C      1  0.5245220000000  0.4380890000000  0.5392210000000 1.0
C      1  0.5215260000000  0.5644020000000  0.4537060000000 1.0
C      1  0.5360460000000  0.5573940000000  0.5475820000000 1.0
C      1  0.5170070000000  0.4342210000000  0.4559880000000 1.0
C      1  0.5270380000000  0.4736550000000  0.3932910000000 1.0
C      1  0.5033710000000  0.5207030000000  0.5997150000000 1.0
C      1  0.5031700000000  0.5204090000000  0.3946460000000 1.0
C      1  0.4945020000000  0.4656280000000  0.6090880000000 1.0
C      1  0.4213720000000  0.4588800000000  0.4440250000000 1.0
C      1  0.4091090000000  0.5476450000000  0.5600150000000 1.0
C      1  0.4204510000000  0.5442410000000  0.4384140000000 1.0
C      1  0.4229600000000  0.4600100000000  0.5562340000000 1.0
C      1  0.5272710000000  0.5352200000000  0.4123360000000 1.0
C      1  0.5243370000000  0.4714460000000  0.5991850000000 1.0
C      1  0.5245950000000  0.4530620000000  0.4108930000000 1.0
C      1  0.5348670000000  0.5338550000000  0.5950940000000 1.0
C      1  0.4517060000000  0.4716000000000  0.5178350000000 1.0
C      1  0.4462300000000  0.5196200000000  0.4729200000000 1.0
C      1  0.4461120000000  0.5316970000000  0.5298860000000 1.0
C      1  0.4503420000000  0.4608040000000  0.4792730000000 1.0
C      1  0.5254790000000  0.4804400000000  0.5539940000000 1.0
C      1  0.5264010000000  0.5144740000000  0.4551270000000 1.0
C      1  0.5257350000000  0.5110050000000  0.5571820000000 1.0
C      1  0.5261430000000  0.4834160000000  0.4525870000000 1.0
C      1  0.4491420000000  0.5314640000000  0.4252890000000 1.0
C      1  0.4494650000000  0.4792160000000  0.5651440000000 1.0
C      1  0.4449720000000  0.4791060000000  0.4297610000000 1.0
C      1  0.4296140000000  0.5320940000000  0.5738690000000 1.0
C      1  0.5574080000000  0.4443980000000  0.4428440000000 1.0
C      1  0.5741220000000  0.5500430000000  0.5607880000000 1.0
C      1  0.5589970000000  0.5534830000000  0.4449670000000 1.0
C      1  0.5694990000000  0.4501490000000  0.5614880000000 1.0
C      1  0.5068500000000  0.5935470000000  0.4458400000000 1.0
C      1  0.5077670000000  0.4107220000000  0.5488750000000 1.0
C      1  0.5093040000000  0.4030190000000  0.4447740000000 1.0
C      1  0.5138250000000  0.5928380000000  0.5547480000000 1.0
C      1  0.4597440000000  0.5833960000000  0.5222420000000 1.0
C      1  0.4558860000000  0.4073520000000  0.4704520000000 1.0
C      1  0.4566610000000  0.4201580000000  0.5166100000000 1.0
C      1  0.4593400000000  0.5778290000000  0.4828550000000 1.0
C      1  0.4956660000000  0.4331230000000  0.4807320000000 1.0
C      1  0.4920610000000  0.5603490000000  0.5257660000000 1.0
C      1  0.4970200000000  0.5674480000000  0.4743530000000 1.0
C      1  0.4909030000000  0.4456530000000  0.5394120000000 1.0
C      1  0.4723800000000  0.5335760000000  0.4005420000000 1.0
C      1  0.4664810000000  0.4783230000000  0.5945880000000 1.0
C      1  0.4610870000000  0.4735050000000  0.4003250000000 1.0
C      1  0.4511860000000  0.5362960000000  0.5927070000000 1.0
C      1  0.4739890000000  0.5543090000000  0.5807020000000 1.0
C      1  0.4745630000000  0.4454120000000  0.4061210000000 1.0
C      1  0.4764890000000  0.4459260000000  0.5902460000000 1.0
C      1  0.4763870000000  0.5619600000000  0.4175860000000 1.0
C      1  0.4774370000000  0.4713820000000  0.4364480000000 1.0
C      1  0.4876150000000  0.5315560000000  0.5624490000000 1.0
C      1  0.4800260000000  0.5286730000000  0.4393160000000 1.0
C      1  0.4821160000000  0.4726130000000  0.5582420000000 1.0
C      1  0.5095450000000  0.4599170000000  0.4376260000000 1.0
C      1  0.5180430000000  0.5418960000000  0.5691400000000 1.0
C      1  0.5125570000000  0.5380550000000  0.4393550000000 1.0
C      1  0.5098090000000  0.4592600000000  0.5727610000000 1.0
C      1  0.6005710000000  0.5459640000000  0.4808150000000 1.0
C      1  0.5826110000000  0.4654670000000  0.5068140000000 1.0
C      1  0.5836020000000  0.4578290000000  0.4748720000000 1.0
C      1  0.5880830000000  0.5336080000000  0.5079750000000 1.0
C      1  0.5562360000000  0.5256130000000  0.4642480000000 1.0
C      1  0.5571400000000  0.4815050000000  0.5566960000000 1.0
C      1  0.5597550000000  0.4776170000000  0.4497230000000 1.0
C      1  0.5563050000000  0.5240020000000  0.5536250000000 1.0
C      1  0.4768650000000  0.5882830000000  0.4570710000000 1.0
C      1  0.4748710000000  0.4160460000000  0.5441630000000 1.0
C      1  0.4810780000000  0.4171490000000  0.4562710000000 1.0
C      1  0.4852870000000  0.5855200000000  0.5433670000000 1.0
C      1  0.5489340000000  0.4400020000000  0.4173050000000 1.0
C      1  0.5604090000000  0.5473900000000  0.5918660000000 1.0
C      1  0.5513650000000  0.5504230000000  0.4176130000000 1.0
C      1  0.5504370000000  0.4539980000000  0.5879280000000 1.0
C      1  0.5477580000000  0.4237670000000  0.4664900000000 1.0
C      1  0.5620090000000  0.5743720000000  0.5402160000000 1.0
C      1  0.5508700000000  0.5772520000000  0.4653990000000 1.0
C      1  0.5557840000000  0.4297760000000  0.5381580000000 1.0
C      1  0.4133430000000  0.5566540000000  0.4675300000000 1.0
C      1  0.4149810000000  0.4372040000000  0.5316530000000 1.0
C      1  0.4086240000000  0.4380430000000  0.4689060000000 1.0
C      1  0.4094390000000  0.5593990000000  0.5315180000000 1.0
C      1  0.5014600000000  0.4283060000000  0.5752580000000 1.0
C      1  0.4918450000000  0.5857640000000  0.4169470000000 1.0
C      1  0.5034010000000  0.5717770000000  0.5761240000000 1.0
C      1  0.4927400000000  0.4257090000000  0.4254970000000 1.0
C      1  0.5909510000000  0.4876240000000  0.4405880000000 1.0
C      1  0.5957700000000  0.5245760000000  0.5542230000000 1.0
C      1  0.5880700000000  0.5347250000000  0.4565180000000 1.0
C      1  0.5944170000000  0.4755120000000  0.5615100000000 1.0
C      1  0.5951970000000  0.4316170000000  0.4688370000000 1.0
C      1  0.5741110000000  0.5643130000000  0.5126030000000 1.0
C      1  0.5998840000000  0.5734160000000  0.4810370000000 1.0
C      1  0.5712450000000  0.4341250000000  0.5110940000000 1.0
C      1  0.4797660000000  0.5343120000000  0.5339940000000 1.0
C      1  0.4725350000000  0.4813220000000  0.4663160000000 1.0
C      1  0.4751800000000  0.4857440000000  0.5306460000000 1.0
C      1  0.4772230000000  0.5119680000000  0.4684180000000 1.0
C      1  0.4666500000000  0.5584850000000  0.4487490000000 1.0
C      1  0.4610100000000  0.4328290000000  0.5674300000000 1.0
C      1  0.4596000000000  0.4424920000000  0.4343080000000 1.0
C      1  0.4616100000000  0.5754050000000  0.5611820000000 1.0
C      1  0.4706160000000  0.5115870000000  0.5992300000000 1.0
C      1  0.4759380000000  0.5009420000000  0.3896700000000 1.0
C      1  0.5788030000000  0.5075790000000  0.6021470000000 1.0
C      1  0.5760200000000  0.4820960000000  0.4007800000000 1.0
C      1  0.5300030000000  0.5031530000000  0.4056160000000 1.0
C      1  0.5293010000000  0.5003190000000  0.5957530000000 1.0
C      1  0.3898330000000  0.4984230000000  0.4624130000000 1.0
C      1  0.3943640000000  0.4920090000000  0.5293510000000 1.0
C      1  0.5713930000000  0.4986540000000  0.4737840000000 1.0
C      1  0.5815880000000  0.4973980000000  0.5391420000000 1.0
C      1  0.4205100000000  0.5263880000000  0.5119370000000 1.0
C      1  0.4229260000000  0.4681410000000  0.4905020000000 1.0
C      1  0.4860940000000  0.3854480000000  0.5027810000000 1.0
C      1  0.4926550000000  0.6173030000000  0.5035510000000 1.0
C      1  0.5560180000000  0.4870690000000  0.4172640000000 1.0
C      1  0.5570400000000  0.5038260000000  0.5809910000000 1.0
C      1  0.4103020000000  0.4900630000000  0.4457050000000 1.0
C      1  0.4153370000000  0.4888770000000  0.5468100000000 1.0
C      1  0.5071370000000  0.5749380000000  0.5012270000000 1.0
C      1  0.4974890000000  0.4253040000000  0.5129010000000 1.0
C      1  0.5219210000000  0.6026420000000  0.5038510000000 1.0
C      1  0.5159820000000  0.3986340000000  0.5036010000000 1.0
C      1  0.4897540000000  0.4635660000000  0.4853410000000 1.0
C      1  0.4812220000000  0.5412290000000  0.4852790000000 1.0
C      1  0.5224400000000  0.5541020000000  0.5203110000000 1.0
C      1  0.5174780000000  0.4494310000000  0.5099860000000 1.0
C      1  0.4385330000000  0.5099430000000  0.5549550000000 1.0
C      1  0.4367830000000  0.5080510000000  0.4437470000000 1.0
C      1  0.4657240000000  0.4472210000000  0.5030340000000 1.0
C      1  0.4580250000000  0.5533410000000  0.5064360000000 1.0
C      1  0.4055560000000  0.5528840000000  0.4982730000000 1.0
C      1  0.4097330000000  0.4405300000000  0.5033110000000 1.0
C      1  0.4632410000000  0.3991770000000  0.4969640000000 1.0
C      1  0.4682420000000  0.6048910000000  0.5007680000000 1.0
C      1  0.5716130000000  0.4213040000000  0.4853550000000 1.0
C      1  0.5723420000000  0.5814330000000  0.4872290000000 1.0
C      1  0.3878120000000  0.5254430000000  0.5026080000000 1.0
C      1  0.3887620000000  0.4595590000000  0.4859270000000 1.0
C      1  0.5991660000000  0.5114420000000  0.4408780000000 1.0
C      1  0.6141740000000  0.4984470000000  0.5618510000000 1.0
C      1  0.4905920000000  0.5017990000000  0.5735160000000 1.0
C      1  0.4818770000000  0.5004490000000  0.4219090000000 1.0
C      1  0.3552670000000  0.4885810000000  0.5007490000000 1.0
C      1  0.3301720000000  0.4859060000000  0.5045070000000 1.0
C      1  0.5841290000000  0.4996200000000  0.5053090000000 1.0
C      1  0.6172260000000  0.4975050000000  0.4990390000000 1.0
C      1  0.6688310000000  0.4938060000000  0.4896350000000 1.0
C      1  0.5151730000000  0.5038050000000  0.5034540000000 1.0
C      1  0.4551740000000  0.5001810000000  0.4993770000000 1.0
C      1  0.3887220000000  0.4920930000000  0.4958080000000 1.0
C      1  0.5502070000000  0.4988700000000  0.5075730000000 1.0
C      1  0.4221180000000  0.4975290000000  0.4991810000000 1.0
C      1  0.6431250000000  0.4956500000000  0.4943530000000 1.0
C      1  0.4837930000000  0.5095950000000  0.5151920000000 1.0
END
