TITL C-2622953-3516-383 16.5620077290511 125000 -426.138685169122 0 0 82 (C1) n - 1
REM
REM in /nfs/bkarasulu/CARBON/AIRSS/Generating-Clusters/AIREBO/with-SteepDescent/Higher-Symm/SD-CG/HFTN-CG
REM
REM
REM
REM
REM
REM ./C.cell (b20cbc046b6831c77cfcea5457e17084)
REM
REM compiler GCC version 9.2.1 20190827 (Red Hat 9.2.1-1)
REM options -cpp -mtune=generic -march=x86-64 -g -O0 -fpre-include=/usr/include/finclude/math-vector-fortran.h
REM seed -2014302140 714872600 428313429 730211906 1142582259 -823510539 -748696038 -1387196190 1987794433 644583922 896847896 -994126922 2037358080 125627279 1367722162 1557914940 -1859003939 1030691444 -1640145586 1638411559 -635459033 1989836809 1096512118 -1177916301 -28262804 -1210109500 561366742 -1224163367 -189668266 -1353079924 1484461381 2032989875 -1809130693
REM
CELL 1.54180   50.00000   50.00000   50.00000   90.00000   90.00000   90.00000
LATT -1
SFAC C  
C      1  0.5409950000000  0.5620830000000  0.5174230000000 1.0
C      1  0.4999950000000  0.5598730000000  0.5737550000000 1.0
C      1  0.4672930000000  0.5682210000000  0.5075160000000 1.0
C      1  0.4727470000000  0.5577150000000  0.4531820000000 1.0
C      1  0.5218940000000  0.5660720000000  0.4681130000000 1.0
C      1  0.5402220000000  0.4303200000000  0.5100190000000 1.0
C      1  0.4979810000000  0.4394990000000  0.5589270000000 1.0
C      1  0.4549270000000  0.4390540000000  0.5135370000000 1.0
C      1  0.4760960000000  0.4396530000000  0.4600200000000 1.0
C      1  0.5245280000000  0.4338070000000  0.4676750000000 1.0
C      1  0.4579370000000  0.5191230000000  0.5691670000000 1.0
C      1  0.4247970000000  0.5157280000000  0.4828830000000 1.0
C      1  0.4969130000000  0.5141020000000  0.4238470000000 1.0
C      1  0.5711290000000  0.5133500000000  0.4719620000000 1.0
C      1  0.5538210000000  0.5123040000000  0.5618180000000 1.0
C      1  0.4604270000000  0.4857090000000  0.5640020000000 1.0
C      1  0.4282500000000  0.4839490000000  0.4806510000000 1.0
C      1  0.4945780000000  0.4820260000000  0.4185430000000 1.0
C      1  0.5740770000000  0.4821500000000  0.4672720000000 1.0
C      1  0.5517250000000  0.4813740000000  0.5568930000000 1.0
C      1  0.5254660000000  0.4378360000000  0.5525280000000 1.0
C      1  0.4525380000000  0.4459480000000  0.5442840000000 1.0
C      1  0.4506720000000  0.4361920000000  0.4744320000000 1.0
C      1  0.5114160000000  0.4380770000000  0.4422440000000 1.0
C      1  0.5585030000000  0.4365530000000  0.4883790000000 1.0
C      1  0.5208030000000  0.5532150000000  0.5586560000000 1.0
C      1  0.4708590000000  0.5570430000000  0.5354500000000 1.0
C      1  0.4501960000000  0.5618070000000  0.4720050000000 1.0
C      1  0.5091630000000  0.5615120000000  0.4414650000000 1.0
C      1  0.5529100000000  0.5572020000000  0.4912400000000 1.0
C      1  0.5346460000000  0.5136310000000  0.5090860000000 1.0
C      1  0.5062570000000  0.5111740000000  0.5439540000000 1.0
C      1  0.4675130000000  0.5111250000000  0.5159860000000 1.0
C      1  0.4755280000000  0.5127880000000  0.4709970000000 1.0
C      1  0.5230820000000  0.5149730000000  0.4670400000000 1.0
C      1  0.5353700000000  0.4835200000000  0.5084290000000 1.0
C      1  0.5070010000000  0.4814210000000  0.5362250000000 1.0
C      1  0.4652370000000  0.4809600000000  0.5169580000000 1.0
C      1  0.4737920000000  0.4822850000000  0.4692010000000 1.0
C      1  0.5222840000000  0.4859050000000  0.4674780000000 1.0
C      1  0.5249920000000  0.4551980000000  0.5241400000000 1.0
C      1  0.4828830000000  0.4578950000000  0.5346430000000 1.0
C      1  0.4646230000000  0.4623130000000  0.4906910000000 1.0
C      1  0.4996430000000  0.4642090000000  0.4605380000000 1.0
C      1  0.5345750000000  0.4603540000000  0.4843920000000 1.0
C      1  0.5201980000000  0.5375520000000  0.5284760000000 1.0
C      1  0.4889870000000  0.5363960000000  0.5163610000000 1.0
C      1  0.4699680000000  0.5399830000000  0.4887010000000 1.0
C      1  0.4975920000000  0.5355550000000  0.4601330000000 1.0
C      1  0.5250610000000  0.5393490000000  0.4888980000000 1.0
C      1  0.4327270000000  0.4720860000000  0.5123210000000 1.0
C      1  0.4680810000000  0.4716290000000  0.4374120000000 1.0
C      1  0.5469430000000  0.4727180000000  0.4485270000000 1.0
C      1  0.5614750000000  0.4708830000000  0.5261870000000 1.0
C      1  0.4936100000000  0.4782220000000  0.5673140000000 1.0
C      1  0.4376510000000  0.5242420000000  0.5132310000000 1.0
C      1  0.4670320000000  0.5210300000000  0.4391190000000 1.0
C      1  0.5497260000000  0.5277810000000  0.4502420000000 1.0
C      1  0.5582060000000  0.5253510000000  0.5306200000000 1.0
C      1  0.4918740000000  0.5209020000000  0.5702680000000 1.0
C      1  0.4306820000000  0.5471020000000  0.4889670000000 1.0
C      1  0.4850210000000  0.5454330000000  0.4237170000000 1.0
C      1  0.5694480000000  0.5465340000000  0.4707550000000 1.0
C      1  0.5484100000000  0.5443780000000  0.5559880000000 1.0
C      1  0.4721920000000  0.5481870000000  0.5636840000000 1.0
C      1  0.4266290000000  0.4513510000000  0.4860600000000 1.0
C      1  0.4907860000000  0.4499640000000  0.4243280000000 1.0
C      1  0.5673700000000  0.4504100000000  0.4638240000000 1.0
C      1  0.5531180000000  0.4498390000000  0.5519070000000 1.0
C      1  0.4700920000000  0.4541630000000  0.5722270000000 1.0
C      1  0.4345710000000  0.4827430000000  0.5423400000000 1.0
C      1  0.4395960000000  0.4803200000000  0.4487630000000 1.0
C      1  0.5265080000000  0.4876960000000  0.4278210000000 1.0
C      1  0.5744530000000  0.4864420000000  0.5010370000000 1.0
C      1  0.5235390000000  0.4885480000000  0.5718710000000 1.0
C      1  0.4387160000000  0.5121730000000  0.5434680000000 1.0
C      1  0.4400430000000  0.5100280000000  0.4530710000000 1.0
C      1  0.5301590000000  0.5171930000000  0.4278780000000 1.0
C      1  0.5743560000000  0.5159080000000  0.5055920000000 1.0
C      1  0.5247410000000  0.5186330000000  0.5783500000000 1.0
C      1  0.4862550000000  0.4346620000000  0.5096770000000 1.0
C      1  0.4686270000000  0.5944190000000  0.5003570000000 1.0
END
