TITL C-2622960-5345-31 0.000824229538137434 125000 -341.857740585662 0 0 60 (C1) n - 1
REM
REM in /nfs/bkarasulu/CARBON/AIRSS/Generating-Clusters/AIREBO/with-SteepDescent/Higher-Symm/SD-CG/HFTN-CG
REM
REM
REM
REM
REM
REM ./C.cell (b20cbc046b6831c77cfcea5457e17084)
REM
REM compiler GCC version 9.2.1 20190827 (Red Hat 9.2.1-1)
REM options -cpp -mtune=generic -march=x86-64 -g -O0 -fpre-include=/usr/include/finclude/math-vector-fortran.h
REM seed -1419580301 1762295440 1639103648 -1603430908 -1272959577 -507685688 1563804722 1094452798 1342366916 -665041946 -106976820 -486616721 488126996 -1608783707 329339215 1158097851 -1434505172 1402061889 -178851243 -2075236763 -598534242 -37425785 -491414596 1399920534 -1346634942 -980376207 1622447791 76559970 -146932275 -158801015 -1179692029 1379391197 -289638470
REM
CELL 1.54180   50.00000   50.00000   50.00000   90.00000   90.00000   90.00000
LATT -1
SFAC C  
C      1  0.4792110000000  0.4459940000000  0.4622950000000 1.0
C      1  0.4416980000000  0.4664940000000  0.4841090000000 1.0
C      1  0.4617190000000  0.4833050000000  0.4390960000000 1.0
C      1  0.5308830000000  0.4376210000000  0.5463920000000 1.0
C      1  0.5175000000000  0.5568640000000  0.4606090000000 1.0
C      1  0.4791110000000  0.5612780000000  0.5415990000000 1.0
C      1  0.5628450000000  0.4662890000000  0.5200630000000 1.0
C      1  0.5565730000000  0.5438090000000  0.4840350000000 1.0
C      1  0.4497010000000  0.5320390000000  0.5148330000000 1.0
C      1  0.5490570000000  0.4778670000000  0.5657880000000 1.0
C      1  0.5396340000000  0.5172380000000  0.4443080000000 1.0
C      1  0.4642690000000  0.5163290000000  0.5599160000000 1.0
C      1  0.4596570000000  0.4449550000000  0.4830410000000 1.0
C      1  0.4777960000000  0.4615130000000  0.4380560000000 1.0
C      1  0.4414610000000  0.4843830000000  0.4619680000000 1.0
C      1  0.5431270000000  0.4416660000000  0.5213180000000 1.0
C      1  0.4609790000000  0.5584030000000  0.5209010000000 1.0
C      1  0.5423540000000  0.5656500000000  0.4718140000000 1.0
C      1  0.5244430000000  0.4621260000000  0.5592910000000 1.0
C      1  0.4820090000000  0.5371960000000  0.5634130000000 1.0
C      1  0.5221330000000  0.5399870000000  0.4367720000000 1.0
C      1  0.5605660000000  0.4859750000000  0.5398950000000 1.0
C      1  0.4514800000000  0.5124250000000  0.5335970000000 1.0
C      1  0.5613230000000  0.5228160000000  0.4656220000000 1.0
C      1  0.4974580000000  0.5422880000000  0.4828270000000 1.0
C      1  0.5498290000000  0.4682120000000  0.4928080000000 1.0
C      1  0.4730140000000  0.4843970000000  0.5520470000000 1.0
C      1  0.5073120000000  0.5517610000000  0.5365430000000 1.0
C      1  0.5110900000000  0.4401380000000  0.4702220000000 1.0
C      1  0.5043290000000  0.4557450000000  0.5209320000000 1.0
C      1  0.4310830000000  0.4774980000000  0.5079920000000 1.0
C      1  0.4429900000000  0.5317420000000  0.4830560000000 1.0
C      1  0.5441930000000  0.5369650000000  0.5084600000000 1.0
C      1  0.5212390000000  0.4918380000000  0.4573220000000 1.0
C      1  0.5265320000000  0.5018230000000  0.5536840000000 1.0
C      1  0.4767370000000  0.5135130000000  0.4413410000000 1.0
C      1  0.4671970000000  0.5551880000000  0.4876070000000 1.0
C      1  0.5034740000000  0.4802600000000  0.5410330000000 1.0
C      1  0.5487600000000  0.4936730000000  0.4747610000000 1.0
C      1  0.5173510000000  0.5506480000000  0.5091280000000 1.0
C      1  0.4851420000000  0.4362750000000  0.5238810000000 1.0
C      1  0.5234840000000  0.4508790000000  0.4954330000000 1.0
C      1  0.5106120000000  0.4645320000000  0.4464390000000 1.0
C      1  0.5021820000000  0.5200190000000  0.4578260000000 1.0
C      1  0.5124640000000  0.5313060000000  0.5569700000000 1.0
C      1  0.4489450000000  0.4835990000000  0.5280450000000 1.0
C      1  0.5490250000000  0.5151770000000  0.5318440000000 1.0
C      1  0.4500350000000  0.5141840000000  0.4605460000000 1.0
C      1  0.4876940000000  0.4845150000000  0.5812410000000 1.0
C      1  0.4145300000000  0.5227650000000  0.4954420000000 1.0
C      1  0.5062540000000  0.4800280000000  0.4170380000000 1.0
C      1  0.4731250000000  0.4254850000000  0.5004570000000 1.0
C      1  0.5763930000000  0.5110900000000  0.5132210000000 1.0
C      1  0.5769450000000  0.4972860000000  0.4921280000000 1.0
C      1  0.4105420000000  0.4969110000000  0.5042270000000 1.0
C      1  0.4893190000000  0.4989070000000  0.4147610000000 1.0
C      1  0.5105140000000  0.4955240000000  0.5830140000000 1.0
C      1  0.4932760000000  0.4142090000000  0.4819630000000 1.0
C      1  0.5103940000000  0.5785570000000  0.4934470000000 1.0
C      1  0.4870100000000  0.5808360000000  0.4835850000000 1.0
END
