TITL C-2622958-629-519 -0.00401449921601545 125000 -814.856118130619 0 0 150 (C1) n - 1
REM
REM in /nfs/bkarasulu/CARBON/AIRSS/Generating-Clusters/AIREBO/with-SteepDescent/Higher-Symm/SD-CG/HFTN-CG
REM
REM
REM
REM
REM
REM ./C.cell (b20cbc046b6831c77cfcea5457e17084)
REM
REM compiler GCC version 9.2.1 20190827 (Red Hat 9.2.1-1)
REM options -cpp -mtune=generic -march=x86-64 -g -O0 -fpre-include=/usr/include/finclude/math-vector-fortran.h
REM seed 1700542465 12380120 298782710 -1630061725 307694325 2140979771 -1276155610 1083056349 -1179594946 -906496612 819621086 -2112084322 73128191 1069631649 -1188212095 1876595715 1670155003 -1362677267 626702607 -84714425 1187040007 -64752446 1567038136 1118111767 1757235124 749064448 748805948 -584788925 -193816566 1056916468 682000137 -2045076405 -417019865
REM
CELL 1.54180   50.00000   50.00000   50.00000   90.00000   90.00000   90.00000
LATT -1
SFAC C  
C      1  0.4422050000000  0.5079100000000  0.5901160000000 1.0
C      1  0.4685890000000  0.4455360000000  0.5868540000000 1.0
C      1  0.5245240000000  0.4603390000000  0.5954760000000 1.0
C      1  0.5570180000000  0.5177920000000  0.5768080000000 1.0
C      1  0.4892020000000  0.5549030000000  0.5789870000000 1.0
C      1  0.4597060000000  0.4029160000000  0.5138160000000 1.0
C      1  0.5652990000000  0.4348390000000  0.5020020000000 1.0
C      1  0.5817180000000  0.5570820000000  0.5160550000000 1.0
C      1  0.4645730000000  0.5969460000000  0.5091980000000 1.0
C      1  0.4010540000000  0.5042460000000  0.5088890000000 1.0
C      1  0.4896770000000  0.5568910000000  0.4272150000000 1.0
C      1  0.4613660000000  0.5097700000000  0.4312680000000 1.0
C      1  0.4981890000000  0.4675370000000  0.4397030000000 1.0
C      1  0.5450230000000  0.4860730000000  0.4272390000000 1.0
C      1  0.5294710000000  0.5225740000000  0.4224980000000 1.0
C      1  0.4496470000000  0.4243070000000  0.4340750000000 1.0
C      1  0.5524720000000  0.4215080000000  0.4366700000000 1.0
C      1  0.5729770000000  0.5376150000000  0.4529600000000 1.0
C      1  0.4915970000000  0.5969640000000  0.4462790000000 1.0
C      1  0.4133580000000  0.5178800000000  0.4428290000000 1.0
C      1  0.4675460000000  0.5765510000000  0.4392240000000 1.0
C      1  0.4308030000000  0.4986720000000  0.4311840000000 1.0
C      1  0.4787520000000  0.4254120000000  0.4305000000000 1.0
C      1  0.5502240000000  0.4531380000000  0.4347490000000 1.0
C      1  0.5471330000000  0.5417120000000  0.4414630000000 1.0
C      1  0.4526810000000  0.5309290000000  0.4997070000000 1.0
C      1  0.4604660000000  0.4641510000000  0.4992460000000 1.0
C      1  0.5190200000000  0.4439320000000  0.5046000000000 1.0
C      1  0.5554670000000  0.4987200000000  0.5035500000000 1.0
C      1  0.5164520000000  0.5496850000000  0.4996310000000 1.0
C      1  0.4569660000000  0.4770190000000  0.5882450000000 1.0
C      1  0.4952090000000  0.4669540000000  0.5855390000000 1.0
C      1  0.5407620000000  0.4893400000000  0.5867770000000 1.0
C      1  0.5141850000000  0.5334070000000  0.5879660000000 1.0
C      1  0.4677350000000  0.5283080000000  0.5806670000000 1.0
C      1  0.5274400000000  0.5542560000000  0.4615260000000 1.0
C      1  0.4609330000000  0.5460590000000  0.4528000000000 1.0
C      1  0.4484500000000  0.4783260000000  0.4519650000000 1.0
C      1  0.4975470000000  0.4274180000000  0.4569300000000 1.0
C      1  0.5562360000000  0.4664860000000  0.4635030000000 1.0
C      1  0.5358230000000  0.5841490000000  0.4617130000000 1.0
C      1  0.4325000000000  0.5601350000000  0.4528590000000 1.0
C      1  0.4235310000000  0.4593650000000  0.4520920000000 1.0
C      1  0.5131660000000  0.3994220000000  0.4571900000000 1.0
C      1  0.5857170000000  0.4831970000000  0.4606910000000 1.0
C      1  0.5361320000000  0.4725070000000  0.5114760000000 1.0
C      1  0.5278770000000  0.5183950000000  0.5064610000000 1.0
C      1  0.4848210000000  0.5409080000000  0.5012410000000 1.0
C      1  0.4565710000000  0.4974820000000  0.5047280000000 1.0
C      1  0.4918580000000  0.4622410000000  0.5122420000000 1.0
C      1  0.4003460000000  0.4884610000000  0.5392980000000 1.0
C      1  0.4774280000000  0.4011380000000  0.5413930000000 1.0
C      1  0.5732540000000  0.4534230000000  0.5531980000000 1.0
C      1  0.5758950000000  0.5559380000000  0.5471460000000 1.0
C      1  0.4584930000000  0.5856260000000  0.5403220000000 1.0
C      1  0.5421320000000  0.4300870000000  0.5499680000000 1.0
C      1  0.5765570000000  0.5199940000000  0.5297700000000 1.0
C      1  0.5069240000000  0.5820060000000  0.5359720000000 1.0
C      1  0.4323780000000  0.5234470000000  0.5444100000000 1.0
C      1  0.4548830000000  0.4339300000000  0.5383310000000 1.0
C      1  0.5517890000000  0.5688750000000  0.5528630000000 1.0
C      1  0.4469460000000  0.5625610000000  0.5265520000000 1.0
C      1  0.4149640000000  0.4619300000000  0.5275900000000 1.0
C      1  0.5042640000000  0.4060490000000  0.5338330000000 1.0
C      1  0.5824210000000  0.4783620000000  0.5529750000000 1.0
C      1  0.5970710000000  0.4787030000000  0.4883930000000 1.0
C      1  0.5464390000000  0.5867700000000  0.4879410000000 1.0
C      1  0.4315310000000  0.5737890000000  0.4773640000000 1.0
C      1  0.4117960000000  0.4620330000000  0.4772420000000 1.0
C      1  0.5008710000000  0.3977740000000  0.4834780000000 1.0
C      1  0.4440530000000  0.4258450000000  0.4941780000000 1.0
C      1  0.5459490000000  0.4188350000000  0.4895780000000 1.0
C      1  0.5956450000000  0.5330730000000  0.4971950000000 1.0
C      1  0.4979270000000  0.5991750000000  0.5010220000000 1.0
C      1  0.4073570000000  0.5342400000000  0.4970820000000 1.0
C      1  0.4756060000000  0.4823010000000  0.4200160000000 1.0
C      1  0.5229930000000  0.4625040000000  0.4187540000000 1.0
C      1  0.5497000000000  0.5059930000000  0.4019120000000 1.0
C      1  0.5127440000000  0.5453530000000  0.4087830000000 1.0
C      1  0.4755480000000  0.5326950000000  0.4149800000000 1.0
C      1  0.5345440000000  0.3975040000000  0.4393050000000 1.0
C      1  0.5756890000000  0.5090580000000  0.4550200000000 1.0
C      1  0.5195290000000  0.5999540000000  0.4447910000000 1.0
C      1  0.4139100000000  0.5456350000000  0.4373760000000 1.0
C      1  0.4258890000000  0.4394130000000  0.4321390000000 1.0
C      1  0.4484380000000  0.5167300000000  0.4619530000000 1.0
C      1  0.4699860000000  0.4558900000000  0.4547210000000 1.0
C      1  0.5190960000000  0.4523180000000  0.4617840000000 1.0
C      1  0.5466050000000  0.5035820000000  0.4530150000000 1.0
C      1  0.4974860000000  0.5597100000000  0.4593930000000 1.0
C      1  0.4545920000000  0.4951740000000  0.5612550000000 1.0
C      1  0.4766850000000  0.4610960000000  0.5577260000000 1.0
C      1  0.5279870000000  0.4689240000000  0.5627510000000 1.0
C      1  0.5281210000000  0.5172520000000  0.5614880000000 1.0
C      1  0.4911110000000  0.5311040000000  0.5561230000000 1.0
C      1  0.5306160000000  0.4920170000000  0.5388100000000 1.0
C      1  0.5183770000000  0.5327080000000  0.5358280000000 1.0
C      1  0.4802140000000  0.5236840000000  0.5284210000000 1.0
C      1  0.4655930000000  0.4829370000000  0.5341350000000 1.0
C      1  0.5029850000000  0.4554040000000  0.5436590000000 1.0
C      1  0.4288630000000  0.4992610000000  0.5242540000000 1.0
C      1  0.4758480000000  0.4326500000000  0.5172970000000 1.0
C      1  0.5551980000000  0.4484610000000  0.5261780000000 1.0
C      1  0.5538260000000  0.5379920000000  0.5164210000000 1.0
C      1  0.4839820000000  0.5704710000000  0.5136860000000 1.0
C      1  0.4825220000000  0.5785020000000  0.5556280000000 1.0
C      1  0.4217040000000  0.4993520000000  0.5635410000000 1.0
C      1  0.4650450000000  0.4218300000000  0.5634670000000 1.0
C      1  0.5502300000000  0.4470620000000  0.5763320000000 1.0
C      1  0.5778350000000  0.5294030000000  0.5613060000000 1.0
C      1  0.4538820000000  0.5386930000000  0.5388970000000 1.0
C      1  0.4422200000000  0.4584730000000  0.5374990000000 1.0
C      1  0.5150570000000  0.4276010000000  0.5474860000000 1.0
C      1  0.5640040000000  0.4961880000000  0.5439600000000 1.0
C      1  0.5286150000000  0.5614710000000  0.5417810000000 1.0
C      1  0.5232630000000  0.5788760000000  0.5063160000000 1.0
C      1  0.4299930000000  0.5548910000000  0.5005560000000 1.0
C      1  0.4294980000000  0.4526520000000  0.5000650000000 1.0
C      1  0.5170910000000  0.4114650000000  0.5054820000000 1.0
C      1  0.5871450000000  0.5031490000000  0.5035440000000 1.0
C      1  0.5716920000000  0.5763220000000  0.4910820000000 1.0
C      1  0.4505340000000  0.5937610000000  0.4809960000000 1.0
C      1  0.4000400000000  0.4866590000000  0.4823450000000 1.0
C      1  0.4734200000000  0.4031230000000  0.4840640000000 1.0
C      1  0.5777250000000  0.4535560000000  0.4855980000000 1.0
C      1  0.5281060000000  0.4781740000000  0.4788810000000 1.0
C      1  0.5293950000000  0.5221910000000  0.4726950000000 1.0
C      1  0.4859650000000  0.5296580000000  0.4697230000000 1.0
C      1  0.4700280000000  0.4933210000000  0.4737600000000 1.0
C      1  0.4855470000000  0.4476250000000  0.4821900000000 1.0
C      1  0.4580400000000  0.4255630000000  0.4645850000000 1.0
C      1  0.5397580000000  0.4284030000000  0.4641010000000 1.0
C      1  0.5818860000000  0.5510970000000  0.4766340000000 1.0
C      1  0.4820200000000  0.5858590000000  0.4750520000000 1.0
C      1  0.4163750000000  0.5134220000000  0.4732870000000 1.0
C      1  0.4968000000000  0.4957360000000  0.5384520000000 1.0
C      1  0.5527350000000  0.5207420000000  0.7084980000000 1.0
C      1  0.5170090000000  0.5043840000000  0.3575000000000 1.0
C      1  0.5094470000000  0.5002610000000  0.4385880000000 1.0
C      1  0.4955260000000  0.4939850000000  0.5702110000000 1.0
C      1  0.4944080000000  0.5078210000000  0.4090440000000 1.0
C      1  0.5407370000000  0.5193620000000  0.6571120000000 1.0
C      1  0.5479270000000  0.5205850000000  0.6827320000000 1.0
C      1  0.5077170000000  0.5060550000000  0.3821530000000 1.0
C      1  0.5030090000000  0.4939470000000  0.5054160000000 1.0
C      1  0.5390270000000  0.5024550000000  0.3095660000000 1.0
C      1  0.5279920000000  0.5046910000000  0.3332350000000 1.0
C      1  0.5360570000000  0.5175400000000  0.6309580000000 1.0
C      1  0.5032610000000  0.5004350000000  0.4720310000000 1.0
C      1  0.5289860000000  0.5143080000000  0.6047290000000 1.0
END
