TITL C-2622960-5345-216 0.000631045691412451 125000 -950.617795461558 0 0 175 (C1) n - 1
REM
REM in /nfs/bkarasulu/CARBON/AIRSS/Generating-Clusters/AIREBO/with-SteepDescent/Higher-Symm/SD-CG/HFTN-CG
REM
REM
REM
REM
REM
REM ./C.cell (b20cbc046b6831c77cfcea5457e17084)
REM
REM compiler GCC version 9.2.1 20190827 (Red Hat 9.2.1-1)
REM options -cpp -mtune=generic -march=x86-64 -g -O0 -fpre-include=/usr/include/finclude/math-vector-fortran.h
REM seed 1003269418 2121915923 2057837746 1807120680 741808479 -36358782 1182801975 -1911260363 1407958564 286828763 963130905 -878948591 -138229262 742128743 1155097965 1432206214 -1173561421 1927761465 -1539758122 -2068145895 -418587784 1127814995 1928537369 1379841094 1957665556 1006515455 -1083999874 921589418 -2116770576 -1345591077 -1405116707 235399394 -1431366242
REM
CELL 1.54180   50.00000   50.00000   50.00000   90.00000   90.00000   90.00000
LATT -1
SFAC C  
C      1  0.5623860000000  0.5438010000000  0.5184720000000 1.0
C      1  0.5133750000000  0.4225360000000  0.5133890000000 1.0
C      1  0.4313120000000  0.5258840000000  0.5240760000000 1.0
C      1  0.5609690000000  0.5468220000000  0.4846000000000 1.0
C      1  0.5123520000000  0.4349590000000  0.4827170000000 1.0
C      1  0.4348110000000  0.5207520000000  0.4918490000000 1.0
C      1  0.5312210000000  0.5527720000000  0.5872880000000 1.0
C      1  0.5280920000000  0.4470800000000  0.5845180000000 1.0
C      1  0.4440340000000  0.5045110000000  0.5897290000000 1.0
C      1  0.5336150000000  0.5403250000000  0.4082630000000 1.0
C      1  0.5190170000000  0.4499670000000  0.4136770000000 1.0
C      1  0.4349860000000  0.5072180000000  0.4147580000000 1.0
C      1  0.4239710000000  0.5023560000000  0.4465600000000 1.0
C      1  0.5332380000000  0.5603800000000  0.4357270000000 1.0
C      1  0.5382090000000  0.4420110000000  0.4406640000000 1.0
C      1  0.4266950000000  0.4971220000000  0.5627420000000 1.0
C      1  0.5335320000000  0.5699160000000  0.5578370000000 1.0
C      1  0.5355050000000  0.4280440000000  0.5573140000000 1.0
C      1  0.4871230000000  0.4520140000000  0.5101810000000 1.0
C      1  0.4638900000000  0.5559430000000  0.5107450000000 1.0
C      1  0.5628980000000  0.5043440000000  0.5247360000000 1.0
C      1  0.4662660000000  0.4604610000000  0.4888400000000 1.0
C      1  0.4815610000000  0.5511070000000  0.4855860000000 1.0
C      1  0.5684540000000  0.4982340000000  0.4941870000000 1.0
C      1  0.5895480000000  0.4851570000000  0.5473420000000 1.0
C      1  0.4549080000000  0.4215420000000  0.5401460000000 1.0
C      1  0.4534100000000  0.5872610000000  0.5327910000000 1.0
C      1  0.5956430000000  0.4873040000000  0.4634290000000 1.0
C      1  0.4474690000000  0.4317110000000  0.4574600000000 1.0
C      1  0.4587110000000  0.5817790000000  0.4546540000000 1.0
C      1  0.5098710000000  0.5525520000000  0.5404740000000 1.0
C      1  0.5315650000000  0.4602740000000  0.5471990000000 1.0
C      1  0.4556830000000  0.4845960000000  0.5500810000000 1.0
C      1  0.5057200000000  0.5411390000000  0.4411670000000 1.0
C      1  0.5367880000000  0.4757320000000  0.4447820000000 1.0
C      1  0.4547940000000  0.4880920000000  0.4483880000000 1.0
C      1  0.5074430000000  0.4813030000000  0.5422310000000 1.0
C      1  0.4876940000000  0.5288430000000  0.5468990000000 1.0
C      1  0.5160740000000  0.5107520000000  0.5471550000000 1.0
C      1  0.5066240000000  0.4804890000000  0.4571740000000 1.0
C      1  0.4741260000000  0.5071590000000  0.4640280000000 1.0
C      1  0.5280880000000  0.5251030000000  0.4538230000000 1.0
C      1  0.5532040000000  0.4694880000000  0.5795430000000 1.0
C      1  0.4554050000000  0.4435840000000  0.5734650000000 1.0
C      1  0.4840340000000  0.5675270000000  0.5678350000000 1.0
C      1  0.5692270000000  0.4818260000000  0.4211170000000 1.0
C      1  0.4364260000000  0.4731670000000  0.4159480000000 1.0
C      1  0.4793680000000  0.5641260000000  0.4221210000000 1.0
C      1  0.5834150000000  0.5607330000000  0.4655220000000 1.0
C      1  0.5080520000000  0.4017810000000  0.4797210000000 1.0
C      1  0.4049190000000  0.5327760000000  0.4920640000000 1.0
C      1  0.5838500000000  0.5799240000000  0.4908490000000 1.0
C      1  0.5081710000000  0.3909900000000  0.5123840000000 1.0
C      1  0.3978830000000  0.5328020000000  0.5228990000000 1.0
C      1  0.4128640000000  0.5321140000000  0.4605070000000 1.0
C      1  0.5656780000000  0.5672700000000  0.4341330000000 1.0
C      1  0.5228950000000  0.4133910000000  0.4507930000000 1.0
C      1  0.4059820000000  0.5229030000000  0.5547390000000 1.0
C      1  0.5670820000000  0.5655290000000  0.5611800000000 1.0
C      1  0.5248300000000  0.3988620000000  0.5434770000000 1.0
C      1  0.5551910000000  0.5168540000000  0.4726370000000 1.0
C      1  0.4930620000000  0.4545570000000  0.4707890000000 1.0
C      1  0.4613600000000  0.5269560000000  0.4836450000000 1.0
C      1  0.5379410000000  0.5252430000000  0.5331140000000 1.0
C      1  0.4928010000000  0.4335990000000  0.5359150000000 1.0
C      1  0.4649750000000  0.5284150000000  0.5281750000000 1.0
C      1  0.5402710000000  0.5941710000000  0.4827130000000 1.0
C      1  0.5642540000000  0.4200930000000  0.4846220000000 1.0
C      1  0.3960980000000  0.4814860000000  0.4925310000000 1.0
C      1  0.5603720000000  0.5885520000000  0.5021350000000 1.0
C      1  0.5545390000000  0.4069550000000  0.5068070000000 1.0
C      1  0.3924930000000  0.4901920000000  0.5184130000000 1.0
C      1  0.4549070000000  0.5876130000000  0.4219040000000 1.0
C      1  0.5984780000000  0.4956770000000  0.4315540000000 1.0
C      1  0.4456430000000  0.4249340000000  0.4266430000000 1.0
C      1  0.4480060000000  0.5839300000000  0.5647910000000 1.0
C      1  0.5792960000000  0.4912160000000  0.5775710000000 1.0
C      1  0.4540210000000  0.4097050000000  0.5708870000000 1.0
C      1  0.4315860000000  0.4197560000000  0.5176910000000 1.0
C      1  0.4685930000000  0.6034500000000  0.5077890000000 1.0
C      1  0.6084130000000  0.4703490000000  0.5249480000000 1.0
C      1  0.4314310000000  0.4301500000000  0.4869450000000 1.0
C      1  0.4756140000000  0.5908130000000  0.4799270000000 1.0
C      1  0.6001050000000  0.4739800000000  0.4943900000000 1.0
C      1  0.4598390000000  0.5322900000000  0.5901930000000 1.0
C      1  0.5399940000000  0.5240140000000  0.5868140000000 1.0
C      1  0.4946690000000  0.4496610000000  0.5785500000000 1.0
C      1  0.4563760000000  0.5316330000000  0.4184960000000 1.0
C      1  0.5550910000000  0.5174530000000  0.4101960000000 1.0
C      1  0.4887980000000  0.4537750000000  0.4193040000000 1.0
C      1  0.5135040000000  0.5044630000000  0.5800700000000 1.0
C      1  0.4856980000000  0.4797540000000  0.5653650000000 1.0
C      1  0.4822070000000  0.5126650000000  0.5737290000000 1.0
C      1  0.5347510000000  0.5050600000000  0.4316080000000 1.0
C      1  0.4851440000000  0.4844720000000  0.4334810000000 1.0
C      1  0.4822020000000  0.5188080000000  0.4350850000000 1.0
C      1  0.5832630000000  0.5219650000000  0.4220780000000 1.0
C      1  0.4768700000000  0.4257140000000  0.4311070000000 1.0
C      1  0.4407430000000  0.5573180000000  0.4287060000000 1.0
C      1  0.5675600000000  0.5198050000000  0.5725580000000 1.0
C      1  0.4860930000000  0.4196060000000  0.5649740000000 1.0
C      1  0.4443250000000  0.5561260000000  0.5714680000000 1.0
C      1  0.4283480000000  0.5439310000000  0.5527510000000 1.0
C      1  0.5712410000000  0.5393190000000  0.5510630000000 1.0
C      1  0.4945990000000  0.3946390000000  0.5433660000000 1.0
C      1  0.4257230000000  0.5558410000000  0.4523590000000 1.0
C      1  0.5866870000000  0.5450190000000  0.4365350000000 1.0
C      1  0.4913030000000  0.4143150000000  0.4528990000000 1.0
C      1  0.5168460000000  0.5780500000000  0.5107280000000 1.0
C      1  0.5530860000000  0.4572190000000  0.5140450000000 1.0
C      1  0.4358390000000  0.4715290000000  0.5180820000000 1.0
C      1  0.5055020000000  0.5745930000000  0.4799850000000 1.0
C      1  0.5685590000000  0.4655150000000  0.4849270000000 1.0
C      1  0.4333000000000  0.4640470000000  0.4850100000000 1.0
C      1  0.5072860000000  0.6002740000000  0.4577580000000 1.0
C      1  0.5874990000000  0.4481620000000  0.4626350000000 1.0
C      1  0.4129150000000  0.4532140000000  0.4600180000000 1.0
C      1  0.5002860000000  0.6086220000000  0.5473630000000 1.0
C      1  0.5849790000000  0.4383070000000  0.5528840000000 1.0
C      1  0.4097010000000  0.4464460000000  0.5518630000000 1.0
C      1  0.4434740000000  0.5800570000000  0.5010830000000 1.0
C      1  0.5967830000000  0.5030970000000  0.5213850000000 1.0
C      1  0.4645600000000  0.4264500000000  0.5088970000000 1.0
C      1  0.4332230000000  0.5762950000000  0.4730500000000 1.0
C      1  0.6020980000000  0.5075590000000  0.4894150000000 1.0
C      1  0.4574190000000  0.4101150000000  0.4805710000000 1.0
C      1  0.4846910000000  0.5522050000000  0.5895860000000 1.0
C      1  0.5448360000000  0.4944570000000  0.6019330000000 1.0
C      1  0.4675550000000  0.4610550000000  0.5956230000000 1.0
C      1  0.4846100000000  0.5415140000000  0.4023230000000 1.0
C      1  0.5486380000000  0.4860540000000  0.3992990000000 1.0
C      1  0.4653470000000  0.4687590000000  0.4025750000000 1.0
C      1  0.5674100000000  0.4179840000000  0.5584380000000 1.0
C      1  0.4052570000000  0.4707540000000  0.5638750000000 1.0
C      1  0.5243920000000  0.6016950000000  0.5588600000000 1.0
C      1  0.5698190000000  0.4376690000000  0.4356090000000 1.0
C      1  0.4016290000000  0.4784350000000  0.4415550000000 1.0
C      1  0.5201220000000  0.5892530000000  0.4286780000000 1.0
C      1  0.5852630000000  0.4471270000000  0.5200480000000 1.0
C      1  0.4132000000000  0.4462600000000  0.5185360000000 1.0
C      1  0.4993980000000  0.6052440000000  0.5164520000000 1.0
C      1  0.5904480000000  0.4328430000000  0.4916700000000 1.0
C      1  0.3960020000000  0.4513530000000  0.4896450000000 1.0
C      1  0.5166510000000  0.6119930000000  0.4882760000000 1.0
C      1  0.4549150000000  0.4833450000000  0.6028350000000 1.0
C      1  0.5088170000000  0.5558610000000  0.6028360000000 1.0
C      1  0.5177060000000  0.4769170000000  0.5961110000000 1.0
C      1  0.4596300000000  0.4965370000000  0.3939080000000 1.0
C      1  0.5100390000000  0.5383630000000  0.3949240000000 1.0
C      1  0.5312830000000  0.4662220000000  0.3956340000000 1.0
C      1  0.5565450000000  0.4795990000000  0.5469280000000 1.0
C      1  0.4659100000000  0.4527190000000  0.5441390000000 1.0
C      1  0.4803150000000  0.5666670000000  0.5364280000000 1.0
C      1  0.5652170000000  0.4915410000000  0.4531870000000 1.0
C      1  0.4620220000000  0.4585920000000  0.4577560000000 1.0
C      1  0.4804620000000  0.5569020000000  0.4545020000000 1.0
C      1  0.5233500000000  0.5446610000000  0.5102520000000 1.0
C      1  0.5194070000000  0.4619770000000  0.5154850000000 1.0
C      1  0.4587310000000  0.4967920000000  0.5188530000000 1.0
C      1  0.5255070000000  0.5231280000000  0.4879870000000 1.0
C      1  0.5261250000000  0.4724940000000  0.4838550000000 1.0
C      1  0.4818590000000  0.5057000000000  0.4970280000000 1.0
C      1  0.4264670000000  0.4297560000000  0.5668130000000 1.0
C      1  0.4787620000000  0.5976140000000  0.5616990000000 1.0
C      1  0.5842920000000  0.4566540000000  0.5745150000000 1.0
C      1  0.4264940000000  0.4499420000000  0.4290000000000 1.0
C      1  0.4872950000000  0.5955760000000  0.4305960000000 1.0
C      1  0.5933140000000  0.4618590000000  0.4326950000000 1.0
C      1  0.4225240000000  0.4952260000000  0.4789850000000 1.0
C      1  0.5361900000000  0.5645340000000  0.4693520000000 1.0
C      1  0.5436460000000  0.4450310000000  0.4740980000000 1.0
C      1  0.4206120000000  0.4950300000000  0.5303770000000 1.0
C      1  0.5465180000000  0.5727810000000  0.5265250000000 1.0
C      1  0.5410350000000  0.4293890000000  0.5237910000000 1.0
C      1  0.5102400000000  0.4987130000000  0.4934100000000 1.0
END
