TITL C-2622963-3633-675 -1.75426639719809e-05 125000 -943.318215492508 0 0 176 (C1) n - 1
REM
REM in /nfs/bkarasulu/CARBON/AIRSS/Generating-Clusters/AIREBO/with-SteepDescent/Higher-Symm/SD-CG/HFTN-CG
REM
REM
REM
REM
REM
REM ./C.cell (b20cbc046b6831c77cfcea5457e17084)
REM
REM compiler GCC version 9.2.1 20190827 (Red Hat 9.2.1-1)
REM options -cpp -mtune=generic -march=x86-64 -g -O0 -fpre-include=/usr/include/finclude/math-vector-fortran.h
REM seed 2047199839 -586743792 453126500 2108916912 1617623109 2113737240 -32244964 -1552943344 -128574577 -2083034707 -1028269609 498872970 1262394944 -1555065757 -801968582 -1170273484 -1779535316 1455670829 -1183504799 457419712 -1620313180 2076089868 -374003223 -69805199 -2016970633 -1381614803 -1029368613 1402888740 1270771621 347235633 627049235 867699392 -375734194
REM
CELL 1.54180   50.00000   50.00000   50.00000   90.00000   90.00000   90.00000
LATT -1
SFAC C  
C      1  0.5653590000000  0.4820570000000  0.5212200000000 1.0
C      1  0.4322410000000  0.4885060000000  0.5117100000000 1.0
C      1  0.4433450000000  0.5226470000000  0.4172610000000 1.0
C      1  0.5438630000000  0.5152760000000  0.4239500000000 1.0
C      1  0.5503630000000  0.4776820000000  0.4646200000000 1.0
C      1  0.4476370000000  0.4892710000000  0.4608270000000 1.0
C      1  0.5807980000000  0.4745050000000  0.4756020000000 1.0
C      1  0.4252640000000  0.4705940000000  0.4769020000000 1.0
C      1  0.6036770000000  0.5220200000000  0.5132100000000 1.0
C      1  0.3992140000000  0.5294780000000  0.5108750000000 1.0
C      1  0.5405440000000  0.4159880000000  0.4747950000000 1.0
C      1  0.4491320000000  0.4083920000000  0.4639130000000 1.0
C      1  0.4602990000000  0.5024830000000  0.4081990000000 1.0
C      1  0.5243910000000  0.4923760000000  0.4188160000000 1.0
C      1  0.4467130000000  0.4490270000000  0.5854040000000 1.0
C      1  0.5524690000000  0.4532130000000  0.5824960000000 1.0
C      1  0.4590350000000  0.4778680000000  0.4973850000000 1.0
C      1  0.5372150000000  0.4785100000000  0.5045700000000 1.0
C      1  0.5772070000000  0.5065790000000  0.4689130000000 1.0
C      1  0.4090160000000  0.4962560000000  0.4671630000000 1.0
C      1  0.5316380000000  0.4816820000000  0.3932540000000 1.0
C      1  0.4509100000000  0.4834310000000  0.3906110000000 1.0
C      1  0.5428100000000  0.5877780000000  0.4930760000000 1.0
C      1  0.4515450000000  0.5994260000000  0.5060450000000 1.0
C      1  0.4687850000000  0.5392970000000  0.4535560000000 1.0
C      1  0.5345650000000  0.5410540000000  0.4688500000000 1.0
C      1  0.4531640000000  0.5206640000000  0.4729230000000 1.0
C      1  0.5433590000000  0.5092490000000  0.4670350000000 1.0
C      1  0.5669230000000  0.5283830000000  0.5857540000000 1.0
C      1  0.4261250000000  0.5246150000000  0.5774130000000 1.0
C      1  0.4732110000000  0.4759160000000  0.4428110000000 1.0
C      1  0.5270020000000  0.4700480000000  0.4411200000000 1.0
C      1  0.4298910000000  0.4435400000000  0.5357830000000 1.0
C      1  0.5645910000000  0.4494920000000  0.5324240000000 1.0
C      1  0.5373180000000  0.5389140000000  0.5124220000000 1.0
C      1  0.4506920000000  0.5483670000000  0.5218700000000 1.0
C      1  0.4696360000000  0.4618640000000  0.6078790000000 1.0
C      1  0.5365780000000  0.4672650000000  0.6071250000000 1.0
C      1  0.4627690000000  0.4824100000000  0.5523010000000 1.0
C      1  0.5243500000000  0.4775240000000  0.5617060000000 1.0
C      1  0.5599260000000  0.4825020000000  0.5790960000000 1.0
C      1  0.4496330000000  0.4781350000000  0.5783500000000 1.0
C      1  0.4732200000000  0.5022180000000  0.4879670000000 1.0
C      1  0.5340960000000  0.5087930000000  0.4969640000000 1.0
C      1  0.5280400000000  0.5692080000000  0.5044090000000 1.0
C      1  0.4622770000000  0.5762080000000  0.5135800000000 1.0
C      1  0.4257880000000  0.3956780000000  0.4585490000000 1.0
C      1  0.5672590000000  0.4167670000000  0.4856050000000 1.0
C      1  0.5534640000000  0.5805980000000  0.5465330000000 1.0
C      1  0.4440360000000  0.5847770000000  0.5564030000000 1.0
C      1  0.3993370000000  0.5037520000000  0.4420840000000 1.0
C      1  0.5891810000000  0.5149980000000  0.4431890000000 1.0
C      1  0.4624780000000  0.5227820000000  0.5411840000000 1.0
C      1  0.5278590000000  0.5177150000000  0.5373250000000 1.0
C      1  0.4582040000000  0.4092910000000  0.4919320000000 1.0
C      1  0.5230680000000  0.4104940000000  0.4975760000000 1.0
C      1  0.6166000000000  0.4763100000000  0.5108390000000 1.0
C      1  0.3918780000000  0.4784870000000  0.5152680000000 1.0
C      1  0.4186240000000  0.5087850000000  0.4941280000000 1.0
C      1  0.5754510000000  0.5089260000000  0.5028170000000 1.0
C      1  0.3739060000000  0.4982060000000  0.4348590000000 1.0
C      1  0.6153620000000  0.5225040000000  0.4410920000000 1.0
C      1  0.5715820000000  0.5113520000000  0.4215050000000 1.0
C      1  0.4167410000000  0.5166970000000  0.4241250000000 1.0
C      1  0.4647720000000  0.4138620000000  0.5578450000000 1.0
C      1  0.5310550000000  0.4174720000000  0.5587860000000 1.0
C      1  0.4402730000000  0.5530140000000  0.5539090000000 1.0
C      1  0.5520730000000  0.5493730000000  0.5404700000000 1.0
C      1  0.5905830000000  0.4700040000000  0.5018670000000 1.0
C      1  0.4174340000000  0.4584390000000  0.5077740000000 1.0
C      1  0.4629400000000  0.4667700000000  0.5251720000000 1.0
C      1  0.5329090000000  0.4618300000000  0.5327840000000 1.0
C      1  0.5339340000000  0.5282640000000  0.5948880000000 1.0
C      1  0.4752440000000  0.5214730000000  0.5935210000000 1.0
C      1  0.4455390000000  0.4246740000000  0.5121900000000 1.0
C      1  0.5721010000000  0.4280580000000  0.5104500000000 1.0
C      1  0.6234530000000  0.5027470000000  0.5163710000000 1.0
C      1  0.3831650000000  0.5042040000000  0.5119580000000 1.0
C      1  0.5782720000000  0.5645530000000  0.5295760000000 1.0
C      1  0.4207510000000  0.5710630000000  0.5354670000000 1.0
C      1  0.4615820000000  0.4932890000000  0.6022310000000 1.0
C      1  0.5473150000000  0.4980590000000  0.6029460000000 1.0
C      1  0.5416390000000  0.5334690000000  0.5636820000000 1.0
C      1  0.4583610000000  0.5344760000000  0.5728920000000 1.0
C      1  0.4422020000000  0.4314720000000  0.5616340000000 1.0
C      1  0.5498660000000  0.4374680000000  0.5595590000000 1.0
C      1  0.4754860000000  0.4642380000000  0.4746650000000 1.0
C      1  0.5280320000000  0.4588320000000  0.4794550000000 1.0
C      1  0.4351770000000  0.5369860000000  0.4954970000000 1.0
C      1  0.5616470000000  0.5372820000000  0.4891180000000 1.0
C      1  0.5869110000000  0.5466960000000  0.5088340000000 1.0
C      1  0.4122720000000  0.5559420000000  0.5137340000000 1.0
C      1  0.4182270000000  0.5076910000000  0.5598520000000 1.0
C      1  0.5762190000000  0.5139450000000  0.5609110000000 1.0
C      1  0.4691450000000  0.4326370000000  0.4160400000000 1.0
C      1  0.5282050000000  0.4322040000000  0.4206470000000 1.0
C      1  0.4397530000000  0.4994700000000  0.5383170000000 1.0
C      1  0.5505150000000  0.4951500000000  0.5489650000000 1.0
C      1  0.4556490000000  0.5442050000000  0.4304570000000 1.0
C      1  0.5369600000000  0.5376230000000  0.4370700000000 1.0
C      1  0.5299130000000  0.4303750000000  0.5211780000000 1.0
C      1  0.4677490000000  0.4397580000000  0.5251220000000 1.0
C      1  0.5298170000000  0.4243660000000  0.4499700000000 1.0
C      1  0.4627360000000  0.4215890000000  0.4427630000000 1.0
C      1  0.5335790000000  0.5925270000000  0.5598550000000 1.0
C      1  0.4673310000000  0.5957350000000  0.5640800000000 1.0
C      1  0.4980950000000  0.3829800000000  0.5440630000000 1.0
C      1  0.5051580000000  0.6245630000000  0.4305550000000 1.0
C      1  0.5051890000000  0.4570790000000  0.6432640000000 1.0
C      1  0.5025840000000  0.5391110000000  0.4574060000000 1.0
C      1  0.4967380000000  0.4213790000000  0.4426490000000 1.0
C      1  0.5072170000000  0.6352890000000  0.4603460000000 1.0
C      1  0.5072720000000  0.6256670000000  0.5241460000000 1.0
C      1  0.5042090000000  0.5074520000000  0.4976570000000 1.0
C      1  0.5080770000000  0.6055670000000  0.4101820000000 1.0
C      1  0.4980390000000  0.4153060000000  0.5509220000000 1.0
C      1  0.5059270000000  0.4682910000000  0.3579090000000 1.0
C      1  0.5071250000000  0.5856640000000  0.3907260000000 1.0
C      1  0.4963100000000  0.5417000000000  0.5625640000000 1.0
C      1  0.4954060000000  0.5854000000000  0.4415560000000 1.0
C      1  0.5117390000000  0.3883020000000  0.6142820000000 1.0
C      1  0.5035010000000  0.4776970000000  0.4683080000000 1.0
C      1  0.4959140000000  0.4036230000000  0.4691510000000 1.0
C      1  0.4945520000000  0.6062840000000  0.4644890000000 1.0
C      1  0.4959490000000  0.4292780000000  0.5199950000000 1.0
C      1  0.4986230000000  0.5034480000000  0.6484440000000 1.0
C      1  0.5069450000000  0.4873440000000  0.5893390000000 1.0
C      1  0.4785680000000  0.5772630000000  0.4678880000000 1.0
C      1  0.4944960000000  0.5351780000000  0.5106910000000 1.0
C      1  0.5032150000000  0.4576220000000  0.5026740000000 1.0
C      1  0.4962540000000  0.5750290000000  0.5130870000000 1.0
C      1  0.5002170000000  0.5321800000000  0.6383520000000 1.0
C      1  0.4987660000000  0.4088970000000  0.3953310000000 1.0
C      1  0.5014880000000  0.5432960000000  0.3668830000000 1.0
C      1  0.4971080000000  0.5296960000000  0.4248770000000 1.0
C      1  0.5030310000000  0.5411520000000  0.5941110000000 1.0
C      1  0.5005150000000  0.5889090000000  0.5671340000000 1.0
C      1  0.4977060000000  0.3736680000000  0.4601920000000 1.0
C      1  0.5037750000000  0.5998500000000  0.5350880000000 1.0
C      1  0.4920110000000  0.5550140000000  0.4855600000000 1.0
C      1  0.5073710000000  0.5613000000000  0.4320820000000 1.0
C      1  0.4965740000000  0.5078210000000  0.6147720000000 1.0
C      1  0.5038300000000  0.4369480000000  0.5933850000000 1.0
C      1  0.4943430000000  0.5120760000000  0.5359810000000 1.0
C      1  0.4988230000000  0.4546440000000  0.4358610000000 1.0
C      1  0.5032990000000  0.4620010000000  0.6117170000000 1.0
C      1  0.5134360000000  0.4464080000000  0.3736250000000 1.0
C      1  0.4909790000000  0.4355640000000  0.4798610000000 1.0
C      1  0.4998250000000  0.4416470000000  0.4044270000000 1.0
C      1  0.4899420000000  0.6033480000000  0.4958730000000 1.0
C      1  0.4974370000000  0.4781370000000  0.6587010000000 1.0
C      1  0.5288680000000  0.4258680000000  0.3637750000000 1.0
C      1  0.4954630000000  0.5064080000000  0.3896840000000 1.0
C      1  0.5059990000000  0.5525190000000  0.3992600000000 1.0
C      1  0.5030920000000  0.5729750000000  0.5955970000000 1.0
C      1  0.4985520000000  0.5082710000000  0.4647960000000 1.0
C      1  0.4989710000000  0.4828670000000  0.5191880000000 1.0
C      1  0.4925920000000  0.4737490000000  0.3967760000000 1.0
C      1  0.5091700000000  0.4122140000000  0.6038600000000 1.0
C      1  0.5049140000000  0.4939440000000  0.3475070000000 1.0
C      1  0.4930540000000  0.4719770000000  0.5508500000000 1.0
C      1  0.5037610000000  0.5799400000000  0.6218540000000 1.0
C      1  0.4902350000000  0.4017590000000  0.5008530000000 1.0
C      1  0.5041910000000  0.5109860000000  0.5685060000000 1.0
C      1  0.4964250000000  0.5519470000000  0.5380550000000 1.0
C      1  0.5006760000000  0.5593740000000  0.6400620000000 1.0
C      1  0.4907570000000  0.4964000000000  0.4220720000000 1.0
C      1  0.5001050000000  0.3716930000000  0.4327080000000 1.0
C      1  0.5068220000000  0.6305220000000  0.4934280000000 1.0
C      1  0.5128180000000  0.6468120000000  0.5401360000000 1.0
C      1  0.5053000000000  0.5891490000000  0.3627660000000 1.0
C      1  0.5013750000000  0.5652260000000  0.3494470000000 1.0
C      1  0.4992320000000  0.5156470000000  0.3647410000000 1.0
C      1  0.4982410000000  0.4434190000000  0.5670310000000 1.0
C      1  0.4994970000000  0.3966720000000  0.4199730000000 1.0
C      1  0.4913810000000  0.3771260000000  0.5202780000000 1.0
END
