TITL C-2622963-3633-14 289.909809994655 125000 -1066.69732771376 0 0 195 (C1) n - 1
REM
REM in /nfs/bkarasulu/CARBON/AIRSS/Generating-Clusters/AIREBO/with-SteepDescent/Higher-Symm/SD-CG/HFTN-CG
REM
REM
REM
REM
REM
REM ./C.cell (b20cbc046b6831c77cfcea5457e17084)
REM
REM compiler GCC version 9.2.1 20190827 (Red Hat 9.2.1-1)
REM options -cpp -mtune=generic -march=x86-64 -g -O0 -fpre-include=/usr/include/finclude/math-vector-fortran.h
REM seed 1044387050 -1906835245 -6341060 -1752100878 1230971243 242899342 -1550272682 -1412369601 -1235967325 539565514 80532968 1374636451 840986267 -1287101211 1635363399 -763067630 -237969960 1077295783 1678284989 1079693214 -1972563086 -1770444525 -1400192186 -1873157323 -787443202 -166718484 -2058211814 -102355009 -273299147 -1391186301 -2102187436 413778690 -343778340
REM
CELL 1.54180   50.00000   50.00000   50.00000   90.00000   90.00000   90.00000
LATT -1
SFAC C  
C      1  0.4258900000000  0.4139740000000  0.4873350000000 1.0
C      1  0.5307750000000  0.4151520000000  0.5551800000000 1.0
C      1  0.5308680000000  0.4152290000000  0.4420780000000 1.0
C      1  0.5129250000000  0.5375040000000  0.5574330000000 1.0
C      1  0.5465010000000  0.5337400000000  0.4621480000000 1.0
C      1  0.4406370000000  0.5359950000000  0.4829790000000 1.0
C      1  0.4721640000000  0.5346660000000  0.4947230000000 1.0
C      1  0.5012100000000  0.5322770000000  0.5260110000000 1.0
C      1  0.5197440000000  0.5353160000000  0.4834450000000 1.0
C      1  0.5332390000000  0.5563080000000  0.4404460000000 1.0
C      1  0.4413710000000  0.5525230000000  0.5126890000000 1.0
C      1  0.5350330000000  0.5557450000000  0.5391030000000 1.0
C      1  0.6185220000000  0.5019710000000  0.4942930000000 1.0
C      1  0.4332760000000  0.5019940000000  0.4066530000000 1.0
C      1  0.4512320000000  0.5017850000000  0.6016550000000 1.0
C      1  0.3873260000000  0.4790890000000  0.5324810000000 1.0
C      1  0.5846950000000  0.4837940000000  0.5815900000000 1.0
C      1  0.5249560000000  0.4837540000000  0.3868280000000 1.0
C      1  0.5211840000000  0.4700940000000  0.5230660000000 1.0
C      1  0.5006230000000  0.4713460000000  0.4764630000000 1.0
C      1  0.4761130000000  0.4727420000000  0.4999880000000 1.0
C      1  0.5197690000000  0.4471340000000  0.5586740000000 1.0
C      1  0.5433600000000  0.4449000000000  0.4530200000000 1.0
C      1  0.4430650000000  0.4430180000000  0.4888920000000 1.0
C      1  0.4634550000000  0.4301720000000  0.5321880000000 1.0
C      1  0.5464050000000  0.4386260000000  0.5177310000000 1.0
C      1  0.4857330000000  0.4384980000000  0.4567900000000 1.0
C      1  0.5225380000000  0.4189310000000  0.5061000000000 1.0
C      1  0.4934270000000  0.4176130000000  0.4773280000000 1.0
C      1  0.4763640000000  0.4065820000000  0.5213970000000 1.0
C      1  0.5717840000000  0.5554740000000  0.4688130000000 1.0
C      1  0.4378950000000  0.5616790000000  0.4608580000000 1.0
C      1  0.4969110000000  0.5634940000000  0.5724360000000 1.0
C      1  0.5354200000000  0.5237710000000  0.5790850000000 1.0
C      1  0.5513390000000  0.5197260000000  0.4315330000000 1.0
C      1  0.4114790000000  0.5209660000000  0.4920560000000 1.0
C      1  0.6164280000000  0.4775940000000  0.4718880000000 1.0
C      1  0.4176370000000  0.4738430000000  0.4147640000000 1.0
C      1  0.4670730000000  0.4743980000000  0.6107110000000 1.0
C      1  0.4176110000000  0.5491740000000  0.4365970000000 1.0
C      1  0.4862580000000  0.5499330000000  0.6023200000000 1.0
C      1  0.6018440000000  0.5436850000000  0.4634140000000 1.0
C      1  0.5231540000000  0.4118980000000  0.4728340000000 1.0
C      1  0.4715750000000  0.4009590000000  0.4940480000000 1.0
C      1  0.5088840000000  0.4073470000000  0.5303280000000 1.0
C      1  0.4991220000000  0.5715450000000  0.4146990000000 1.0
C      1  0.4298650000000  0.5710030000000  0.5458350000000 1.0
C      1  0.5713020000000  0.5720680000000  0.5353250000000 1.0
C      1  0.6003550000000  0.5141420000000  0.4712320000000 1.0
C      1  0.4252000000000  0.5206710000000  0.4319000000000 1.0
C      1  0.4761160000000  0.5222040000000  0.5967800000000 1.0
C      1  0.5152490000000  0.4993480000000  0.6137370000000 1.0
C      1  0.5890290000000  0.4986000000000  0.4264030000000 1.0
C      1  0.3923190000000  0.4969870000000  0.4577620000000 1.0
C      1  0.4646560000000  0.5239590000000  0.4295770000000 1.0
C      1  0.4546130000000  0.5249380000000  0.5591010000000 1.0
C      1  0.5759040000000  0.5232510000000  0.5117520000000 1.0
C      1  0.4096660000000  0.4337590000000  0.5084480000000 1.0
C      1  0.5540730000000  0.4330120000000  0.5723710000000 1.0
C      1  0.5343220000000  0.4350140000000  0.4155670000000 1.0
C      1  0.4679570000000  0.5590790000000  0.4483550000000 1.0
C      1  0.4689430000000  0.5629060000000  0.5554170000000 1.0
C      1  0.5670680000000  0.5630310000000  0.4966290000000 1.0
C      1  0.5002450000000  0.6150800000000  0.5192440000000 1.0
C      1  0.5213290000000  0.6165360000000  0.4924630000000 1.0
C      1  0.4899860000000  0.6088520000000  0.4874320000000 1.0
C      1  0.4743200000000  0.5529420000000  0.5233220000000 1.0
C      1  0.5346790000000  0.5575760000000  0.5049330000000 1.0
C      1  0.4899750000000  0.5451220000000  0.4702180000000 1.0
C      1  0.4833240000000  0.3873560000000  0.5726690000000 1.0
C      1  0.5695460000000  0.3894490000000  0.4922420000000 1.0
C      1  0.4499810000000  0.3859210000000  0.4489440000000 1.0
C      1  0.4531890000000  0.4608020000000  0.5227560000000 1.0
C      1  0.5520840000000  0.4646080000000  0.5339380000000 1.0
C      1  0.5009700000000  0.4638020000000  0.4451700000000 1.0
C      1  0.4073570000000  0.4321400000000  0.4570070000000 1.0
C      1  0.5097430000000  0.4386140000000  0.5980990000000 1.0
C      1  0.5817990000000  0.4438500000000  0.4420390000000 1.0
C      1  0.5635280000000  0.4186240000000  0.4415290000000 1.0
C      1  0.4082110000000  0.4031770000000  0.4603720000000 1.0
C      1  0.5189330000000  0.4136180000000  0.5862820000000 1.0
C      1  0.6136710000000  0.5049590000000  0.5212150000000 1.0
C      1  0.4588500000000  0.5046700000000  0.3951120000000 1.0
C      1  0.4286580000000  0.5037210000000  0.5855770000000 1.0
C      1  0.5020140000000  0.5311250000000  0.3970730000000 1.0
C      1  0.4026320000000  0.5269180000000  0.5522050000000 1.0
C      1  0.5908710000000  0.5309340000000  0.5554210000000 1.0
C      1  0.5033700000000  0.5232520000000  0.4478900000000 1.0
C      1  0.4473210000000  0.5158080000000  0.5271710000000 1.0
C      1  0.5479490000000  0.5185440000000  0.5305260000000 1.0
C      1  0.4567230000000  0.4373320000000  0.4511500000000 1.0
C      1  0.4885840000000  0.4408080000000  0.5517310000000 1.0
C      1  0.5474120000000  0.4416300000000  0.4846060000000 1.0
C      1  0.5325610000000  0.4723610000000  0.4359510000000 1.0
C      1  0.4274290000000  0.4699820000000  0.5025270000000 1.0
C      1  0.5397520000000  0.4741670000000  0.5638690000000 1.0
C      1  0.5673410000000  0.5134550000000  0.4797920000000 1.0
C      1  0.4471210000000  0.5147570000000  0.4572250000000 1.0
C      1  0.4872060000000  0.5166240000000  0.5651220000000 1.0
C      1  0.5253850000000  0.4768900000000  0.5946690000000 1.0
C      1  0.5658110000000  0.4786810000000  0.4315680000000 1.0
C      1  0.4057870000000  0.4757600000000  0.4767920000000 1.0
C      1  0.4872890000000  0.4992490000000  0.6166510000000 1.0
C      1  0.6088280000000  0.4963400000000  0.4459510000000 1.0
C      1  0.4031470000000  0.4975960000000  0.4315670000000 1.0
C      1  0.5193290000000  0.5556140000000  0.5967980000000 1.0
C      1  0.5844040000000  0.5536430000000  0.4366860000000 1.0
C      1  0.4059610000000  0.5528290000000  0.4685500000000 1.0
C      1  0.5505550000000  0.5920740000000  0.5302320000000 1.0
C      1  0.5009490000000  0.5909320000000  0.4355370000000 1.0
C      1  0.4478350000000  0.5881290000000  0.5328590000000 1.0
C      1  0.4244800000000  0.4796970000000  0.5658650000000 1.0
C      1  0.5986550000000  0.4808320000000  0.5338470000000 1.0
C      1  0.4772570000000  0.4807510000000  0.4018230000000 1.0
C      1  0.5768350000000  0.4886520000000  0.5096830000000 1.0
C      1  0.4666300000000  0.4898200000000  0.4328220000000 1.0
C      1  0.4555940000000  0.4904380000000  0.5592100000000 1.0
C      1  0.4187900000000  0.5280180000000  0.5764060000000 1.0
C      1  0.6089810000000  0.5296570000000  0.5331460000000 1.0
C      1  0.4729780000000  0.5286470000000  0.3909850000000 1.0
C      1  0.5541740000000  0.6009150000000  0.4544840000000 1.0
C      1  0.4406210000000  0.5893150000000  0.4809870000000 1.0
C      1  0.5118440000000  0.5937330000000  0.5680830000000 1.0
C      1  0.4518490000000  0.4101330000000  0.4678850000000 1.0
C      1  0.4906560000000  0.4075850000000  0.5586900000000 1.0
C      1  0.5542210000000  0.4083090000000  0.4844450000000 1.0
C      1  0.4542130000000  0.4412300000000  0.5778250000000 1.0
C      1  0.5946950000000  0.4435070000000  0.4997600000000 1.0
C      1  0.4513150000000  0.4394100000000  0.4183230000000 1.0
C      1  0.5148610000000  0.4483990000000  0.4908130000000 1.0
C      1  0.4761320000000  0.4403610000000  0.4957770000000 1.0
C      1  0.4984390000000  0.4472600000000  0.5205630000000 1.0
C      1  0.4809220000000  0.4530150000000  0.4198910000000 1.0
C      1  0.4406950000000  0.4538380000000  0.5536360000000 1.0
C      1  0.5828240000000  0.4525470000000  0.5258150000000 1.0
C      1  0.4913030000000  0.5823760000000  0.5218760000000 1.0
C      1  0.5186060000000  0.5810410000000  0.4860960000000 1.0
C      1  0.4872250000000  0.5752050000000  0.4833920000000 1.0
C      1  0.5253100000000  0.5006750000000  0.5482190000000 1.0
C      1  0.5265670000000  0.4995620000000  0.4554640000000 1.0
C      1  0.4444270000000  0.4990340000000  0.4977060000000 1.0
C      1  0.4161010000000  0.4410980000000  0.5337770000000 1.0
C      1  0.5754130000000  0.4422920000000  0.5574480000000 1.0
C      1  0.5099740000000  0.4426420000000  0.4054200000000 1.0
C      1  0.4213800000000  0.4473650000000  0.4357630000000 1.0
C      1  0.4834290000000  0.4508360000000  0.5924490000000 1.0
C      1  0.5907100000000  0.4557370000000  0.4682070000000 1.0
C      1  0.4409990000000  0.5511250000000  0.5707970000000 1.0
C      1  0.5903470000000  0.5513190000000  0.5160760000000 1.0
C      1  0.4722880000000  0.5514020000000  0.4155150000000 1.0
C      1  0.5259880000000  0.5243390000000  0.6072060000000 1.0
C      1  0.5784770000000  0.5252110000000  0.4235380000000 1.0
C      1  0.3913910000000  0.5222740000000  0.4704180000000 1.0
C      1  0.5565420000000  0.5012310000000  0.5757970000000 1.0
C      1  0.5357500000000  0.4990020000000  0.4150460000000 1.0
C      1  0.4071360000000  0.4958310000000  0.5113490000000 1.0
C      1  0.5036070000000  0.4888690000000  0.5715810000000 1.0
C      1  0.5577140000000  0.4878150000000  0.4623870000000 1.0
C      1  0.4352630000000  0.4867680000000  0.4673460000000 1.0
C      1  0.5601990000000  0.5922270000000  0.5026400000000 1.0
C      1  0.4754490000000  0.5898750000000  0.4470510000000 1.0
C      1  0.4671670000000  0.5972550000000  0.5527070000000 1.0
C      1  0.4184050000000  0.5684930000000  0.4947630000000 1.0
C      1  0.5361110000000  0.5700970000000  0.5710060000000 1.0
C      1  0.5595240000000  0.5755500000000  0.4368310000000 1.0
C      1  0.4249420000000  0.5390190000000  0.5363300000000 1.0
C      1  0.5652730000000  0.5416260000000  0.5456120000000 1.0
C      1  0.5101720000000  0.5424890000000  0.4243090000000 1.0
C      1  0.5252690000000  0.5848000000000  0.4547410000000 1.0
C      1  0.4623620000000  0.5858860000000  0.5043560000000 1.0
C      1  0.5198260000000  0.5856380000000  0.5376440000000 1.0
C      1  0.4789990000000  0.4701140000000  0.5658230000000 1.0
C      1  0.5669660000000  0.4685740000000  0.4856470000000 1.0
C      1  0.4461360000000  0.4689740000000  0.4444920000000 1.0
C      1  0.5209450000000  0.5137870000000  0.3887910000000 1.0
C      1  0.3891330000000  0.5090800000000  0.5374220000000 1.0
C      1  0.5873340000000  0.5140350000000  0.5761090000000 1.0
C      1  0.4469830000000  0.4478980000000  0.6075240000000 1.0
C      1  0.6234030000000  0.4496810000000  0.4895490000000 1.0
C      1  0.4297280000000  0.4479550000000  0.3971290000000 1.0
C      1  0.5046880000000  0.5047900000000  0.4832810000000 1.0
C      1  0.4768100000000  0.5045820000000  0.5027590000000 1.0
C      1  0.5145770000000  0.5026410000000  0.5157540000000 1.0
C      1  0.4023330000000  0.4629230000000  0.5489430000000 1.0
C      1  0.5924510000000  0.4664920000000  0.5617920000000 1.0
C      1  0.5036240000000  0.4670480000000  0.3903370000000 1.0
C      1  0.4654480000000  0.6050700000000  0.4684540000000 1.0
C      1  0.4915540000000  0.6107600000000  0.5499880000000 1.0
C      1  0.5485620000000  0.6073020000000  0.4831600000000 1.0
C      1  0.5456330000000  0.4998980000000  0.5021880000000 1.0
C      1  0.4795490000000  0.5049910000000  0.4603790000000 1.0
C      1  0.4772970000000  0.5023370000000  0.5358940000000 1.0
C      1  0.4026820000000  0.4458150000000  0.4809410000000 1.0
C      1  0.5399120000000  0.4469560000000  0.5931420000000 1.0
C      1  0.5595460000000  0.4494540000000  0.4169140000000 1.0
END
