TITL C-2622954-8726-429 0.00149950699217653 125000 -802.737492106569 0 0 153 (C1) n - 1
REM
REM in /nfs/bkarasulu/CARBON/AIRSS/Generating-Clusters/AIREBO/with-SteepDescent/Higher-Symm/SD-CG/HFTN-CG
REM
REM
REM
REM
REM
REM ./C.cell (b20cbc046b6831c77cfcea5457e17084)
REM
REM compiler GCC version 9.2.1 20190827 (Red Hat 9.2.1-1)
REM options -cpp -mtune=generic -march=x86-64 -g -O0 -fpre-include=/usr/include/finclude/math-vector-fortran.h
REM seed -1560861337 -1908581761 1492497330 -289079791 -1927678364 1978974833 -386773497 -642627126 -286842809 207371249 -143644549 33252156 989124461 566049195 -1615407705 1992943159 939578373 -2004445285 -822974039 -185928567 -388567997 -1423115485 -688762598 -1276326723 -1537938988 -938404091 -676955566 1487062600 -1145231774 -379538835 -1228204758 -1852589542 1848950430
REM
CELL 1.54180   50.00000   50.00000   50.00000   90.00000   90.00000   90.00000
LATT -1
SFAC C  
C      1  0.4330500000000  0.4839440000000  0.4621280000000 1.0
C      1  0.4794970000000  0.4638830000000  0.4193640000000 1.0
C      1  0.4687880000000  0.4302910000000  0.4799350000000 1.0
C      1  0.5786980000000  0.5147360000000  0.4610030000000 1.0
C      1  0.4203590000000  0.5166180000000  0.5405610000000 1.0
C      1  0.5674650000000  0.4819470000000  0.5493270000000 1.0
C      1  0.5132970000000  0.5367650000000  0.4251780000000 1.0
C      1  0.4809710000000  0.5459050000000  0.5790320000000 1.0
C      1  0.5152410000000  0.4668520000000  0.5737230000000 1.0
C      1  0.5521700000000  0.5750850000000  0.4798940000000 1.0
C      1  0.4525600000000  0.5811650000000  0.5152560000000 1.0
C      1  0.5396940000000  0.4254110000000  0.5080550000000 1.0
C      1  0.4233560000000  0.4847750000000  0.5507140000000 1.0
C      1  0.4862630000000  0.4567120000000  0.5873510000000 1.0
C      1  0.4648640000000  0.4325640000000  0.5219750000000 1.0
C      1  0.5774160000000  0.5117050000000  0.5495390000000 1.0
C      1  0.4162150000000  0.5121860000000  0.4553130000000 1.0
C      1  0.6009140000000  0.4914890000000  0.4651850000000 1.0
C      1  0.5097470000000  0.5327590000000  0.5679840000000 1.0
C      1  0.4836290000000  0.5486550000000  0.4135600000000 1.0
C      1  0.5195450000000  0.4582410000000  0.4288370000000 1.0
C      1  0.5413570000000  0.5661580000000  0.5086410000000 1.0
C      1  0.4568780000000  0.5715890000000  0.4843810000000 1.0
C      1  0.5303530000000  0.4312370000000  0.4758740000000 1.0
C      1  0.4407160000000  0.4454570000000  0.4753220000000 1.0
C      1  0.4467530000000  0.4818860000000  0.4332700000000 1.0
C      1  0.4807420000000  0.4385710000000  0.4390950000000 1.0
C      1  0.5610960000000  0.5429360000000  0.4830510000000 1.0
C      1  0.4442290000000  0.5482060000000  0.5140180000000 1.0
C      1  0.5543830000000  0.4504350000000  0.5210270000000 1.0
C      1  0.5567300000000  0.5169330000000  0.4366240000000 1.0
C      1  0.4421530000000  0.5295100000000  0.5602680000000 1.0
C      1  0.5549210000000  0.4710340000000  0.5761630000000 1.0
C      1  0.5165890000000  0.5573730000000  0.4520220000000 1.0
C      1  0.4862510000000  0.5577320000000  0.5475870000000 1.0
C      1  0.5193180000000  0.4293280000000  0.5606870000000 1.0
C      1  0.4440010000000  0.4517460000000  0.5085790000000 1.0
C      1  0.4522730000000  0.4790190000000  0.5609040000000 1.0
C      1  0.4875050000000  0.4402310000000  0.5576300000000 1.0
C      1  0.5644870000000  0.5638850000000  0.5320850000000 1.0
C      1  0.4360230000000  0.5467630000000  0.4807630000000 1.0
C      1  0.5576150000000  0.4454680000000  0.4658750000000 1.0
C      1  0.5518290000000  0.5243250000000  0.5595550000000 1.0
C      1  0.4470730000000  0.5150490000000  0.4413220000000 1.0
C      1  0.5477890000000  0.4867370000000  0.4315290000000 1.0
C      1  0.5194360000000  0.5631890000000  0.5588100000000 1.0
C      1  0.4826690000000  0.5579180000000  0.4444830000000 1.0
C      1  0.5128050000000  0.4341920000000  0.4468930000000 1.0
C      1  0.4836240000000  0.5952450000000  0.5134620000000 1.0
C      1  0.6052710000000  0.5134230000000  0.4907970000000 1.0
C      1  0.5125610000000  0.4874330000000  0.5994830000000 1.0
C      1  0.5121590000000  0.4056840000000  0.5129420000000 1.0
C      1  0.4880540000000  0.4035400000000  0.4815180000000 1.0
C      1  0.5218670000000  0.5904440000000  0.4815720000000 1.0
C      1  0.3922060000000  0.4720560000000  0.4922700000000 1.0
C      1  0.6046690000000  0.4812000000000  0.5142630000000 1.0
C      1  0.3966910000000  0.5157180000000  0.5161590000000 1.0
C      1  0.4853280000000  0.5161060000000  0.5948330000000 1.0
C      1  0.5101580000000  0.5161660000000  0.4009420000000 1.0
C      1  0.4861060000000  0.4851080000000  0.3947880000000 1.0
C      1  0.4912470000000  0.6050540000000  0.4838370000000 1.0
C      1  0.5932920000000  0.5125830000000  0.5208000000000 1.0
C      1  0.5170890000000  0.4836930000000  0.4054250000000 1.0
C      1  0.5180340000000  0.3907130000000  0.4836580000000 1.0
C      1  0.4781210000000  0.4040360000000  0.5123230000000 1.0
C      1  0.5176570000000  0.5980900000000  0.5125890000000 1.0
C      1  0.4077810000000  0.4849280000000  0.5197590000000 1.0
C      1  0.6251280000000  0.4867640000000  0.4886380000000 1.0
C      1  0.4023750000000  0.5037230000000  0.4852100000000 1.0
C      1  0.4790840000000  0.5184510000000  0.3948230000000 1.0
C      1  0.5187970000000  0.5207760000000  0.5969090000000 1.0
C      1  0.4821430000000  0.4851210000000  0.6074320000000 1.0
C      1  0.4610410000000  0.5895940000000  0.4629280000000 1.0
C      1  0.5906270000000  0.4655290000000  0.4568800000000 1.0
C      1  0.4553820000000  0.4589170000000  0.5952810000000 1.0
C      1  0.5446880000000  0.4016880000000  0.4655760000000 1.0
C      1  0.4556390000000  0.4173680000000  0.5510380000000 1.0
C      1  0.5412330000000  0.5879530000000  0.5347200000000 1.0
C      1  0.3936290000000  0.5346550000000  0.4549560000000 1.0
C      1  0.6018560000000  0.5332830000000  0.5532030000000 1.0
C      1  0.4076080000000  0.4581290000000  0.5490850000000 1.0
C      1  0.5607050000000  0.5513830000000  0.5874520000000 1.0
C      1  0.4560250000000  0.5504300000000  0.3997680000000 1.0
C      1  0.5433750000000  0.4542240000000  0.4088200000000 1.0
C      1  0.4458020000000  0.5926360000000  0.5450860000000 1.0
C      1  0.5900330000000  0.4647910000000  0.5389380000000 1.0
C      1  0.4567930000000  0.4580440000000  0.3958700000000 1.0
C      1  0.5480390000000  0.4012500000000  0.5285510000000 1.0
C      1  0.4530050000000  0.4051690000000  0.4631480000000 1.0
C      1  0.5524870000000  0.5942130000000  0.4562810000000 1.0
C      1  0.4009770000000  0.5444820000000  0.5470200000000 1.0
C      1  0.5955020000000  0.5406240000000  0.4632620000000 1.0
C      1  0.4086380000000  0.4662480000000  0.4643770000000 1.0
C      1  0.5416880000000  0.5478620000000  0.4119230000000 1.0
C      1  0.4621490000000  0.5444570000000  0.6057150000000 1.0
C      1  0.5380700000000  0.4436500000000  0.5836020000000 1.0
C      1  0.4556110000000  0.4830860000000  0.5148460000000 1.0
C      1  0.4754730000000  0.5067790000000  0.4573550000000 1.0
C      1  0.5151580000000  0.4595230000000  0.4870790000000 1.0
C      1  0.5365110000000  0.5126390000000  0.5127680000000 1.0
C      1  0.4642760000000  0.5137270000000  0.4887400000000 1.0
C      1  0.5293360000000  0.4858110000000  0.4744710000000 1.0
C      1  0.5166420000000  0.4879660000000  0.4451110000000 1.0
C      1  0.4766460000000  0.4888290000000  0.5402710000000 1.0
C      1  0.5237140000000  0.5127720000000  0.5442860000000 1.0
C      1  0.4750420000000  0.5439500000000  0.4890020000000 1.0
C      1  0.5240890000000  0.5426510000000  0.5063910000000 1.0
C      1  0.4899990000000  0.4522930000000  0.5274230000000 1.0
C      1  0.4574250000000  0.4811450000000  0.4818250000000 1.0
C      1  0.4926510000000  0.5156590000000  0.5314470000000 1.0
C      1  0.5168650000000  0.4638400000000  0.5181320000000 1.0
C      1  0.5518330000000  0.5102250000000  0.4818610000000 1.0
C      1  0.4437300000000  0.5142440000000  0.5159700000000 1.0
C      1  0.5441400000000  0.4824140000000  0.5263610000000 1.0
C      1  0.5093680000000  0.4816290000000  0.5461400000000 1.0
C      1  0.4847360000000  0.4768320000000  0.4498090000000 1.0
C      1  0.5052120000000  0.5190920000000  0.4526400000000 1.0
C      1  0.4928890000000  0.5442180000000  0.5170420000000 1.0
C      1  0.5056930000000  0.5401000000000  0.4793830000000 1.0
C      1  0.4828930000000  0.4591180000000  0.4763210000000 1.0
C      1  0.4919900000000  0.5885190000000  0.4550720000000 1.0
C      1  0.5844200000000  0.4451050000000  0.4801370000000 1.0
C      1  0.4541670000000  0.4916100000000  0.5899130000000 1.0
C      1  0.5138220000000  0.4005010000000  0.4513650000000 1.0
C      1  0.4878680000000  0.4088850000000  0.5444520000000 1.0
C      1  0.5087460000000  0.5906420000000  0.5445440000000 1.0
C      1  0.4055910000000  0.5377150000000  0.4840390000000 1.0
C      1  0.5881520000000  0.5467180000000  0.5269680000000 1.0
C      1  0.4123110000000  0.4512300000000  0.5197170000000 1.0
C      1  0.5503840000000  0.5207530000000  0.5915820000000 1.0
C      1  0.4478800000000  0.5215800000000  0.4079650000000 1.0
C      1  0.5502080000000  0.4836870000000  0.3977350000000 1.0
C      1  0.4768450000000  0.5895500000000  0.5454720000000 1.0
C      1  0.5840030000000  0.4549260000000  0.5076160000000 1.0
C      1  0.4533550000000  0.4892770000000  0.4030970000000 1.0
C      1  0.5208150000000  0.4008610000000  0.5454680000000 1.0
C      1  0.4817070000000  0.4092110000000  0.4486670000000 1.0
C      1  0.5235200000000  0.5903280000000  0.4472990000000 1.0
C      1  0.4103410000000  0.5468570000000  0.5164430000000 1.0
C      1  0.5906070000000  0.5427230000000  0.4951230000000 1.0
C      1  0.4106570000000  0.4428810000000  0.4883850000000 1.0
C      1  0.5439680000000  0.5160860000000  0.4051180000000 1.0
C      1  0.4499100000000  0.5217080000000  0.5865590000000 1.0
C      1  0.5446920000000  0.4906430000000  0.5960620000000 1.0
C      1  0.5463730000000  0.5411590000000  0.4546740000000 1.0
C      1  0.5457090000000  0.4485570000000  0.5509420000000 1.0
C      1  0.4566300000000  0.5446780000000  0.5442040000000 1.0
C      1  0.4551810000000  0.5453170000000  0.4543260000000 1.0
C      1  0.4542060000000  0.4489120000000  0.5566100000000 1.0
C      1  0.5629330000000  0.4653010000000  0.4444320000000 1.0
C      1  0.4529010000000  0.4528370000000  0.4469650000000 1.0
C      1  0.5497020000000  0.5573180000000  0.5589990000000 1.0
C      1  0.5130880000000  0.4979280000000  0.4977030000000 1.0
END
