TITL C-2622957-9142-296 0.00334532596801111 125000 -762.779330785107 0 0 138 (C1) n - 1
REM
REM in /nfs/bkarasulu/CARBON/AIRSS/Generating-Clusters/AIREBO/with-SteepDescent/Higher-Symm/SD-CG/HFTN-CG
REM
REM
REM
REM
REM
REM ./C.cell (b20cbc046b6831c77cfcea5457e17084)
REM
REM compiler GCC version 9.2.1 20190827 (Red Hat 9.2.1-1)
REM options -cpp -mtune=generic -march=x86-64 -g -O0 -fpre-include=/usr/include/finclude/math-vector-fortran.h
REM seed -96032426 61179604 -1443520296 -1733478794 -1650044116 1890670285 -1426063147 -1571008105 1354771376 2031487048 -1624428983 1515888998 724453516 -848671968 -1587349248 -862196810 -1497644614 -709972668 -792830419 -1360856258 1683893256 -1882898408 -720438221 -1874922908 -2112467010 -1030771666 -536184825 773103145 -1963683145 -625245535 461761652 -285586283 439067866
REM
CELL 1.54180   50.00000   50.00000   50.00000   90.00000   90.00000   90.00000
LATT -1
SFAC C  
C      1  0.4865620000000  0.4353840000000  0.4284170000000 1.0
C      1  0.4482150000000  0.4605630000000  0.4376270000000 1.0
C      1  0.4577120000000  0.5350320000000  0.4358830000000 1.0
C      1  0.5270020000000  0.5666300000000  0.4284780000000 1.0
C      1  0.5684130000000  0.4978780000000  0.4278520000000 1.0
C      1  0.4971520000000  0.5811900000000  0.5691040000000 1.0
C      1  0.4439110000000  0.5323550000000  0.5759600000000 1.0
C      1  0.4478030000000  0.4519820000000  0.5711380000000 1.0
C      1  0.5305650000000  0.4481370000000  0.5624340000000 1.0
C      1  0.5810610000000  0.5253630000000  0.5694330000000 1.0
C      1  0.5202710000000  0.4786920000000  0.4510680000000 1.0
C      1  0.4989030000000  0.4654430000000  0.4696530000000 1.0
C      1  0.4745290000000  0.5063430000000  0.4628290000000 1.0
C      1  0.4891930000000  0.5345510000000  0.4604720000000 1.0
C      1  0.5295110000000  0.5070890000000  0.4660420000000 1.0
C      1  0.5162120000000  0.5229450000000  0.5568660000000 1.0
C      1  0.4948210000000  0.5390430000000  0.5358850000000 1.0
C      1  0.4707730000000  0.4913150000000  0.5426510000000 1.0
C      1  0.4944140000000  0.4728330000000  0.5493360000000 1.0
C      1  0.5199300000000  0.4798420000000  0.5359150000000 1.0
C      1  0.5524590000000  0.5342830000000  0.5769560000000 1.0
C      1  0.5452540000000  0.4677730000000  0.5763470000000 1.0
C      1  0.4351280000000  0.4360610000000  0.5865860000000 1.0
C      1  0.4491400000000  0.5014080000000  0.5849900000000 1.0
C      1  0.4749580000000  0.5689380000000  0.5807230000000 1.0
C      1  0.5457490000000  0.4776310000000  0.4125860000000 1.0
C      1  0.5361620000000  0.5544220000000  0.4050220000000 1.0
C      1  0.4754120000000  0.5613550000000  0.4213420000000 1.0
C      1  0.4458830000000  0.4906810000000  0.4219810000000 1.0
C      1  0.4641140000000  0.4177530000000  0.4261390000000 1.0
C      1  0.5358560000000  0.5140550000000  0.5905080000000 1.0
C      1  0.5284180000000  0.4864000000000  0.5902200000000 1.0
C      1  0.5007830000000  0.4758580000000  0.5907550000000 1.0
C      1  0.4789660000000  0.4928920000000  0.5951810000000 1.0
C      1  0.4831080000000  0.5481920000000  0.5976180000000 1.0
C      1  0.5259470000000  0.4950480000000  0.3988770000000 1.0
C      1  0.5320350000000  0.5257780000000  0.4042590000000 1.0
C      1  0.4915300000000  0.5355150000000  0.4154840000000 1.0
C      1  0.4623200000000  0.4924780000000  0.3991870000000 1.0
C      1  0.4948130000000  0.4889700000000  0.3898020000000 1.0
C      1  0.5229730000000  0.5816190000000  0.5293810000000 1.0
C      1  0.5955670000000  0.5045840000000  0.5192270000000 1.0
C      1  0.5519620000000  0.4386350000000  0.5122230000000 1.0
C      1  0.4505800000000  0.4561560000000  0.5218660000000 1.0
C      1  0.4350410000000  0.5353300000000  0.5206230000000 1.0
C      1  0.5157220000000  0.4141310000000  0.4616200000000 1.0
C      1  0.5716400000000  0.5012320000000  0.4793720000000 1.0
C      1  0.5247730000000  0.5660970000000  0.4928810000000 1.0
C      1  0.4432890000000  0.5594460000000  0.4814180000000 1.0
C      1  0.4350040000000  0.4583930000000  0.4852120000000 1.0
C      1  0.4792770000000  0.4710290000000  0.4450290000000 1.0
C      1  0.4797810000000  0.5096560000000  0.4307900000000 1.0
C      1  0.5125840000000  0.5309360000000  0.4387790000000 1.0
C      1  0.5393210000000  0.5125270000000  0.4343610000000 1.0
C      1  0.5116770000000  0.4553340000000  0.4279000000000 1.0
C      1  0.4747190000000  0.5200070000000  0.5538960000000 1.0
C      1  0.4455880000000  0.4820810000000  0.5611030000000 1.0
C      1  0.4995230000000  0.4481180000000  0.5711330000000 1.0
C      1  0.5375180000000  0.4993500000000  0.5533730000000 1.0
C      1  0.5118980000000  0.5339630000000  0.5887440000000 1.0
C      1  0.5838200000000  0.4538190000000  0.4781120000000 1.0
C      1  0.4768230000000  0.3948280000000  0.4725790000000 1.0
C      1  0.3811570000000  0.5031270000000  0.4498880000000 1.0
C      1  0.4468890000000  0.6028630000000  0.4639550000000 1.0
C      1  0.5718870000000  0.5622800000000  0.4785350000000 1.0
C      1  0.6006940000000  0.5518990000000  0.5243650000000 1.0
C      1  0.4757070000000  0.5898840000000  0.5192060000000 1.0
C      1  0.3873660000000  0.5276200000000  0.5337850000000 1.0
C      1  0.4606350000000  0.4093920000000  0.5178010000000 1.0
C      1  0.5964040000000  0.4436770000000  0.5374910000000 1.0
C      1  0.4993520000000  0.5247120000000  0.5053750000000 1.0
C      1  0.5456490000000  0.5080120000000  0.5155350000000 1.0
C      1  0.5286500000000  0.4524240000000  0.4929470000000 1.0
C      1  0.4752050000000  0.4622050000000  0.5018300000000 1.0
C      1  0.4678250000000  0.4912450000000  0.5128140000000 1.0
C      1  0.5043630000000  0.4747190000000  0.4994360000000 1.0
C      1  0.5442820000000  0.4811640000000  0.4827960000000 1.0
C      1  0.5171720000000  0.5361260000000  0.4787370000000 1.0
C      1  0.4697440000000  0.5159730000000  0.4930050000000 1.0
C      1  0.5164640000000  0.5002980000000  0.5110780000000 1.0
C      1  0.4396810000000  0.4267380000000  0.5205710000000 1.0
C      1  0.4059660000000  0.5462120000000  0.5253150000000 1.0
C      1  0.5031580000000  0.5993470000000  0.5187810000000 1.0
C      1  0.6140960000000  0.5261190000000  0.5248910000000 1.0
C      1  0.5516050000000  0.4082050000000  0.5117050000000 1.0
C      1  0.4296580000000  0.5867950000000  0.4747280000000 1.0
C      1  0.4153910000000  0.4364080000000  0.4746490000000 1.0
C      1  0.5035980000000  0.3892780000000  0.4650760000000 1.0
C      1  0.5935040000000  0.4794520000000  0.4753240000000 1.0
C      1  0.5517730000000  0.5811260000000  0.4823100000000 1.0
C      1  0.4298610000000  0.4784130000000  0.5126030000000 1.0
C      1  0.4645980000000  0.5513250000000  0.5262700000000 1.0
C      1  0.5476760000000  0.5635410000000  0.5179870000000 1.0
C      1  0.5833690000000  0.4796490000000  0.5263730000000 1.0
C      1  0.5042220000000  0.4334300000000  0.5071830000000 1.0
C      1  0.4430570000000  0.5270480000000  0.4749520000000 1.0
C      1  0.4643420000000  0.4435890000000  0.4764210000000 1.0
C      1  0.5323940000000  0.4380170000000  0.4639370000000 1.0
C      1  0.5731430000000  0.5185470000000  0.5037490000000 1.0
C      1  0.4978320000000  0.5735150000000  0.4765140000000 1.0
C      1  0.5448100000000  0.4515240000000  0.4353000000000 1.0
C      1  0.4450950000000  0.4311390000000  0.4512900000000 1.0
C      1  0.4345820000000  0.5142720000000  0.4438030000000 1.0
C      1  0.4992150000000  0.5742100000000  0.4419380000000 1.0
C      1  0.5732420000000  0.5180530000000  0.4543930000000 1.0
C      1  0.5587160000000  0.5503230000000  0.5476230000000 1.0
C      1  0.4545880000000  0.5594140000000  0.5582660000000 1.0
C      1  0.4232910000000  0.4926190000000  0.5406470000000 1.0
C      1  0.4958900000000  0.4339980000000  0.5403150000000 1.0
C      1  0.5657190000000  0.4803540000000  0.5549030000000 1.0
C      1  0.4533100000000  0.4834280000000  0.4604010000000 1.0
C      1  0.4667220000000  0.5553190000000  0.4595710000000 1.0
C      1  0.5363820000000  0.5484550000000  0.4530340000000 1.0
C      1  0.5541010000000  0.4795060000000  0.4511600000000 1.0
C      1  0.4927560000000  0.4363340000000  0.4591750000000 1.0
C      1  0.4422680000000  0.5188980000000  0.5459880000000 1.0
C      1  0.4677630000000  0.4518280000000  0.5471940000000 1.0
C      1  0.5336870000000  0.4515340000000  0.5330330000000 1.0
C      1  0.5620930000000  0.5179050000000  0.5420970000000 1.0
C      1  0.5095020000000  0.5667390000000  0.5484400000000 1.0
C      1  0.5714670000000  0.4436830000000  0.4549400000000 1.0
C      1  0.4582590000000  0.3998050000000  0.4522560000000 1.0
C      1  0.4061760000000  0.5022830000000  0.4547090000000 1.0
C      1  0.4730970000000  0.5883330000000  0.4584830000000 1.0
C      1  0.5650270000000  0.5445960000000  0.4580210000000 1.0
C      1  0.5884540000000  0.5621820000000  0.5474850000000 1.0
C      1  0.4577370000000  0.5880440000000  0.5400890000000 1.0
C      1  0.3939870000000  0.5025610000000  0.5432620000000 1.0
C      1  0.4776790000000  0.4070890000000  0.5394100000000 1.0
C      1  0.5902420000000  0.4571480000000  0.5584890000000 1.0
C      1  0.5795700000000  0.4504060000000  0.5092410000000 1.0
C      1  0.5759340000000  0.5490540000000  0.5056890000000 1.0
C      1  0.4771100000000  0.4173050000000  0.4938240000000 1.0
C      1  0.4713690000000  0.5677270000000  0.4972500000000 1.0
C      1  0.4310060000000  0.5102400000000  0.5006920000000 1.0
C      1  0.4945600000000  0.4838890000000  0.4209960000000 1.0
C      1  0.4839170000000  0.5200140000000  0.5817620000000 1.0
C      1  0.4272290000000  0.4898710000000  0.4747140000000 1.0
END
