TITL C-2622967-6265-747 4.38136367402252e-06 125000 -201.139865012387 0 0 38 (C1) n - 1
REM
REM in /nfs/bkarasulu/CARBON/AIRSS/Generating-Clusters/AIREBO/with-SteepDescent/Higher-Symm/SD-CG/HFTN-CG
REM
REM
REM
REM
REM
REM ./C.cell (b20cbc046b6831c77cfcea5457e17084)
REM
REM compiler GCC version 9.2.1 20190827 (Red Hat 9.2.1-1)
REM options -cpp -mtune=generic -march=x86-64 -g -O0 -fpre-include=/usr/include/finclude/math-vector-fortran.h
REM seed -1192493782 996223900 1188623007 -1638433263 -749406694 -127708319 1755056 -1785671700 1766672775 -1188172818 1633875073 -749436276 168009891 -572815139 1090008237 -702526267 2039692732 -1790609892 119136470 1404854365 -341351742 -221320196 -1817820067 -1663868261 1489825338 -335863227 2108599228 -1596744778 253132750 -1173243547 583572220 949724055 1220296881
REM
CELL 1.54180   50.00000   50.00000   50.00000   90.00000   90.00000   90.00000
LATT -1
SFAC C  
C      1  0.4810680000000  0.5368040000000  0.4744540000000 1.0
C      1  0.5483860000000  0.4857910000000  0.4513940000000 1.0
C      1  0.4570680000000  0.4471950000000  0.4750040000000 1.0
C      1  0.5336340000000  0.4226040000000  0.4595100000000 1.0
C      1  0.4422030000000  0.5166490000000  0.4508530000000 1.0
C      1  0.5425820000000  0.5860380000000  0.4646010000000 1.0
C      1  0.5483390000000  0.4907300000000  0.4822540000000 1.0
C      1  0.4521710000000  0.4666160000000  0.4957460000000 1.0
C      1  0.4881330000000  0.5524330000000  0.5027240000000 1.0
C      1  0.4609850000000  0.4932880000000  0.5732990000000 1.0
C      1  0.5264110000000  0.5186580000000  0.5726120000000 1.0
C      1  0.5117950000000  0.4704320000000  0.5657880000000 1.0
C      1  0.5504680000000  0.5011620000000  0.5068180000000 1.0
C      1  0.4587300000000  0.4596170000000  0.5223500000000 1.0
C      1  0.4822000000000  0.5462440000000  0.5284910000000 1.0
C      1  0.5086650000000  0.5558370000000  0.4794150000000 1.0
C      1  0.5256300000000  0.4704990000000  0.4701930000000 1.0
C      1  0.4643560000000  0.4907900000000  0.4858910000000 1.0
C      1  0.5430930000000  0.5664120000000  0.5084940000000 1.0
C      1  0.5207490000000  0.4367490000000  0.5044450000000 1.0
C      1  0.4362270000000  0.5282910000000  0.4985750000000 1.0
C      1  0.4846260000000  0.4577220000000  0.5331980000000 1.0
C      1  0.4653210000000  0.5260130000000  0.5379670000000 1.0
C      1  0.5418660000000  0.5180570000000  0.5271030000000 1.0
C      1  0.5594940000000  0.4884370000000  0.4274040000000 1.0
C      1  0.4806390000000  0.4540020000000  0.4614070000000 1.0
C      1  0.4952130000000  0.5111710000000  0.4592010000000 1.0
C      1  0.4553230000000  0.5178630000000  0.4759670000000 1.0
C      1  0.5312030000000  0.5704450000000  0.4833570000000 1.0
C      1  0.5279710000000  0.4418080000000  0.4781540000000 1.0
C      1  0.5023400000000  0.4378820000000  0.5243420000000 1.0
C      1  0.4399990000000  0.5262300000000  0.5255250000000 1.0
C      1  0.5488790000000  0.5450220000000  0.5241600000000 1.0
C      1  0.4999580000000  0.4869770000000  0.5412670000000 1.0
C      1  0.4744980000000  0.5034550000000  0.5515980000000 1.0
C      1  0.5244070000000  0.5091450000000  0.5468150000000 1.0
C      1  0.4952070000000  0.4815760000000  0.4749620000000 1.0
C      1  0.5037050000000  0.4868190000000  0.5074700000000 1.0
END
