TITL C-2622967-6265-38 -0.00298033117935009 125000 -521.653097474388 0 0 94 (C1) n - 1
REM
REM in /nfs/bkarasulu/CARBON/AIRSS/Generating-Clusters/AIREBO/with-SteepDescent/Higher-Symm/SD-CG/HFTN-CG
REM
REM
REM
REM
REM
REM ./C.cell (b20cbc046b6831c77cfcea5457e17084)
REM
REM compiler GCC version 9.2.1 20190827 (Red Hat 9.2.1-1)
REM options -cpp -mtune=generic -march=x86-64 -g -O0 -fpre-include=/usr/include/finclude/math-vector-fortran.h
REM seed 1496938560 -1936855317 -564156935 -87941381 -1692382775 -1065005171 -1915688592 1354669854 -46618925 1498271007 363989276 -1012905180 -2083987920 -1340891680 -1352545551 812945385 1555344685 -821173623 1617964741 1443334365 1731093086 422465200 1372988512 -19480597 -163138178 1782250336 1919855884 999236503 -1192290635 1930044202 104569261 -1066748064 665327405
REM
CELL 1.54180   50.00000   50.00000   50.00000   90.00000   90.00000   90.00000
LATT -1
SFAC C  
C      1  0.4637710000000  0.4989460000000  0.5686680000000 1.0
C      1  0.4611180000000  0.4304040000000  0.4660830000000 1.0
C      1  0.4674300000000  0.5624590000000  0.4610250000000 1.0
C      1  0.4579310000000  0.5191590000000  0.4722540000000 1.0
C      1  0.4642410000000  0.5314390000000  0.5333500000000 1.0
C      1  0.4509080000000  0.4571310000000  0.5034210000000 1.0
C      1  0.4982890000000  0.5659880000000  0.5146400000000 1.0
C      1  0.5050630000000  0.4548030000000  0.5605790000000 1.0
C      1  0.5017270000000  0.4667260000000  0.4291760000000 1.0
C      1  0.4639020000000  0.5405490000000  0.4279090000000 1.0
C      1  0.4504940000000  0.5355820000000  0.5603940000000 1.0
C      1  0.4417680000000  0.4252520000000  0.5106240000000 1.0
C      1  0.5171010000000  0.5209440000000  0.4257620000000 1.0
C      1  0.5100270000000  0.5542740000000  0.5552160000000 1.0
C      1  0.5186370000000  0.4223900000000  0.5296860000000 1.0
C      1  0.5321270000000  0.5177950000000  0.4046610000000 1.0
C      1  0.5145750000000  0.5806550000000  0.5605960000000 1.0
C      1  0.5314150000000  0.4016670000000  0.5378050000000 1.0
C      1  0.4448420000000  0.5324920000000  0.4466690000000 1.0
C      1  0.4254970000000  0.5217010000000  0.5621130000000 1.0
C      1  0.4202180000000  0.4424240000000  0.4947150000000 1.0
C      1  0.5488790000000  0.4623560000000  0.4622210000000 1.0
C      1  0.5651430000000  0.5582520000000  0.4773150000000 1.0
C      1  0.5556040000000  0.4866150000000  0.5541200000000 1.0
C      1  0.5213050000000  0.4266580000000  0.4905340000000 1.0
C      1  0.5253150000000  0.5529880000000  0.4480300000000 1.0
C      1  0.5200580000000  0.5122000000000  0.5712420000000 1.0
C      1  0.5261350000000  0.5171860000000  0.4796150000000 1.0
C      1  0.5267500000000  0.5097780000000  0.5188810000000 1.0
C      1  0.5100520000000  0.4643860000000  0.4951590000000 1.0
C      1  0.5285800000000  0.5805260000000  0.5143610000000 1.0
C      1  0.5353210000000  0.4469050000000  0.5558340000000 1.0
C      1  0.5306090000000  0.4684260000000  0.4181910000000 1.0
C      1  0.4851220000000  0.4451270000000  0.5384500000000 1.0
C      1  0.4874230000000  0.4871690000000  0.4522980000000 1.0
C      1  0.4689500000000  0.5594880000000  0.5167400000000 1.0
C      1  0.4932510000000  0.4285690000000  0.5097950000000 1.0
C      1  0.4981230000000  0.5449280000000  0.4292290000000 1.0
C      1  0.5022590000000  0.5343640000000  0.5736730000000 1.0
C      1  0.4255640000000  0.5204180000000  0.4953700000000 1.0
C      1  0.4267500000000  0.4964910000000  0.5194990000000 1.0
C      1  0.4307780000000  0.4901330000000  0.4858170000000 1.0
C      1  0.5178840000000  0.5414800000000  0.5275640000000 1.0
C      1  0.5234400000000  0.4557660000000  0.5252220000000 1.0
C      1  0.5171800000000  0.5034550000000  0.4498210000000 1.0
C      1  0.4987810000000  0.4416090000000  0.4725660000000 1.0
C      1  0.5089910000000  0.5578000000000  0.4749650000000 1.0
C      1  0.5015720000000  0.4888240000000  0.5607790000000 1.0
C      1  0.4741860000000  0.5275450000000  0.5791150000000 1.0
C      1  0.4671810000000  0.4215480000000  0.4949800000000 1.0
C      1  0.4766650000000  0.5698980000000  0.4330800000000 1.0
C      1  0.5658110000000  0.5322950000000  0.5516350000000 1.0
C      1  0.5678550000000  0.4427370000000  0.5004330000000 1.0
C      1  0.5702380000000  0.5274590000000  0.4434630000000 1.0
C      1  0.4444080000000  0.4773580000000  0.5624460000000 1.0
C      1  0.4445470000000  0.4536850000000  0.4534790000000 1.0
C      1  0.4433100000000  0.5664070000000  0.4760350000000 1.0
C      1  0.4855790000000  0.4401540000000  0.4149840000000 1.0
C      1  0.4742760000000  0.5994490000000  0.4902310000000 1.0
C      1  0.4951770000000  0.4491400000000  0.5925490000000 1.0
C      1  0.5692240000000  0.4740260000000  0.5048300000000 1.0
C      1  0.5760810000000  0.5092490000000  0.4662470000000 1.0
C      1  0.5757970000000  0.5310130000000  0.5248450000000 1.0
C      1  0.5555270000000  0.4614440000000  0.5662080000000 1.0
C      1  0.5500770000000  0.4596640000000  0.4317190000000 1.0
C      1  0.5470870000000  0.5694110000000  0.4952550000000 1.0
C      1  0.5540940000000  0.5513600000000  0.4507300000000 1.0
C      1  0.5478530000000  0.5122200000000  0.5633400000000 1.0
C      1  0.5474840000000  0.4367020000000  0.4820700000000 1.0
C      1  0.4864610000000  0.4682260000000  0.5174650000000 1.0
C      1  0.4943900000000  0.5068240000000  0.4817400000000 1.0
C      1  0.4994030000000  0.4991050000000  0.5115240000000 1.0
C      1  0.5270280000000  0.5443980000000  0.4973400000000 1.0
C      1  0.5452400000000  0.4818840000000  0.5256270000000 1.0
C      1  0.5220870000000  0.4762690000000  0.4688460000000 1.0
C      1  0.4543810000000  0.5336350000000  0.5020520000000 1.0
C      1  0.4563900000000  0.4839850000000  0.5193450000000 1.0
C      1  0.4607010000000  0.4875900000000  0.4733510000000 1.0
C      1  0.4987280000000  0.4376760000000  0.4439230000000 1.0
C      1  0.4988040000000  0.5861500000000  0.4886610000000 1.0
C      1  0.4938810000000  0.4768770000000  0.5916930000000 1.0
C      1  0.4567920000000  0.4520700000000  0.5559680000000 1.0
C      1  0.4613610000000  0.4714160000000  0.4371190000000 1.0
C      1  0.4532530000000  0.5807340000000  0.4989160000000 1.0
C      1  0.5812520000000  0.5021380000000  0.5147880000000 1.0
C      1  0.5700680000000  0.4828180000000  0.4737350000000 1.0
C      1  0.5762040000000  0.5327520000000  0.4904980000000 1.0
C      1  0.4727990000000  0.4585600000000  0.4811580000000 1.0
C      1  0.4847420000000  0.5384690000000  0.4738760000000 1.0
C      1  0.4791490000000  0.5012890000000  0.5384340000000 1.0
C      1  0.4257360000000  0.5427380000000  0.4721080000000 1.0
C      1  0.4242940000000  0.4955060000000  0.5499800000000 1.0
C      1  0.4253990000000  0.4625760000000  0.4731560000000 1.0
C      1  0.5524710000000  0.5096920000000  0.4983220000000 1.0
END
