TITL C-2622965-4321-551 0.000476856263577431 125000 -579.187809706076 0 0 97 (C1) n - 1
REM
REM in /nfs/bkarasulu/CARBON/AIRSS/Generating-Clusters/AIREBO/with-SteepDescent/Higher-Symm/SD-CG/HFTN-CG
REM
REM
REM
REM
REM
REM ./C.cell (b20cbc046b6831c77cfcea5457e17084)
REM
REM compiler GCC version 9.2.1 20190827 (Red Hat 9.2.1-1)
REM options -cpp -mtune=generic -march=x86-64 -g -O0 -fpre-include=/usr/include/finclude/math-vector-fortran.h
REM seed -479893378 -206287020 -1921405285 -1568950590 -1376468259 1691392820 -860723313 -1648922168 1353713128 -1090072499 1851943519 -1943949191 701154618 419713462 1842339036 -1573096519 -1416926713 -1359428577 247182212 141745224 1310385494 1271505270 1447748580 1773460722 -1921584861 -230816521 -1337592910 -1386345090 855061924 -1629461005 1274879665 -2072282712 -488033554
REM
CELL 1.54180   50.00000   50.00000   50.00000   90.00000   90.00000   90.00000
LATT -1
SFAC C  
C      1  0.5697590000000  0.4747870000000  0.5151230000000 1.0
C      1  0.5674240000000  0.5012240000000  0.4728020000000 1.0
C      1  0.5715400000000  0.5235570000000  0.5160810000000 1.0
C      1  0.5719950000000  0.4760020000000  0.4863130000000 1.0
C      1  0.5707130000000  0.4993620000000  0.5298650000000 1.0
C      1  0.5662280000000  0.5238050000000  0.4885820000000 1.0
C      1  0.5594900000000  0.4978580000000  0.5561160000000 1.0
C      1  0.5598150000000  0.4542150000000  0.4725500000000 1.0
C      1  0.5748550000000  0.5578680000000  0.4695290000000 1.0
C      1  0.5548940000000  0.5007690000000  0.4468920000000 1.0
C      1  0.5575830000000  0.4530250000000  0.5297970000000 1.0
C      1  0.5641990000000  0.5474120000000  0.5294050000000 1.0
C      1  0.5023710000000  0.4238310000000  0.5139620000000 1.0
C      1  0.4994440000000  0.5303990000000  0.4249070000000 1.0
C      1  0.5096460000000  0.5525640000000  0.5567480000000 1.0
C      1  0.4984320000000  0.4176360000000  0.4843040000000 1.0
C      1  0.5077750000000  0.5229370000000  0.5708740000000 1.0
C      1  0.4907980000000  0.5586720000000  0.4363740000000 1.0
C      1  0.4816230000000  0.4708530000000  0.4212130000000 1.0
C      1  0.4818780000000  0.5815510000000  0.5156190000000 1.0
C      1  0.4783430000000  0.4523370000000  0.5633070000000 1.0
C      1  0.4794040000000  0.4838340000000  0.5605370000000 1.0
C      1  0.4864930000000  0.5662970000000  0.4898570000000 1.0
C      1  0.4868530000000  0.4568550000000  0.4472390000000 1.0
C      1  0.4358280000000  0.5560010000000  0.5131560000000 1.0
C      1  0.4351810000000  0.4628840000000  0.5462510000000 1.0
C      1  0.4382010000000  0.4749010000000  0.4386620000000 1.0
C      1  0.4404390000000  0.5519590000000  0.4860130000000 1.0
C      1  0.4403220000000  0.4510250000000  0.4558200000000 1.0
C      1  0.4315450000000  0.4881960000000  0.5616880000000 1.0
C      1  0.4751190000000  0.5307470000000  0.5655020000000 1.0
C      1  0.4559180000000  0.4346990000000  0.4956080000000 1.0
C      1  0.4516280000000  0.5340670000000  0.4428660000000 1.0
C      1  0.4662640000000  0.5239120000000  0.4211420000000 1.0
C      1  0.4735290000000  0.4368700000000  0.5211160000000 1.0
C      1  0.4630940000000  0.5365250000000  0.5385950000000 1.0
C      1  0.4380780000000  0.5214620000000  0.4711380000000 1.0
C      1  0.4251720000000  0.4981480000000  0.5306520000000 1.0
C      1  0.4394220000000  0.4609360000000  0.4866880000000 1.0
C      1  0.4337720000000  0.5292330000000  0.5276410000000 1.0
C      1  0.4460160000000  0.4885390000000  0.4680740000000 1.0
C      1  0.4398780000000  0.4712580000000  0.5160680000000 1.0
C      1  0.5351940000000  0.5753920000000  0.4897400000000 1.0
C      1  0.5302590000000  0.4729080000000  0.5735900000000 1.0
C      1  0.5338690000000  0.4524190000000  0.4308690000000 1.0
C      1  0.5286890000000  0.5755410000000  0.5192460000000 1.0
C      1  0.5294800000000  0.4824740000000  0.4209160000000 1.0
C      1  0.5294930000000  0.4462080000000  0.5573160000000 1.0
C      1  0.5226500000000  0.5031500000000  0.4699700000000 1.0
C      1  0.5224720000000  0.5238290000000  0.5184110000000 1.0
C      1  0.5231670000000  0.4732130000000  0.5122370000000 1.0
C      1  0.5143780000000  0.4965000000000  0.5293310000000 1.0
C      1  0.5203060000000  0.5271080000000  0.4881480000000 1.0
C      1  0.5155360000000  0.4767290000000  0.4822990000000 1.0
C      1  0.4725770000000  0.4685780000000  0.5086820000000 1.0
C      1  0.4741250000000  0.5053490000000  0.4772000000000 1.0
C      1  0.4704910000000  0.5167510000000  0.5153100000000 1.0
C      1  0.4850720000000  0.4731320000000  0.4772630000000 1.0
C      1  0.4840830000000  0.4917000000000  0.5298130000000 1.0
C      1  0.4887330000000  0.5323760000000  0.4918040000000 1.0
C      1  0.5753910000000  0.5708650000000  0.5178200000000 1.0
C      1  0.5623210000000  0.4513440000000  0.5594980000000 1.0
C      1  0.5634200000000  0.4787370000000  0.4289660000000 1.0
C      1  0.5667760000000  0.5764690000000  0.4912560000000 1.0
C      1  0.5619030000000  0.4517400000000  0.4439170000000 1.0
C      1  0.5699930000000  0.4760160000000  0.5709910000000 1.0
C      1  0.5225490000000  0.4763720000000  0.6067060000000 1.0
C      1  0.5187830000000  0.4287390000000  0.4688780000000 1.0
C      1  0.5078350000000  0.5778320000000  0.4474110000000 1.0
C      1  0.4970080000000  0.5097930000000  0.3998820000000 1.0
C      1  0.4968860000000  0.4139860000000  0.5441170000000 1.0
C      1  0.5080880000000  0.5864140000000  0.5595800000000 1.0
C      1  0.4712580000000  0.4219220000000  0.4755970000000 1.0
C      1  0.4648750000000  0.5583970000000  0.4478030000000 1.0
C      1  0.4809630000000  0.5112610000000  0.5893970000000 1.0
C      1  0.4543050000000  0.4174270000000  0.5407300000000 1.0
C      1  0.4812750000000  0.5625020000000  0.5424990000000 1.0
C      1  0.4545240000000  0.5044730000000  0.4052910000000 1.0
C      1  0.5098530000000  0.5789260000000  0.4743990000000 1.0
C      1  0.5003070000000  0.4786820000000  0.5834610000000 1.0
C      1  0.5125110000000  0.4405090000000  0.4438980000000 1.0
C      1  0.5077680000000  0.5901050000000  0.5309410000000 1.0
C      1  0.5018980000000  0.4841940000000  0.4081500000000 1.0
C      1  0.5002420000000  0.4354290000000  0.5610270000000 1.0
C      1  0.5446880000000  0.5454510000000  0.4794080000000 1.0
C      1  0.5269830000000  0.5014640000000  0.5577910000000 1.0
C      1  0.5333190000000  0.4500440000000  0.4810580000000 1.0
C      1  0.5333600000000  0.5482120000000  0.5340130000000 1.0
C      1  0.5233180000000  0.5106270000000  0.4389900000000 1.0
C      1  0.5260370000000  0.4441560000000  0.5233540000000 1.0
C      1  0.4553450000000  0.4790970000000  0.4170330000000 1.0
C      1  0.4522450000000  0.5739610000000  0.5277410000000 1.0
C      1  0.4530740000000  0.4430720000000  0.5556380000000 1.0
C      1  0.4541860000000  0.4979460000000  0.5738240000000 1.0
C      1  0.4609290000000  0.5663580000000  0.4738580000000 1.0
C      1  0.4646030000000  0.4367710000000  0.4524360000000 1.0
C      1  0.4414440000000  0.5086940000000  0.5021440000000 1.0
END
