TITL C-2622958-629-768 0.000622708424934608 125000 -497.495851909078 0 0 92 (C1) n - 1
REM
REM in /nfs/bkarasulu/CARBON/AIRSS/Generating-Clusters/AIREBO/with-SteepDescent/Higher-Symm/SD-CG/HFTN-CG
REM
REM
REM
REM
REM
REM ./C.cell (b20cbc046b6831c77cfcea5457e17084)
REM
REM compiler GCC version 9.2.1 20190827 (Red Hat 9.2.1-1)
REM options -cpp -mtune=generic -march=x86-64 -g -O0 -fpre-include=/usr/include/finclude/math-vector-fortran.h
REM seed 1286144663 -2083592973 -620475657 451615314 1441495911 1355914496 949671829 1554814338 1620136796 -1862402460 -1268503304 1580721822 -751610875 -1943555433 -1787280781 -1810549679 935564446 795254955 246220701 -316044320 -1375660985 -1661483006 121652410 880510087 1408097088 1324882650 2105436722 -1903811894 624074894 -1025591965 999144238 -1027772803 1539754684
REM
CELL 1.54180   50.00000   50.00000   50.00000   90.00000   90.00000   90.00000
LATT -1
SFAC C  
C      1  0.5153690000000  0.4774000000000  0.5372860000000 1.0
C      1  0.4842270000000  0.5231370000000  0.5318420000000 1.0
C      1  0.5111240000000  0.4816200000000  0.4555440000000 1.0
C      1  0.4963710000000  0.5185390000000  0.4574940000000 1.0
C      1  0.5079300000000  0.4973840000000  0.4255890000000 1.0
C      1  0.4765560000000  0.4983080000000  0.4386710000000 1.0
C      1  0.5170590000000  0.4987440000000  0.5636980000000 1.0
C      1  0.4840790000000  0.5054720000000  0.5609640000000 1.0
C      1  0.4237550000000  0.5229390000000  0.4814550000000 1.0
C      1  0.5781160000000  0.4800270000000  0.4833140000000 1.0
C      1  0.4201770000000  0.5214090000000  0.5090060000000 1.0
C      1  0.5812030000000  0.4811000000000  0.5111340000000 1.0
C      1  0.5235480000000  0.5210960000000  0.4202880000000 1.0
C      1  0.4638270000000  0.4700040000000  0.4252020000000 1.0
C      1  0.5314540000000  0.5252660000000  0.5683890000000 1.0
C      1  0.4688570000000  0.4775030000000  0.5650930000000 1.0
C      1  0.5611750000000  0.5222560000000  0.5616810000000 1.0
C      1  0.4384880000000  0.4796850000000  0.5593790000000 1.0
C      1  0.5498700000000  0.5170330000000  0.4277620000000 1.0
C      1  0.4314670000000  0.4708490000000  0.4231320000000 1.0
C      1  0.4666320000000  0.4279290000000  0.4873810000000 1.0
C      1  0.5391550000000  0.5708460000000  0.4852190000000 1.0
C      1  0.4610090000000  0.4317040000000  0.5266820000000 1.0
C      1  0.5406780000000  0.5690910000000  0.5340550000000 1.0
C      1  0.4609270000000  0.5245210000000  0.5106960000000 1.0
C      1  0.5362160000000  0.4761810000000  0.5145160000000 1.0
C      1  0.4747970000000  0.5141510000000  0.4824120000000 1.0
C      1  0.5271130000000  0.4835960000000  0.4841820000000 1.0
C      1  0.5169430000000  0.5463180000000  0.4969400000000 1.0
C      1  0.4861530000000  0.4556370000000  0.4900880000000 1.0
C      1  0.5138790000000  0.5493010000000  0.5272600000000 1.0
C      1  0.4874650000000  0.4527210000000  0.5228680000000 1.0
C      1  0.5515900000000  0.4987950000000  0.5435500000000 1.0
C      1  0.4485560000000  0.5029650000000  0.5419210000000 1.0
C      1  0.5519010000000  0.4972220000000  0.4545080000000 1.0
C      1  0.4481290000000  0.5013950000000  0.4555810000000 1.0
C      1  0.5899920000000  0.5054720000000  0.5248870000000 1.0
C      1  0.4106870000000  0.4970750000000  0.5220760000000 1.0
C      1  0.5834360000000  0.5034370000000  0.4652030000000 1.0
C      1  0.4162210000000  0.5014760000000  0.4621510000000 1.0
C      1  0.4239290000000  0.4728190000000  0.5332810000000 1.0
C      1  0.5760010000000  0.5293860000000  0.5360860000000 1.0
C      1  0.4198380000000  0.4740450000000  0.4496030000000 1.0
C      1  0.5739560000000  0.5293500000000  0.4477670000000 1.0
C      1  0.5325110000000  0.4403450000000  0.4864520000000 1.0
C      1  0.4707370000000  0.5597710000000  0.4861870000000 1.0
C      1  0.5369280000000  0.4363860000000  0.5133950000000 1.0
C      1  0.4653240000000  0.5640610000000  0.5131530000000 1.0
C      1  0.5078050000000  0.5103130000000  0.5163110000000 1.0
C      1  0.4871830000000  0.4843540000000  0.5239750000000 1.0
C      1  0.5147640000000  0.5152750000000  0.4834020000000 1.0
C      1  0.4881500000000  0.4836650000000  0.4754230000000 1.0
C      1  0.5567980000000  0.5483280000000  0.4954710000000 1.0
C      1  0.4469030000000  0.4494410000000  0.4938360000000 1.0
C      1  0.5627230000000  0.5515240000000  0.5228700000000 1.0
C      1  0.4351590000000  0.4490770000000  0.5210040000000 1.0
C      1  0.4378670000000  0.5464290000000  0.5227220000000 1.0
C      1  0.5622890000000  0.4564440000000  0.5238680000000 1.0
C      1  0.4507230000000  0.5366360000000  0.4739920000000 1.0
C      1  0.5527110000000  0.4635550000000  0.4757020000000 1.0
C      1  0.5158720000000  0.5533040000000  0.5609660000000 1.0
C      1  0.4844850000000  0.4496170000000  0.5565970000000 1.0
C      1  0.5466430000000  0.5437500000000  0.4571660000000 1.0
C      1  0.4523410000000  0.4575160000000  0.4542480000000 1.0
C      1  0.5122870000000  0.4321790000000  0.5337490000000 1.0
C      1  0.4888840000000  0.5702240000000  0.5369460000000 1.0
C      1  0.5034140000000  0.4348970000000  0.4693980000000 1.0
C      1  0.5006050000000  0.5662680000000  0.4759310000000 1.0
C      1  0.5150040000000  0.5886070000000  0.5232580000000 1.0
C      1  0.4881970000000  0.4131850000000  0.5180740000000 1.0
C      1  0.5158280000000  0.5887240000000  0.4952010000000 1.0
C      1  0.4919780000000  0.4088690000000  0.4884540000000 1.0
C      1  0.5220870000000  0.5554630000000  0.4521150000000 1.0
C      1  0.4755710000000  0.4373510000000  0.4500150000000 1.0
C      1  0.5036230000000  0.5818010000000  0.5658400000000 1.0
C      1  0.4947200000000  0.4204160000000  0.5610060000000 1.0
C      1  0.5014060000000  0.4719980000000  0.5743280000000 1.0
C      1  0.4985430000000  0.5307080000000  0.5785790000000 1.0
C      1  0.4949600000000  0.4669960000000  0.4224660000000 1.0
C      1  0.5096010000000  0.5439410000000  0.4295970000000 1.0
C      1  0.4595870000000  0.4917520000000  0.5117200000000 1.0
C      1  0.5414730000000  0.5081350000000  0.5122960000000 1.0
C      1  0.4553290000000  0.4791740000000  0.4803010000000 1.0
C      1  0.5484340000000  0.5190010000000  0.4804220000000 1.0
C      1  0.5160500000000  0.4514160000000  0.4424880000000 1.0
C      1  0.4815240000000  0.5378390000000  0.4356400000000 1.0
C      1  0.5243060000000  0.4528700000000  0.5579260000000 1.0
C      1  0.4772710000000  0.5444910000000  0.5559160000000 1.0
C      1  0.4487810000000  0.5308220000000  0.5482080000000 1.0
C      1  0.5522100000000  0.4705420000000  0.5506030000000 1.0
C      1  0.4549570000000  0.5320680000000  0.4422040000000 1.0
C      1  0.5456030000000  0.4652700000000  0.4447420000000 1.0
END
