TITL C-2622954-8726-321 -0.000545873950783251 125000 -518.186647005361 0 0 95 (C1) n - 1
REM
REM in /nfs/bkarasulu/CARBON/AIRSS/Generating-Clusters/AIREBO/with-SteepDescent/Higher-Symm/SD-CG/HFTN-CG
REM
REM
REM
REM
REM
REM ./C.cell (b20cbc046b6831c77cfcea5457e17084)
REM
REM compiler GCC version 9.2.1 20190827 (Red Hat 9.2.1-1)
REM options -cpp -mtune=generic -march=x86-64 -g -O0 -fpre-include=/usr/include/finclude/math-vector-fortran.h
REM seed 1334039294 -349204046 -2021215269 688101780 -283310899 254246288 -550130863 -409926732 -1612727137 93600628 1530729921 -1987857194 -1682604736 -1765515675 1117033424 83769328 -736341129 -1814116902 1826797384 1084396568 1483212847 -197970944 599675355 1593666426 1633566719 -313606010 -619605988 -1018802794 414085834 -659345742 -118524728 2044960564 -1696051778
REM
CELL 1.54180   50.00000   50.00000   50.00000   90.00000   90.00000   90.00000
LATT -1
SFAC C  
C      1  0.4737410000000  0.5814460000000  0.5357430000000 1.0
C      1  0.5387620000000  0.4746430000000  0.5785180000000 1.0
C      1  0.5797490000000  0.5370470000000  0.4761120000000 1.0
C      1  0.5232720000000  0.5773820000000  0.4584130000000 1.0
C      1  0.4764120000000  0.4211090000000  0.4588090000000 1.0
C      1  0.5234800000000  0.4176770000000  0.5392670000000 1.0
C      1  0.4595900000000  0.4755480000000  0.4185550000000 1.0
C      1  0.5401230000000  0.5216440000000  0.4197800000000 1.0
C      1  0.4610950000000  0.5222290000000  0.5801460000000 1.0
C      1  0.4188410000000  0.5394900000000  0.5242340000000 1.0
C      1  0.5783240000000  0.4598880000000  0.5228010000000 1.0
C      1  0.4201880000000  0.4604130000000  0.4751270000000 1.0
C      1  0.5022880000000  0.5515820000000  0.5590850000000 1.0
C      1  0.5516940000000  0.5001680000000  0.5453400000000 1.0
C      1  0.5455920000000  0.5561180000000  0.5013920000000 1.0
C      1  0.4997730000000  0.5453400000000  0.4448940000000 1.0
C      1  0.5015610000000  0.4504320000000  0.4421090000000 1.0
C      1  0.4970500000000  0.4507950000000  0.5537200000000 1.0
C      1  0.4441550000000  0.5014480000000  0.4517120000000 1.0
C      1  0.5567330000000  0.4960380000000  0.4479140000000 1.0
C      1  0.4429200000000  0.4957020000000  0.5502480000000 1.0
C      1  0.4471650000000  0.5550300000000  0.4970420000000 1.0
C      1  0.5490770000000  0.4432200000000  0.4963850000000 1.0
C      1  0.4519580000000  0.4462970000000  0.4998940000000 1.0
C      1  0.5306660000000  0.4893840000000  0.5208890000000 1.0
C      1  0.5200650000000  0.5391280000000  0.4934670000000 1.0
C      1  0.5019670000000  0.5243460000000  0.5440630000000 1.0
C      1  0.4606860000000  0.4937710000000  0.4780100000000 1.0
C      1  0.5374740000000  0.5012500000000  0.4717920000000 1.0
C      1  0.4590760000000  0.4998040000000  0.5241880000000 1.0
C      1  0.4749090000000  0.5413730000000  0.4983390000000 1.0
C      1  0.5243970000000  0.4609850000000  0.5032600000000 1.0
C      1  0.4773130000000  0.4667130000000  0.4901810000000 1.0
C      1  0.5106280000000  0.5211880000000  0.4662310000000 1.0
C      1  0.4950880000000  0.4731820000000  0.4619250000000 1.0
C      1  0.5045290000000  0.4778230000000  0.5393140000000 1.0
C      1  0.5562140000000  0.4682300000000  0.5432060000000 1.0
C      1  0.5451920000000  0.5569310000000  0.4680850000000 1.0
C      1  0.4697890000000  0.5434570000000  0.5580510000000 1.0
C      1  0.4407610000000  0.4695200000000  0.4532860000000 1.0
C      1  0.5593160000000  0.5294230000000  0.4539350000000 1.0
C      1  0.4416690000000  0.5291910000000  0.5449820000000 1.0
C      1  0.4556000000000  0.5563270000000  0.5299550000000 1.0
C      1  0.5448490000000  0.4393500000000  0.5298980000000 1.0
C      1  0.4550320000000  0.4423570000000  0.4676350000000 1.0
C      1  0.5314090000000  0.5428920000000  0.4399400000000 1.0
C      1  0.4683260000000  0.4547120000000  0.4388800000000 1.0
C      1  0.5295810000000  0.4527160000000  0.5575640000000 1.0
C      1  0.4246030000000  0.5360610000000  0.4881390000000 1.0
C      1  0.4886190000000  0.4278820000000  0.5345030000000 1.0
C      1  0.5410760000000  0.4878400000000  0.4218180000000 1.0
C      1  0.5704480000000  0.5416630000000  0.5111810000000 1.0
C      1  0.4253170000000  0.4607160000000  0.5089740000000 1.0
C      1  0.5725630000000  0.4615260000000  0.4865820000000 1.0
C      1  0.5105050000000  0.4248870000000  0.4589220000000 1.0
C      1  0.4895210000000  0.5720470000000  0.4584390000000 1.0
C      1  0.5092840000000  0.5759220000000  0.5422730000000 1.0
C      1  0.4598030000000  0.4861130000000  0.5741480000000 1.0
C      1  0.5396730000000  0.5085360000000  0.5732540000000 1.0
C      1  0.4610440000000  0.5080600000000  0.4261830000000 1.0
C      1  0.4796210000000  0.5350560000000  0.4270600000000 1.0
C      1  0.4256350000000  0.4741420000000  0.5382020000000 1.0
C      1  0.5388390000000  0.4253310000000  0.4749990000000 1.0
C      1  0.5252850000000  0.5374460000000  0.5737590000000 1.0
C      1  0.4740160000000  0.4595350000000  0.5712630000000 1.0
C      1  0.5215760000000  0.4605140000000  0.4234230000000 1.0
C      1  0.5722230000000  0.4730870000000  0.4595730000000 1.0
C      1  0.4269340000000  0.5237630000000  0.4615330000000 1.0
C      1  0.5679910000000  0.5219630000000  0.5349150000000 1.0
C      1  0.4625500000000  0.4298100000000  0.5217300000000 1.0
C      1  0.5338200000000  0.5739900000000  0.5225400000000 1.0
C      1  0.4614020000000  0.5702640000000  0.4742350000000 1.0
C      1  0.5145580000000  0.4945640000000  0.4037040000000 1.0
C      1  0.4132820000000  0.5130180000000  0.5083520000000 1.0
C      1  0.5080950000000  0.4138570000000  0.5122300000000 1.0
C      1  0.4846030000000  0.5022110000000  0.5864620000000 1.0
C      1  0.5153120000000  0.4940200000000  0.5920140000000 1.0
C      1  0.4920920000000  0.4986100000000  0.4171130000000 1.0
C      1  0.5805380000000  0.5143250000000  0.4977900000000 1.0
C      1  0.4083900000000  0.4855200000000  0.4930290000000 1.0
C      1  0.5862810000000  0.4845520000000  0.5051890000000 1.0
C      1  0.4932370000000  0.4107620000000  0.4845810000000 1.0
C      1  0.5043040000000  0.5909710000000  0.4825120000000 1.0
C      1  0.4965920000000  0.5856940000000  0.5138480000000 1.0
C      1  0.4402910000000  0.4968140000000  0.5008620000000 1.0
C      1  0.5030560000000  0.4998810000000  0.5602460000000 1.0
C      1  0.4940200000000  0.4991540000000  0.4468620000000 1.0
C      1  0.5541690000000  0.4954720000000  0.4976270000000 1.0
C      1  0.4996720000000  0.4422740000000  0.4973000000000 1.0
C      1  0.4977880000000  0.5598280000000  0.4954090000000 1.0
C      1  0.4825490000000  0.4810420000000  0.5184920000000 1.0
C      1  0.5182210000000  0.4793200000000  0.4801050000000 1.0
C      1  0.4806440000000  0.5167000000000  0.4809410000000 1.0
C      1  0.5139440000000  0.5173890000000  0.5146230000000 1.0
C      1  0.4805450000000  0.5209120000000  0.5206880000000 1.0
END
