TITL C-2622962-9663-521 -0.000176547079002576 125000 -172.284023212955 0 0 33 (C1) n - 1
REM
REM in /nfs/bkarasulu/CARBON/AIRSS/Generating-Clusters/AIREBO/with-SteepDescent/Higher-Symm/SD-CG/HFTN-CG
REM
REM
REM
REM
REM
REM ./C.cell (b20cbc046b6831c77cfcea5457e17084)
REM
REM compiler GCC version 9.2.1 20190827 (Red Hat 9.2.1-1)
REM options -cpp -mtune=generic -march=x86-64 -g -O0 -fpre-include=/usr/include/finclude/math-vector-fortran.h
REM seed -1176355535 702599264 506372080 108343845 1097972878 -597191225 -1729974556 514960996 -442905961 1784736768 -1259775765 541458985 1843748878 780855279 -1190852163 -1621397983 1309041236 176899632 766093294 -906492779 2068021907 1002410598 -1260559731 1154773122 -1314390751 -534991306 -1902528001 1631022206 -1167771972 956740414 -2074594345 -200113693 -1583733405
REM
CELL 1.54180   50.00000   50.00000   50.00000   90.00000   90.00000   90.00000
LATT -1
SFAC C  
C      1  0.4868360000000  0.4655260000000  0.5419140000000 1.0
C      1  0.5164790000000  0.4617880000000  0.5468230000000 1.0
C      1  0.5367010000000  0.5120100000000  0.4431070000000 1.0
C      1  0.4631830000000  0.5199300000000  0.4437700000000 1.0
C      1  0.5576940000000  0.4784810000000  0.4825820000000 1.0
C      1  0.4439720000000  0.4802170000000  0.4778290000000 1.0
C      1  0.4564860000000  0.5534710000000  0.4857070000000 1.0
C      1  0.5365580000000  0.5510620000000  0.4810340000000 1.0
C      1  0.4730580000000  0.4691890000000  0.4822430000000 1.0
C      1  0.5291440000000  0.4651230000000  0.4867030000000 1.0
C      1  0.4727880000000  0.4858780000000  0.5566200000000 1.0
C      1  0.5305910000000  0.4838640000000  0.5585590000000 1.0
C      1  0.4442810000000  0.5414800000000  0.5076190000000 1.0
C      1  0.5485130000000  0.5433140000000  0.5048240000000 1.0
C      1  0.5137570000000  0.4465320000000  0.4692630000000 1.0
C      1  0.4885700000000  0.4489840000000  0.4671390000000 1.0
C      1  0.4585020000000  0.4917350000000  0.4527440000000 1.0
C      1  0.5436510000000  0.4854480000000  0.4555260000000 1.0
C      1  0.5245270000000  0.5005920000000  0.4792860000000 1.0
C      1  0.4756760000000  0.5054770000000  0.4787710000000 1.0
C      1  0.5238630000000  0.5083090000000  0.5451820000000 1.0
C      1  0.4788370000000  0.5118350000000  0.5455060000000 1.0
C      1  0.5667470000000  0.4967660000000  0.5017330000000 1.0
C      1  0.4333220000000  0.4940430000000  0.4996190000000 1.0
C      1  0.4492410000000  0.5138680000000  0.5118140000000 1.0
C      1  0.5481610000000  0.5158810000000  0.5112400000000 1.0
C      1  0.5161560000000  0.4682230000000  0.5150070000000 1.0
C      1  0.4829980000000  0.4732650000000  0.5110320000000 1.0
C      1  0.4825960000000  0.5072520000000  0.5120200000000 1.0
C      1  0.5170900000000  0.5021160000000  0.5124350000000 1.0
C      1  0.4697570000000  0.5368080000000  0.4676810000000 1.0
C      1  0.5269740000000  0.5306750000000  0.4646950000000 1.0
C      1  0.5025030000000  0.5239770000000  0.5555270000000 1.0
END
