TITL C-2622965-4321-635 -1.89653103636161e-07 125000 -62.7460958588743 0 0 11 (Cs) n - 1
REM
REM in /nfs/bkarasulu/CARBON/AIRSS/Generating-Clusters/AIREBO/with-SteepDescent/Higher-Symm/SD-CG/HFTN-CG
REM
REM
REM
REM
REM
REM ./C.cell (b20cbc046b6831c77cfcea5457e17084)
REM
REM compiler GCC version 9.2.1 20190827 (Red Hat 9.2.1-1)
REM options -cpp -mtune=generic -march=x86-64 -g -O0 -fpre-include=/usr/include/finclude/math-vector-fortran.h
REM seed 1414466957 993696688 -1911891953 797099589 -656739358 1994376597 -311573318 274446605 -1152049313 -208844262 1462314420 77220053 935318540 2048959187 -2064505616 551703 -349724868 496900039 -2036116489 -2127368590 -1278364622 -2000851815 -112531511 1171127313 -519673628 1360364130 -621181790 1014032890 -2067698080 -81560913 -899250425 257878710 487756692
REM
CELL 1.54180   50.00000   50.00000   50.00000   90.00000   90.00000   90.00000
LATT -1
SFAC C  
C      1  0.5373050000000  0.5000000000000  0.5299800000000 1.0
C      1  0.5151750000000  0.5000000000000  0.5453890000000 1.0
C      1  0.4882270000000  0.5000000000000  0.5463880000000 1.0
C      1  0.4650160000000  0.5000000000000  0.5326590000000 1.0
C      1  0.4529130000000  0.5000000000000  0.5085610000000 1.0
C      1  0.4557590000000  0.5000000000000  0.4817450000000 1.0
C      1  0.4726520000000  0.5000000000000  0.4607240000000 1.0
C      1  0.4982270000000  0.5000000000000  0.4521740000000 1.0
C      1  0.5243660000000  0.5000000000000  0.4588080000000 1.0
C      1  0.5427680000000  0.5000000000000  0.4785200000000 1.0
C      1  0.5475920000000  0.5000000000000  0.5050520000000 1.0
END
