TITL C-2622953-3516-226 -0.00394239869932174 125000 -186.438537032246 0 0 33 (C1) n - 1
REM
REM in /nfs/bkarasulu/CARBON/AIRSS/Generating-Clusters/AIREBO/with-SteepDescent/Higher-Symm/SD-CG/HFTN-CG
REM
REM
REM
REM
REM
REM ./C.cell (b20cbc046b6831c77cfcea5457e17084)
REM
REM compiler GCC version 9.2.1 20190827 (Red Hat 9.2.1-1)
REM options -cpp -mtune=generic -march=x86-64 -g -O0 -fpre-include=/usr/include/finclude/math-vector-fortran.h
REM seed -2065641001 1347577416 1498955128 506831865 -58276947 -2115036887 1827370616 1723801146 1985659445 2119747882 -496693455 196303749 -803562165 -558690444 -1772734096 354206103 1869145457 -1609372901 544018273 1413464179 880198845 252196354 -455400049 998936900 1484151947 142427147 -1847999135 -1458204301 -1982137814 -1233613323 1901442382 1070743225 -1611329537
REM
CELL 1.54180   50.00000   50.00000   50.00000   90.00000   90.00000   90.00000
LATT -1
SFAC C  
C      1  0.4929310000000  0.5649640000000  0.5426080000000 1.0
C      1  0.5058010000000  0.4957870000000  0.5414400000000 1.0
C      1  0.5547380000000  0.5368500000000  0.5422790000000 1.0
C      1  0.5615390000000  0.5116930000000  0.4872780000000 1.0
C      1  0.5232210000000  0.5711370000000  0.4852010000000 1.0
C      1  0.5387480000000  0.5249890000000  0.4362700000000 1.0
C      1  0.4841670000000  0.5482280000000  0.4245420000000 1.0
C      1  0.4795050000000  0.4960880000000  0.4716230000000 1.0
C      1  0.4295520000000  0.5385960000000  0.4594080000000 1.0
C      1  0.4470530000000  0.5741810000000  0.5036790000000 1.0
C      1  0.4509510000000  0.5109120000000  0.5299980000000 1.0
C      1  0.5154990000000  0.4026410000000  0.5538340000000 1.0
C      1  0.5350680000000  0.3987490000000  0.5355140000000 1.0
C      1  0.5479490000000  0.4110200000000  0.5151310000000 1.0
C      1  0.5439740000000  0.4240760000000  0.4918170000000 1.0
C      1  0.5315620000000  0.4445970000000  0.4794990000000 1.0
C      1  0.5085580000000  0.4571140000000  0.4732140000000 1.0
C      1  0.4856570000000  0.4709480000000  0.4812420000000 1.0
C      1  0.4697520000000  0.4580780000000  0.5002500000000 1.0
C      1  0.4665030000000  0.4463430000000  0.5242540000000 1.0
C      1  0.4721450000000  0.4260920000000  0.5410740000000 1.0
C      1  0.4901850000000  0.4121900000000  0.5556130000000 1.0
C      1  0.4892060000000  0.5401490000000  0.5326260000000 1.0
C      1  0.5101050000000  0.5210500000000  0.5328940000000 1.0
C      1  0.5361420000000  0.5291600000000  0.5242410000000 1.0
C      1  0.5423350000000  0.5283580000000  0.4964360000000 1.0
C      1  0.5284660000000  0.5454420000000  0.4787120000000 1.0
C      1  0.5205020000000  0.5350860000000  0.4534350000000 1.0
C      1  0.4928780000000  0.5355830000000  0.4467470000000 1.0
C      1  0.4748020000000  0.5223230000000  0.4640880000000 1.0
C      1  0.4520960000000  0.5364840000000  0.4741140000000 1.0
C      1  0.4541090000000  0.5484130000000  0.4997400000000 1.0
C      1  0.4642990000000  0.5326770000000  0.5212020000000 1.0
END
