TITL C-2622963-3633-207 -0.00208568859800909 125000 -675.703145151296 0 0 110 (C1) n - 1
REM
REM in /nfs/bkarasulu/CARBON/AIRSS/Generating-Clusters/AIREBO/with-SteepDescent/Higher-Symm/SD-CG/HFTN-CG
REM
REM
REM
REM
REM
REM ./C.cell (b20cbc046b6831c77cfcea5457e17084)
REM
REM compiler GCC version 9.2.1 20190827 (Red Hat 9.2.1-1)
REM options -cpp -mtune=generic -march=x86-64 -g -O0 -fpre-include=/usr/include/finclude/math-vector-fortran.h
REM seed -1215135279 389622340 112449369 -1701222379 -1713697780 242492076 1600829135 1236221411 -1495580086 180063270 372410871 -335617429 2119048993 1580877521 1741438683 1689305502 389567799 1639481299 -1725205052 -1238794439 1842158166 -1762519162 1025382724 -1935068905 -935410543 -1769977003 -1572371542 620083666 -391003317 -1367570587 940246081 559089954 1329168998
REM
CELL 1.54180   50.00000   50.00000   50.00000   90.00000   90.00000   90.00000
LATT -1
SFAC C  
C      1  0.4633000000000  0.5828270000000  0.4728970000000 1.0
C      1  0.4764050000000  0.5762060000000  0.4508120000000 1.0
C      1  0.5082760000000  0.5694410000000  0.4410910000000 1.0
C      1  0.5281080000000  0.5825740000000  0.4635640000000 1.0
C      1  0.5452220000000  0.5794790000000  0.4865130000000 1.0
C      1  0.5380670000000  0.5807960000000  0.5142380000000 1.0
C      1  0.5380810000000  0.5633470000000  0.5371890000000 1.0
C      1  0.5140700000000  0.5612960000000  0.5532920000000 1.0
C      1  0.4890260000000  0.5701170000000  0.5446930000000 1.0
C      1  0.4668170000000  0.5776680000000  0.5242490000000 1.0
C      1  0.4539800000000  0.5770360000000  0.4992430000000 1.0
C      1  0.5599500000000  0.4863890000000  0.4319580000000 1.0
C      1  0.5872650000000  0.4901520000000  0.4822630000000 1.0
C      1  0.5890380000000  0.4822750000000  0.5358130000000 1.0
C      1  0.5613480000000  0.4790950000000  0.5811210000000 1.0
C      1  0.5064010000000  0.4781350000000  0.5942680000000 1.0
C      1  0.4559480000000  0.4828090000000  0.5824390000000 1.0
C      1  0.4172090000000  0.4838190000000  0.5496000000000 1.0
C      1  0.4044880000000  0.4886860000000  0.4967950000000 1.0
C      1  0.4220500000000  0.4771220000000  0.4443380000000 1.0
C      1  0.4618930000000  0.4789280000000  0.4120520000000 1.0
C      1  0.5132630000000  0.4817600000000  0.4100880000000 1.0
C      1  0.5307990000000  0.5234050000000  0.5941710000000 1.0
C      1  0.4820660000000  0.5214830000000  0.5918390000000 1.0
C      1  0.4425960000000  0.5295680000000  0.5626540000000 1.0
C      1  0.4108840000000  0.5378220000000  0.5086230000000 1.0
C      1  0.4080870000000  0.5236560000000  0.4626380000000 1.0
C      1  0.4345180000000  0.5181010000000  0.4114800000000 1.0
C      1  0.4847670000000  0.5236400000000  0.4069510000000 1.0
C      1  0.5334790000000  0.5253030000000  0.4144000000000 1.0
C      1  0.5881940000000  0.5399190000000  0.4689810000000 1.0
C      1  0.5856200000000  0.5260720000000  0.5147870000000 1.0
C      1  0.5777250000000  0.5276460000000  0.5632980000000 1.0
C      1  0.4314650000000  0.4706400000000  0.5715730000000 1.0
C      1  0.4117380000000  0.4728970000000  0.5226860000000 1.0
C      1  0.4148880000000  0.4713510000000  0.4711790000000 1.0
C      1  0.4424110000000  0.4643580000000  0.4292730000000 1.0
C      1  0.4884410000000  0.4697410000000  0.4179910000000 1.0
C      1  0.5372290000000  0.4704600000000  0.4230980000000 1.0
C      1  0.5816980000000  0.4796970000000  0.4533840000000 1.0
C      1  0.5858420000000  0.4721010000000  0.5061940000000 1.0
C      1  0.5758960000000  0.4667710000000  0.5580800000000 1.0
C      1  0.5320410000000  0.4679160000000  0.5844930000000 1.0
C      1  0.4808630000000  0.4659730000000  0.5856910000000 1.0
C      1  0.4533660000000  0.4849140000000  0.4972630000000 1.0
C      1  0.4650750000000  0.4973990000000  0.4761930000000 1.0
C      1  0.4848970000000  0.4849620000000  0.4624770000000 1.0
C      1  0.5109420000000  0.4992910000000  0.4652180000000 1.0
C      1  0.5285260000000  0.4778700000000  0.4767590000000 1.0
C      1  0.5473760000000  0.4810400000000  0.4956910000000 1.0
C      1  0.5400370000000  0.4963050000000  0.5174220000000 1.0
C      1  0.5278800000000  0.4822210000000  0.5376440000000 1.0
C      1  0.5016860000000  0.4865980000000  0.5404250000000 1.0
C      1  0.4778190000000  0.4771160000000  0.5345580000000 1.0
C      1  0.4624020000000  0.4945410000000  0.5209420000000 1.0
C      1  0.4946590000000  0.4234600000000  0.4569150000000 1.0
C      1  0.5220990000000  0.4296800000000  0.4573780000000 1.0
C      1  0.5385680000000  0.4234160000000  0.4792810000000 1.0
C      1  0.5523370000000  0.4281730000000  0.5031630000000 1.0
C      1  0.5426100000000  0.4241260000000  0.5302920000000 1.0
C      1  0.5162910000000  0.4189330000000  0.5400980000000 1.0
C      1  0.4890850000000  0.4253540000000  0.5467030000000 1.0
C      1  0.4666880000000  0.4175760000000  0.5314230000000 1.0
C      1  0.4479780000000  0.4241290000000  0.5112810000000 1.0
C      1  0.4545670000000  0.4188270000000  0.4842500000000 1.0
C      1  0.4666900000000  0.4255200000000  0.4596090000000 1.0
C      1  0.4158490000000  0.5114600000000  0.5529760000000 1.0
C      1  0.4042950000000  0.5171970000000  0.4897580000000 1.0
C      1  0.4150090000000  0.5044790000000  0.4357680000000 1.0
C      1  0.4601460000000  0.5071510000000  0.4061640000000 1.0
C      1  0.5113310000000  0.5099080000000  0.4043220000000 1.0
C      1  0.5590210000000  0.5143140000000  0.4245870000000 1.0
C      1  0.5910460000000  0.5186190000000  0.4886670000000 1.0
C      1  0.5892520000000  0.5104140000000  0.5390840000000 1.0
C      1  0.5606310000000  0.5085320000000  0.5855500000000 1.0
C      1  0.5057030000000  0.5055980000000  0.5998280000000 1.0
C      1  0.4591570000000  0.5112600000000  0.5810770000000 1.0
C      1  0.4217750000000  0.4478460000000  0.5824180000000 1.0
C      1  0.4308510000000  0.4467360000000  0.5160120000000 1.0
C      1  0.4358350000000  0.4645640000000  0.4920320000000 1.0
C      1  0.4518360000000  0.4395170000000  0.4398360000000 1.0
C      1  0.4874570000000  0.4629110000000  0.4456140000000 1.0
C      1  0.5324490000000  0.4459350000000  0.4366730000000 1.0
C      1  0.6000440000000  0.4612020000000  0.4447870000000 1.0
C      1  0.5750820000000  0.4458020000000  0.5025700000000 1.0
C      1  0.5582120000000  0.4445710000000  0.5443250000000 1.0
C      1  0.5364280000000  0.4625970000000  0.5548340000000 1.0
C      1  0.4848390000000  0.4464960000000  0.5651240000000 1.0
C      1  0.5664140000000  0.5445610000000  0.5359120000000 1.0
C      1  0.5440600000000  0.5289220000000  0.5648230000000 1.0
C      1  0.5059980000000  0.5359250000000  0.5739270000000 1.0
C      1  0.4622700000000  0.5491980000000  0.5430310000000 1.0
C      1  0.4248670000000  0.5341310000000  0.5337620000000 1.0
C      1  0.4339610000000  0.5547320000000  0.5007440000000 1.0
C      1  0.4321640000000  0.5335130000000  0.4405550000000 1.0
C      1  0.4835590000000  0.5489170000000  0.4298870000000 1.0
C      1  0.5228640000000  0.5431700000000  0.4334060000000 1.0
C      1  0.5695970000000  0.5297890000000  0.4464130000000 1.0
C      1  0.5738190000000  0.5661850000000  0.4828890000000 1.0
C      1  0.4581870000000  0.5373070000000  0.5004950000000 1.0
C      1  0.4619270000000  0.5244120000000  0.4773530000000 1.0
C      1  0.4594000000000  0.5367910000000  0.4505160000000 1.0
C      1  0.4921310000000  0.5242570000000  0.4516690000000 1.0
C      1  0.5231810000000  0.5276400000000  0.4599650000000 1.0
C      1  0.5496450000000  0.5297620000000  0.4684050000000 1.0
C      1  0.5558300000000  0.5413960000000  0.4922170000000 1.0
C      1  0.5456450000000  0.5270340000000  0.5163910000000 1.0
C      1  0.5264750000000  0.5253400000000  0.5412440000000 1.0
C      1  0.4979100000000  0.5264470000000  0.5422880000000 1.0
C      1  0.4708210000000  0.5235340000000  0.5251400000000 1.0
END
