TITL C-2622956-4641-567 -749.483003123644 125000 -627.937903826118 0 0 114 (C1) n - 1
REM
REM in /nfs/bkarasulu/CARBON/AIRSS/Generating-Clusters/AIREBO/with-SteepDescent/Higher-Symm/SD-CG/HFTN-CG
REM
REM
REM
REM
REM
REM ./C.cell (b20cbc046b6831c77cfcea5457e17084)
REM
REM compiler GCC version 9.2.1 20190827 (Red Hat 9.2.1-1)
REM options -cpp -mtune=generic -march=x86-64 -g -O0 -fpre-include=/usr/include/finclude/math-vector-fortran.h
REM seed 1726069859 -1054034152 1930803855 309644948 171759626 509833308 1325855604 -284324929 -396806766 967036873 -1952206476 -388693922 -1078899939 -1535418739 -93542697 -149879695 -575480041 1918928182 1025913271 -232474493 690094958 -1666973872 1482172146 -944561930 -1556041836 -1318463557 837100114 803323060 -774595619 -48623882 835508472 421768122 -88047050
REM
CELL 1.54180   50.00000   50.00000   50.00000   90.00000   90.00000   90.00000
LATT -1
SFAC C  
C      1  0.5357540000000  0.5434540000000  0.5356890000000 1.0
C      1  0.5500620000000  0.4576240000000  0.5068140000000 1.0
C      1  0.5454700000000  0.5399520000000  0.4814450000000 1.0
C      1  0.5188660000000  0.4574760000000  0.4632420000000 1.0
C      1  0.4973580000000  0.5468490000000  0.4493760000000 1.0
C      1  0.4345500000000  0.4565710000000  0.4718890000000 1.0
C      1  0.4470620000000  0.5398530000000  0.4974020000000 1.0
C      1  0.4559150000000  0.4532380000000  0.5196690000000 1.0
C      1  0.4892820000000  0.5471950000000  0.5597780000000 1.0
C      1  0.5323390000000  0.4533650000000  0.5550060000000 1.0
C      1  0.4860570000000  0.4379140000000  0.5404780000000 1.0
C      1  0.5065340000000  0.5659700000000  0.5209080000000 1.0
C      1  0.5196850000000  0.4333190000000  0.5160640000000 1.0
C      1  0.5539350000000  0.5671030000000  0.5091160000000 1.0
C      1  0.5481160000000  0.4334220000000  0.4751110000000 1.0
C      1  0.5332120000000  0.5639740000000  0.4520990000000 1.0
C      1  0.4939270000000  0.4336640000000  0.4439330000000 1.0
C      1  0.4676290000000  0.5618700000000  0.4712740000000 1.0
C      1  0.4651860000000  0.4262690000000  0.4873480000000 1.0
C      1  0.4574850000000  0.5676840000000  0.5239940000000 1.0
C      1  0.4426190000000  0.4445250000000  0.4453570000000 1.0
C      1  0.4126100000000  0.5604520000000  0.4751350000000 1.0
C      1  0.4233840000000  0.4438460000000  0.5243570000000 1.0
C      1  0.4466690000000  0.5514540000000  0.5754560000000 1.0
C      1  0.5057660000000  0.4441770000000  0.5907540000000 1.0
C      1  0.5458150000000  0.5606220000000  0.5633660000000 1.0
C      1  0.5756580000000  0.4423830000000  0.5233450000000 1.0
C      1  0.5780370000000  0.5505360000000  0.4801570000000 1.0
C      1  0.5432850000000  0.4520090000000  0.4398950000000 1.0
C      1  0.4930180000000  0.5571900000000  0.4167810000000 1.0
C      1  0.4833140000000  0.3993360000000  0.4974730000000 1.0
C      1  0.4690060000000  0.5966480000000  0.5030380000000 1.0
C      1  0.4913260000000  0.4059610000000  0.5299760000000 1.0
C      1  0.5003280000000  0.5967820000000  0.5110680000000 1.0
C      1  0.5201460000000  0.4001440000000  0.5128970000000 1.0
C      1  0.5294290000000  0.5900460000000  0.4991910000000 1.0
C      1  0.5237200000000  0.4099770000000  0.4839690000000 1.0
C      1  0.5159380000000  0.5842060000000  0.4733390000000 1.0
C      1  0.4974560000000  0.4112760000000  0.4693820000000 1.0
C      1  0.4865810000000  0.5899600000000  0.4742120000000 1.0
C      1  0.5829900000000  0.4720100000000  0.5237140000000 1.0
C      1  0.5837990000000  0.5251460000000  0.4654740000000 1.0
C      1  0.5449810000000  0.4745140000000  0.4224160000000 1.0
C      1  0.4917200000000  0.5283810000000  0.4144670000000 1.0
C      1  0.4417570000000  0.4740330000000  0.4367000000000 1.0
C      1  0.4132440000000  0.5330180000000  0.4772430000000 1.0
C      1  0.4225330000000  0.4723610000000  0.5303220000000 1.0
C      1  0.4493030000000  0.5227530000000  0.5775030000000 1.0
C      1  0.5053030000000  0.4727490000000  0.5929110000000 1.0
C      1  0.5525660000000  0.5317860000000  0.5696770000000 1.0
C      1  0.4412910000000  0.4791950000000  0.5501880000000 1.0
C      1  0.4741110000000  0.5121600000000  0.5861130000000 1.0
C      1  0.5297180000000  0.4869320000000  0.5861000000000 1.0
C      1  0.5679180000000  0.5216430000000  0.5468580000000 1.0
C      1  0.5807420000000  0.4807630000000  0.4959450000000 1.0
C      1  0.5646280000000  0.5176210000000  0.4466900000000 1.0
C      1  0.5182700000000  0.4835020000000  0.4194380000000 1.0
C      1  0.4696750000000  0.5187370000000  0.4284960000000 1.0
C      1  0.4254550000000  0.4905310000000  0.4528630000000 1.0
C      1  0.4196850000000  0.5222650000000  0.5072670000000 1.0
C      1  0.4641930000000  0.4270370000000  0.4542590000000 1.0
C      1  0.4377870000000  0.5688540000000  0.4838770000000 1.0
C      1  0.4425180000000  0.4230800000000  0.5114640000000 1.0
C      1  0.4648990000000  0.5609890000000  0.5553850000000 1.0
C      1  0.5110260000000  0.4378040000000  0.5636510000000 1.0
C      1  0.5352070000000  0.5765610000000  0.5358750000000 1.0
C      1  0.5515640000000  0.4247010000000  0.5078020000000 1.0
C      1  0.5548890000000  0.5720740000000  0.4754760000000 1.0
C      1  0.5270110000000  0.4276660000000  0.4490410000000 1.0
C      1  0.5080160000000  0.5761090000000  0.4357150000000 1.0
C      1  0.4613770000000  0.5080940000000  0.4718540000000 1.0
C      1  0.4547680000000  0.4917720000000  0.4978330000000 1.0
C      1  0.4645190000000  0.5032110000000  0.5284410000000 1.0
C      1  0.4877560000000  0.4920110000000  0.5482150000000 1.0
C      1  0.5145340000000  0.5076390000000  0.5478210000000 1.0
C      1  0.5376820000000  0.4954510000000  0.5299800000000 1.0
C      1  0.5485990000000  0.5042110000000  0.4989850000000 1.0
C      1  0.5375820000000  0.4951530000000  0.4698500000000 1.0
C      1  0.5125450000000  0.5060370000000  0.4531380000000 1.0
C      1  0.4853760000000  0.4932660000000  0.4564720000000 1.0
C      1  0.4423870000000  0.5119450000000  0.5505280000000 1.0
C      1  0.4804540000000  0.4825060000000  0.5779200000000 1.0
C      1  0.5260540000000  0.5160360000000  0.5769800000000 1.0
C      1  0.5665250000000  0.4892100000000  0.5451310000000 1.0
C      1  0.5789830000000  0.5136910000000  0.4951280000000 1.0
C      1  0.5600850000000  0.4869080000000  0.4481800000000 1.0
C      1  0.5173180000000  0.5153550000000  0.4231100000000 1.0
C      1  0.4684090000000  0.4857080000000  0.4299270000000 1.0
C      1  0.4330930000000  0.5197580000000  0.4584820000000 1.0
C      1  0.4231400000000  0.4912740000000  0.5058290000000 1.0
C      1  0.4571650000000  0.5395620000000  0.4477830000000 1.0
C      1  0.4161620000000  0.4779420000000  0.4779060000000 1.0
C      1  0.4400290000000  0.5389980000000  0.5298970000000 1.0
C      1  0.4657830000000  0.4575150000000  0.5595530000000 1.0
C      1  0.4958750000000  0.5293370000000  0.5806730000000 1.0
C      1  0.5468790000000  0.4733050000000  0.5679790000000 1.0
C      1  0.5698920000000  0.5380400000000  0.5170920000000 1.0
C      1  0.5652720000000  0.4626890000000  0.4715000000000 1.0
C      1  0.5412090000000  0.5335250000000  0.4391380000000 1.0
C      1  0.4952900000000  0.4648710000000  0.4301710000000 1.0
C      1  0.5319200000000  0.5288720000000  0.5087730000000 1.0
C      1  0.5283290000000  0.4715220000000  0.4885690000000 1.0
C      1  0.5179910000000  0.5313670000000  0.4715370000000 1.0
C      1  0.4891810000000  0.4662930000000  0.4696540000000 1.0
C      1  0.4835790000000  0.5323650000000  0.4768980000000 1.0
C      1  0.4627310000000  0.4603230000000  0.4876540000000 1.0
C      1  0.4741000000000  0.5249520000000  0.5087020000000 1.0
C      1  0.4850570000000  0.4691720000000  0.5270870000000 1.0
C      1  0.5025550000000  0.5362030000000  0.5345700000000 1.0
C      1  0.5261050000000  0.4635740000000  0.5275510000000 1.0
C      1  0.4900910000000  0.4371870000000  0.5066830000000 1.0
C      1  0.4809930000000  0.5628920000000  0.5025410000000 1.0
C      1  0.5039080000000  0.5135060000000  0.5091680000000 1.0
C      1  0.5062300000000  0.4834860000000  0.5083640000000 1.0
END
