TITL C-2622963-3633-604 -0.000390802991061785 125000 -1110.08305604341 0 0 191 (C1) n - 1
REM
REM in /nfs/bkarasulu/CARBON/AIRSS/Generating-Clusters/AIREBO/with-SteepDescent/Higher-Symm/SD-CG/HFTN-CG
REM
REM
REM
REM
REM
REM ./C.cell (b20cbc046b6831c77cfcea5457e17084)
REM
REM compiler GCC version 9.2.1 20190827 (Red Hat 9.2.1-1)
REM options -cpp -mtune=generic -march=x86-64 -g -O0 -fpre-include=/usr/include/finclude/math-vector-fortran.h
REM seed -1582493867 1084146672 -1505496891 2070014913 569510024 -790063824 -878400535 -742515853 -1958196846 -1241724865 -1214226804 -614764446 973690483 -1881549354 393606398 -1233012561 1516443165 -241455164 -458314697 -1296165610 -1908379338 -1972484819 1047945101 1274716408 -611817590 26523116 245339356 -203819851 2029885037 -95785090 -2065744513 -1751682473 1794388733
REM
CELL 1.54180   50.00000   50.00000   50.00000   90.00000   90.00000   90.00000
LATT -1
SFAC C  
C      1  0.5887740000000  0.5365480000000  0.5413260000000 1.0
C      1  0.5657850000000  0.5566480000000  0.5950110000000 1.0
C      1  0.4938370000000  0.5533280000000  0.5969280000000 1.0
C      1  0.4220650000000  0.5502040000000  0.5775250000000 1.0
C      1  0.4063200000000  0.5445970000000  0.5325070000000 1.0
C      1  0.4090810000000  0.5482680000000  0.4685580000000 1.0
C      1  0.3954670000000  0.5298400000000  0.4031500000000 1.0
C      1  0.5018150000000  0.5518030000000  0.3966110000000 1.0
C      1  0.5793190000000  0.5338690000000  0.4171510000000 1.0
C      1  0.6034760000000  0.5616760000000  0.4573120000000 1.0
C      1  0.5232750000000  0.4443540000000  0.4625690000000 1.0
C      1  0.5391400000000  0.4509060000000  0.4882970000000 1.0
C      1  0.5510350000000  0.4468710000000  0.5183170000000 1.0
C      1  0.5320700000000  0.4388270000000  0.5400920000000 1.0
C      1  0.5032170000000  0.4462020000000  0.5429720000000 1.0
C      1  0.4723910000000  0.4442920000000  0.5330640000000 1.0
C      1  0.4468920000000  0.4442070000000  0.5137130000000 1.0
C      1  0.4521220000000  0.4464830000000  0.4835370000000 1.0
C      1  0.4678150000000  0.4418160000000  0.4588070000000 1.0
C      1  0.4938770000000  0.4512510000000  0.4517280000000 1.0
C      1  0.5564450000000  0.5232160000000  0.4076560000000 1.0
C      1  0.5911070000000  0.5347520000000  0.4474260000000 1.0
C      1  0.6093430000000  0.5323430000000  0.5147600000000 1.0
C      1  0.5625150000000  0.5277060000000  0.5873600000000 1.0
C      1  0.5077860000000  0.5301920000000  0.6002110000000 1.0
C      1  0.4450330000000  0.5328580000000  0.5849550000000 1.0
C      1  0.4045150000000  0.5353700000000  0.5604200000000 1.0
C      1  0.3985340000000  0.5276060000000  0.4837280000000 1.0
C      1  0.4137290000000  0.5246590000000  0.4202240000000 1.0
C      1  0.4787850000000  0.5324030000000  0.3972950000000 1.0
C      1  0.5570800000000  0.5777980000000  0.4499050000000 1.0
C      1  0.5799150000000  0.5837860000000  0.4948930000000 1.0
C      1  0.5660760000000  0.5799120000000  0.5393780000000 1.0
C      1  0.5250600000000  0.5831580000000  0.5692010000000 1.0
C      1  0.4785730000000  0.5905170000000  0.5736320000000 1.0
C      1  0.4427600000000  0.5831330000000  0.5460370000000 1.0
C      1  0.4291450000000  0.5771640000000  0.5016830000000 1.0
C      1  0.4396720000000  0.5831340000000  0.4566500000000 1.0
C      1  0.4781820000000  0.5759920000000  0.4310370000000 1.0
C      1  0.5236450000000  0.5825000000000  0.4256910000000 1.0
C      1  0.4743830000000  0.4027220000000  0.4581080000000 1.0
C      1  0.5026330000000  0.4079960000000  0.4535130000000 1.0
C      1  0.5304270000000  0.4052780000000  0.4646040000000 1.0
C      1  0.5446630000000  0.4107790000000  0.4889340000000 1.0
C      1  0.5444750000000  0.4064850000000  0.5167360000000 1.0
C      1  0.5251310000000  0.3998110000000  0.5383040000000 1.0
C      1  0.4973290000000  0.4057870000000  0.5433700000000 1.0
C      1  0.4698520000000  0.4045650000000  0.5339320000000 1.0
C      1  0.4537930000000  0.4050300000000  0.5100450000000 1.0
C      1  0.4561360000000  0.4068060000000  0.4815640000000 1.0
C      1  0.4302840000000  0.5615540000000  0.5282480000000 1.0
C      1  0.4196340000000  0.5735610000000  0.4755790000000 1.0
C      1  0.4512400000000  0.5593810000000  0.4358310000000 1.0
C      1  0.4991410000000  0.5748550000000  0.4126510000000 1.0
C      1  0.5421310000000  0.5566560000000  0.4278560000000 1.0
C      1  0.5844530000000  0.5780700000000  0.4679710000000 1.0
C      1  0.5786420000000  0.5577930000000  0.5167870000000 1.0
C      1  0.5545010000000  0.5735620000000  0.5685650000000 1.0
C      1  0.5018740000000  0.5772730000000  0.5842170000000 1.0
C      1  0.4503370000000  0.5706770000000  0.5739240000000 1.0
C      1  0.4630810000000  0.5298360000000  0.4235850000000 1.0
C      1  0.5290140000000  0.5368680000000  0.4035110000000 1.0
C      1  0.5603070000000  0.5435340000000  0.4509850000000 1.0
C      1  0.5833290000000  0.5337980000000  0.4929160000000 1.0
C      1  0.5629030000000  0.5423200000000  0.5580850000000 1.0
C      1  0.5255780000000  0.5150950000000  0.5789500000000 1.0
C      1  0.4663940000000  0.5501960000000  0.5954690000000 1.0
C      1  0.4546160000000  0.5403720000000  0.5365080000000 1.0
C      1  0.4107430000000  0.5215040000000  0.5124250000000 1.0
C      1  0.4280040000000  0.5382680000000  0.4454210000000 1.0
C      1  0.4754850000000  0.4832660000000  0.6171530000000 1.0
C      1  0.3994040000000  0.4601230000000  0.5839190000000 1.0
C      1  0.3725660000000  0.4659870000000  0.5095400000000 1.0
C      1  0.3910170000000  0.4689080000000  0.4300410000000 1.0
C      1  0.4537910000000  0.4714100000000  0.3817540000000 1.0
C      1  0.5328470000000  0.4677360000000  0.3739690000000 1.0
C      1  0.6006530000000  0.4673520000000  0.4214820000000 1.0
C      1  0.6273290000000  0.4723430000000  0.4934890000000 1.0
C      1  0.6089840000000  0.4674010000000  0.5711300000000 1.0
C      1  0.5408900000000  0.4558670000000  0.6209600000000 1.0
C      1  0.5284460000000  0.4881630000000  0.4319680000000 1.0
C      1  0.5622670000000  0.4962890000000  0.4622760000000 1.0
C      1  0.5752710000000  0.4953170000000  0.5114130000000 1.0
C      1  0.5566620000000  0.4917750000000  0.5522210000000 1.0
C      1  0.5143180000000  0.4840630000000  0.5785270000000 1.0
C      1  0.4778700000000  0.4981860000000  0.5663630000000 1.0
C      1  0.4333590000000  0.4932690000000  0.5482850000000 1.0
C      1  0.4246780000000  0.4880130000000  0.4959810000000 1.0
C      1  0.4406890000000  0.4966720000000  0.4522830000000 1.0
C      1  0.4910870000000  0.4980930000000  0.4218300000000 1.0
C      1  0.4124100000000  0.4660380000000  0.5117090000000 1.0
C      1  0.4225590000000  0.4729100000000  0.4539720000000 1.0
C      1  0.4713700000000  0.4735430000000  0.4174380000000 1.0
C      1  0.5208950000000  0.4659740000000  0.4119260000000 1.0
C      1  0.5639990000000  0.4723420000000  0.4428900000000 1.0
C      1  0.5875800000000  0.4718290000000  0.4957210000000 1.0
C      1  0.5757170000000  0.4696250000000  0.5494240000000 1.0
C      1  0.5347070000000  0.4627870000000  0.5820870000000 1.0
C      1  0.4782240000000  0.4674550000000  0.5809280000000 1.0
C      1  0.4347510000000  0.4651060000000  0.5627190000000 1.0
C      1  0.5884990000000  0.4395640000000  0.5064390000000 1.0
C      1  0.5686350000000  0.4376280000000  0.5561020000000 1.0
C      1  0.5234480000000  0.4312440000000  0.5831930000000 1.0
C      1  0.4676320000000  0.4352120000000  0.5830170000000 1.0
C      1  0.4241780000000  0.4360880000000  0.5483800000000 1.0
C      1  0.4111440000000  0.4376670000000  0.4953000000000 1.0
C      1  0.4310740000000  0.4417540000000  0.4435670000000 1.0
C      1  0.4782350000000  0.4402510000000  0.4166320000000 1.0
C      1  0.5340480000000  0.4347170000000  0.4144960000000 1.0
C      1  0.5735230000000  0.4416130000000  0.4539490000000 1.0
C      1  0.4617280000000  0.5410800000000  0.4827660000000 1.0
C      1  0.4803980000000  0.5425150000000  0.4634660000000 1.0
C      1  0.4998520000000  0.5609380000000  0.4653190000000 1.0
C      1  0.5231930000000  0.5505020000000  0.4745130000000 1.0
C      1  0.5371970000000  0.5679970000000  0.4897980000000 1.0
C      1  0.5456580000000  0.5572800000000  0.5134960000000 1.0
C      1  0.5266520000000  0.5502320000000  0.5316150000000 1.0
C      1  0.5054930000000  0.5677220000000  0.5336210000000 1.0
C      1  0.4814890000000  0.5573630000000  0.5275740000000 1.0
C      1  0.4650300000000  0.5598600000000  0.5031690000000 1.0
C      1  0.5539980000000  0.5200130000000  0.5017390000000 1.0
C      1  0.5528320000000  0.5203080000000  0.5347810000000 1.0
C      1  0.5226910000000  0.5254300000000  0.5496680000000 1.0
C      1  0.4954480000000  0.5140370000000  0.5425080000000 1.0
C      1  0.4728370000000  0.5197910000000  0.5177710000000 1.0
C      1  0.4434630000000  0.5142970000000  0.5060000000000 1.0
C      1  0.4381580000000  0.5214180000000  0.4731780000000 1.0
C      1  0.4865750000000  0.5212130000000  0.4447880000000 1.0
C      1  0.5172300000000  0.5127850000000  0.4487610000000 1.0
C      1  0.5420680000000  0.5226230000000  0.4697490000000 1.0
C      1  0.4674210000000  0.4897700000000  0.4673780000000 1.0
C      1  0.4915520000000  0.4822270000000  0.4508540000000 1.0
C      1  0.5225360000000  0.4764690000000  0.4626270000000 1.0
C      1  0.5427730000000  0.4852350000000  0.4848130000000 1.0
C      1  0.5488660000000  0.4782390000000  0.5154030000000 1.0
C      1  0.5285660000000  0.4887790000000  0.5350390000000 1.0
C      1  0.5071780000000  0.4766270000000  0.5499970000000 1.0
C      1  0.4760160000000  0.4751670000000  0.5414750000000 1.0
C      1  0.4486200000000  0.4754350000000  0.5253990000000 1.0
C      1  0.4545860000000  0.4767520000000  0.4919320000000 1.0
C      1  0.4275740000000  0.4646230000000  0.5923950000000 1.0
C      1  0.3926830000000  0.4751690000000  0.5351090000000 1.0
C      1  0.3905060000000  0.4737640000000  0.4631720000000 1.0
C      1  0.4399370000000  0.4800720000000  0.4078010000000 1.0
C      1  0.5068800000000  0.4797660000000  0.3861040000000 1.0
C      1  0.5710060000000  0.4721400000000  0.4096190000000 1.0
C      1  0.6051100000000  0.4807110000000  0.4702520000000 1.0
C      1  0.6069050000000  0.4774790000000  0.5418890000000 1.0
C      1  0.5613890000000  0.4694550000000  0.5980190000000 1.0
C      1  0.4944880000000  0.4584380000000  0.6096890000000 1.0
C      1  0.5476480000000  0.5987240000000  0.5257950000000 1.0
C      1  0.5172170000000  0.5967900000000  0.5390370000000 1.0
C      1  0.4846980000000  0.6014210000000  0.5478480000000 1.0
C      1  0.4625720000000  0.5982210000000  0.5314910000000 1.0
C      1  0.4584430000000  0.5914680000000  0.5007920000000 1.0
C      1  0.4613590000000  0.5967630000000  0.4706880000000 1.0
C      1  0.4884580000000  0.5905250000000  0.4586440000000 1.0
C      1  0.5185610000000  0.5963880000000  0.4502000000000 1.0
C      1  0.5396110000000  0.5952010000000  0.4733720000000 1.0
C      1  0.5571610000000  0.6012090000000  0.4993830000000 1.0
C      1  0.4515830000000  0.5162060000000  0.5602480000000 1.0
C      1  0.4046480000000  0.5059770000000  0.5420720000000 1.0
C      1  0.4033470000000  0.4989940000000  0.4773390000000 1.0
C      1  0.4408610000000  0.5078340000000  0.4232030000000 1.0
C      1  0.5061060000000  0.5121820000000  0.3963890000000 1.0
C      1  0.5525130000000  0.4967800000000  0.4143330000000 1.0
C      1  0.5910470000000  0.5110630000000  0.4687650000000 1.0
C      1  0.5962470000000  0.5054690000000  0.5311540000000 1.0
C      1  0.5540610000000  0.4978410000000  0.5837130000000 1.0
C      1  0.4922790000000  0.5023330000000  0.5968850000000 1.0
C      1  0.6135590000000  0.4595880000000  0.5174690000000 1.0
C      1  0.5830800000000  0.4547200000000  0.5812220000000 1.0
C      1  0.5173300000000  0.4435200000000  0.6121170000000 1.0
C      1  0.4549990000000  0.4595900000000  0.6038800000000 1.0
C      1  0.3971760000000  0.4537320000000  0.5569120000000 1.0
C      1  0.3842030000000  0.4544120000000  0.4862900000000 1.0
C      1  0.4186130000000  0.4609020000000  0.4198230000000 1.0
C      1  0.4813470000000  0.4592470000000  0.3883980000000 1.0
C      1  0.5507370000000  0.4546850000000  0.3946330000000 1.0
C      1  0.6010580000000  0.4594750000000  0.4483950000000 1.0
C      1  0.4552410000000  0.4274870000000  0.5543790000000 1.0
C      1  0.4249970000000  0.4200880000000  0.5195410000000 1.0
C      1  0.4294390000000  0.4245620000000  0.4710120000000 1.0
C      1  0.4571980000000  0.4215260000000  0.4354960000000 1.0
C      1  0.5061030000000  0.4302770000000  0.4293470000000 1.0
C      1  0.5437010000000  0.4288250000000  0.4439580000000 1.0
C      1  0.5668450000000  0.4348080000000  0.4836220000000 1.0
C      1  0.5716090000000  0.4216670000000  0.5281930000000 1.0
C      1  0.5428750000000  0.4164490000000  0.5620990000000 1.0
C      1  0.4957820000000  0.4271160000000  0.5684960000000 1.0
C      1  0.4994000000000  0.5082910000000  0.5039950000000 1.0
END
