TITL C-2622954-8726-155 -0.00170244931799886 125000 -1097.8069235621 0 0 200 (C1) n - 1
REM
REM in /nfs/bkarasulu/CARBON/AIRSS/Generating-Clusters/AIREBO/with-SteepDescent/Higher-Symm/SD-CG/HFTN-CG
REM
REM
REM
REM
REM
REM ./C.cell (b20cbc046b6831c77cfcea5457e17084)
REM
REM compiler GCC version 9.2.1 20190827 (Red Hat 9.2.1-1)
REM options -cpp -mtune=generic -march=x86-64 -g -O0 -fpre-include=/usr/include/finclude/math-vector-fortran.h
REM seed -188691188 -828575576 1073236953 665902930 942486328 -1218402309 -909535510 -1040148824 -49588081 -532100476 1449544921 13963898 -1383592400 735353403 163374088 527005813 -2118862684 1692129263 -1799118971 487751353 588746785 -1001354505 1965529174 1813217429 476993359 528272586 478103000 -144566989 -481450400 546451812 -765271583 191782424 1856703533
REM
CELL 1.54180   50.00000   50.00000   50.00000   90.00000   90.00000   90.00000
LATT -1
SFAC C  
C      1  0.4963360000000  0.3953730000000  0.4308530000000 1.0
C      1  0.5646850000000  0.3940330000000  0.5269870000000 1.0
C      1  0.4449960000000  0.4138190000000  0.5475510000000 1.0
C      1  0.3995460000000  0.4696650000000  0.4532200000000 1.0
C      1  0.5953120000000  0.4618090000000  0.4274890000000 1.0
C      1  0.5177670000000  0.4682990000000  0.6044220000000 1.0
C      1  0.5154200000000  0.4977020000000  0.6152260000000 1.0
C      1  0.4026310000000  0.4990930000000  0.4561190000000 1.0
C      1  0.5947690000000  0.4924170000000  0.4294070000000 1.0
C      1  0.5937180000000  0.4933090000000  0.5417440000000 1.0
C      1  0.4158290000000  0.5030140000000  0.5547170000000 1.0
C      1  0.4916420000000  0.4989940000000  0.4062350000000 1.0
C      1  0.4358620000000  0.5626440000000  0.4518250000000 1.0
C      1  0.5753640000000  0.5649830000000  0.4635430000000 1.0
C      1  0.4884500000000  0.5649820000000  0.5858160000000 1.0
C      1  0.5908990000000  0.5410550000000  0.5316330000000 1.0
C      1  0.4434770000000  0.5480730000000  0.5625860000000 1.0
C      1  0.4755200000000  0.5436180000000  0.4234220000000 1.0
C      1  0.4860220000000  0.4519350000000  0.5143020000000 1.0
C      1  0.4881730000000  0.4659650000000  0.4769360000000 1.0
C      1  0.5290840000000  0.4652270000000  0.5071960000000 1.0
C      1  0.4679880000000  0.5990710000000  0.4462740000000 1.0
C      1  0.5582040000000  0.6026300000000  0.4949510000000 1.0
C      1  0.4647490000000  0.5976200000000  0.5551080000000 1.0
C      1  0.4601160000000  0.4217340000000  0.4574340000000 1.0
C      1  0.5567680000000  0.4198220000000  0.4844610000000 1.0
C      1  0.4935090000000  0.4213750000000  0.5514980000000 1.0
C      1  0.4327230000000  0.5084230000000  0.4689820000000 1.0
C      1  0.5721220000000  0.4939900000000  0.4547210000000 1.0
C      1  0.4923850000000  0.4952710000000  0.5903180000000 1.0
C      1  0.5076600000000  0.5299250000000  0.6128400000000 1.0
C      1  0.3994320000000  0.5309630000000  0.4473980000000 1.0
C      1  0.5883160000000  0.5252540000000  0.4359750000000 1.0
C      1  0.4946670000000  0.4651340000000  0.4055910000000 1.0
C      1  0.5983070000000  0.4609140000000  0.5408590000000 1.0
C      1  0.4149100000000  0.4690240000000  0.5540820000000 1.0
C      1  0.4652610000000  0.4531670000000  0.4137830000000 1.0
C      1  0.6063230000000  0.4491990000000  0.5099390000000 1.0
C      1  0.4293180000000  0.4551940000000  0.5822770000000 1.0
C      1  0.5563040000000  0.5455340000000  0.5421800000000 1.0
C      1  0.4277250000000  0.5548920000000  0.5266520000000 1.0
C      1  0.5140020000000  0.5522080000000  0.4235270000000 1.0
C      1  0.4910500000000  0.4509040000000  0.5940310000000 1.0
C      1  0.4217400000000  0.4500680000000  0.4365010000000 1.0
C      1  0.5978130000000  0.4467880000000  0.4560580000000 1.0
C      1  0.5676520000000  0.4189760000000  0.5499340000000 1.0
C      1  0.4205210000000  0.4209220000000  0.5240600000000 1.0
C      1  0.5207080000000  0.4149260000000  0.4174300000000 1.0
C      1  0.4951350000000  0.4509080000000  0.5429030000000 1.0
C      1  0.4627410000000  0.4441820000000  0.4828440000000 1.0
C      1  0.5319600000000  0.4414650000000  0.4830950000000 1.0
C      1  0.4580510000000  0.4551610000000  0.6010400000000 1.0
C      1  0.4331550000000  0.4531740000000  0.4091750000000 1.0
C      1  0.6181700000000  0.4564030000000  0.4788920000000 1.0
C      1  0.4415440000000  0.4607120000000  0.4620140000000 1.0
C      1  0.5728940000000  0.4568160000000  0.4736970000000 1.0
C      1  0.4772840000000  0.4598760000000  0.5663850000000 1.0
C      1  0.5679700000000  0.5076700000000  0.4169100000000 1.0
C      1  0.5405850000000  0.5145840000000  0.6068930000000 1.0
C      1  0.3832550000000  0.5143970000000  0.4759520000000 1.0
C      1  0.4321200000000  0.5957010000000  0.5600710000000 1.0
C      1  0.4775530000000  0.5939440000000  0.4140510000000 1.0
C      1  0.5672300000000  0.5848350000000  0.5223590000000 1.0
C      1  0.6116380000000  0.5020330000000  0.4947590000000 1.0
C      1  0.4481540000000  0.5023080000000  0.6041500000000 1.0
C      1  0.4371030000000  0.4948320000000  0.4163920000000 1.0
C      1  0.5197850000000  0.4725040000000  0.5390990000000 1.0
C      1  0.4597060000000  0.4700670000000  0.5047320000000 1.0
C      1  0.5207780000000  0.4698740000000  0.4681130000000 1.0
C      1  0.5885520000000  0.4754100000000  0.4975590000000 1.0
C      1  0.4373470000000  0.4857100000000  0.5825080000000 1.0
C      1  0.4537800000000  0.4758680000000  0.4348390000000 1.0
C      1  0.4908780000000  0.6194600000000  0.4587600000000 1.0
C      1  0.5313220000000  0.6035780000000  0.5134530000000 1.0
C      1  0.4666150000000  0.6119010000000  0.5263970000000 1.0
C      1  0.5432210000000  0.4506930000000  0.5947590000000 1.0
C      1  0.3950910000000  0.4530870000000  0.4795110000000 1.0
C      1  0.5698530000000  0.4469190000000  0.4167550000000 1.0
C      1  0.4775310000000  0.5344480000000  0.4941860000000 1.0
C      1  0.5180760000000  0.5325940000000  0.4914830000000 1.0
C      1  0.4996410000000  0.5339420000000  0.5200210000000 1.0
C      1  0.5355150000000  0.5105060000000  0.5393300000000 1.0
C      1  0.4495370000000  0.5153740000000  0.5190470000000 1.0
C      1  0.5157540000000  0.5176820000000  0.4544500000000 1.0
C      1  0.5129640000000  0.5251900000000  0.5601250000000 1.0
C      1  0.4386000000000  0.5258150000000  0.4921010000000 1.0
C      1  0.5496870000000  0.5194700000000  0.4566580000000 1.0
C      1  0.5065470000000  0.6123640000000  0.5250110000000 1.0
C      1  0.4703560000000  0.6252630000000  0.5024310000000 1.0
C      1  0.5202450000000  0.6058730000000  0.4600410000000 1.0
C      1  0.3846680000000  0.4987950000000  0.5060190000000 1.0
C      1  0.5494460000000  0.4913350000000  0.4054700000000 1.0
C      1  0.5673210000000  0.4976730000000  0.5939230000000 1.0
C      1  0.4703850000000  0.5664800000000  0.5613530000000 1.0
C      1  0.4664760000000  0.5667540000000  0.4463230000000 1.0
C      1  0.5634640000000  0.5702190000000  0.4916050000000 1.0
C      1  0.4745000000000  0.5122530000000  0.3862300000000 1.0
C      1  0.6182010000000  0.5105300000000  0.5330880000000 1.0
C      1  0.4088110000000  0.5173780000000  0.5804970000000 1.0
C      1  0.4254600000000  0.5722050000000  0.5749300000000 1.0
C      1  0.4688300000000  0.5693920000000  0.4037870000000 1.0
C      1  0.5884860000000  0.5704410000000  0.5353500000000 1.0
C      1  0.5564600000000  0.5740730000000  0.4401780000000 1.0
C      1  0.5158880000000  0.5756470000000  0.5819030000000 1.0
C      1  0.4252100000000  0.5733600000000  0.4792050000000 1.0
C      1  0.5183000000000  0.4318030000000  0.5894800000000 1.0
C      1  0.4122830000000  0.4335350000000  0.4633410000000 1.0
C      1  0.5779160000000  0.4279720000000  0.4393360000000 1.0
C      1  0.4600090000000  0.5280720000000  0.5927170000000 1.0
C      1  0.4405370000000  0.5246810000000  0.4216920000000 1.0
C      1  0.5904110000000  0.5248700000000  0.4835900000000 1.0
C      1  0.4985540000000  0.5570730000000  0.4526140000000 1.0
C      1  0.5422380000000  0.5552650000000  0.5135730000000 1.0
C      1  0.4595920000000  0.5628170000000  0.5292970000000 1.0
C      1  0.4714560000000  0.4915690000000  0.4670210000000 1.0
C      1  0.5503960000000  0.4872120000000  0.4980720000000 1.0
C      1  0.4797240000000  0.4894800000000  0.5497540000000 1.0
C      1  0.4577420000000  0.5148450000000  0.4475480000000 1.0
C      1  0.5617640000000  0.5153780000000  0.4866870000000 1.0
C      1  0.4810870000000  0.5181950000000  0.5678880000000 1.0
C      1  0.5368110000000  0.5679290000000  0.4142950000000 1.0
C      1  0.5569620000000  0.5525690000000  0.5713660000000 1.0
C      1  0.4086150000000  0.5544630000000  0.5022630000000 1.0
C      1  0.6021220000000  0.4846800000000  0.4677830000000 1.0
C      1  0.4694170000000  0.4823420000000  0.6059300000000 1.0
C      1  0.4250030000000  0.4777510000000  0.3978950000000 1.0
C      1  0.4996970000000  0.5225060000000  0.4265570000000 1.0
C      1  0.5692370000000  0.5162880000000  0.5402470000000 1.0
C      1  0.4320860000000  0.5269250000000  0.5419090000000 1.0
C      1  0.5432150000000  0.5241110000000  0.5110440000000 1.0
C      1  0.4714610000000  0.5327500000000  0.5386610000000 1.0
C      1  0.4846250000000  0.5290020000000  0.4628750000000 1.0
C      1  0.4277860000000  0.4796660000000  0.4798790000000 1.0
C      1  0.5516610000000  0.4699460000000  0.4538910000000 1.0
C      1  0.5162320000000  0.4792480000000  0.5722650000000 1.0
C      1  0.5424550000000  0.4645140000000  0.4216110000000 1.0
C      1  0.5615690000000  0.4684220000000  0.5774140000000 1.0
C      1  0.4065360000000  0.4727480000000  0.5047810000000 1.0
C      1  0.5295020000000  0.5892250000000  0.4825840000000 1.0
C      1  0.4902620000000  0.5885030000000  0.5345560000000 1.0
C      1  0.4693390000000  0.6053010000000  0.4797960000000 1.0
C      1  0.5227110000000  0.4091890000000  0.5223340000000 1.0
C      1  0.4688110000000  0.4170200000000  0.5024380000000 1.0
C      1  0.5138170000000  0.4140380000000  0.4743790000000 1.0
C      1  0.5379980000000  0.5847170000000  0.5398930000000 1.0
C      1  0.4373120000000  0.5956430000000  0.5262740000000 1.0
C      1  0.5037080000000  0.6062470000000  0.4301780000000 1.0
C      1  0.5451980000000  0.5650920000000  0.3880920000000 1.0
C      1  0.5599750000000  0.5306100000000  0.5874340000000 1.0
C      1  0.3890200000000  0.5324640000000  0.5022020000000 1.0
C      1  0.5514670000000  0.4674380000000  0.5450310000000 1.0
C      1  0.4332390000000  0.4737600000000  0.5258240000000 1.0
C      1  0.5113160000000  0.4656080000000  0.4352420000000 1.0
C      1  0.4586540000000  0.5348310000000  0.3973000000000 1.0
C      1  0.6097750000000  0.5306940000000  0.5103700000000 1.0
C      1  0.4278520000000  0.5384510000000  0.5889270000000 1.0
C      1  0.4142450000000  0.5876850000000  0.5068110000000 1.0
C      1  0.5355620000000  0.5979070000000  0.4275990000000 1.0
C      1  0.5438000000000  0.5783340000000  0.5701510000000 1.0
C      1  0.4696580000000  0.5016120000000  0.4968570000000 1.0
C      1  0.5248880000000  0.5008420000000  0.4815490000000 1.0
C      1  0.5042330000000  0.5015350000000  0.5294110000000 1.0
C      1  0.4319950000000  0.4161110000000  0.4714130000000 1.0
C      1  0.5603760000000  0.4131360000000  0.4545020000000 1.0
C      1  0.5158520000000  0.4152000000000  0.5675730000000 1.0
C      1  0.5751470000000  0.4381680000000  0.5020320000000 1.0
C      1  0.4516980000000  0.4432870000000  0.5636090000000 1.0
C      1  0.4739380000000  0.4305490000000  0.4312750000000 1.0
C      1  0.5030590000000  0.4342700000000  0.4369310000000 1.0
C      1  0.5604090000000  0.4420930000000  0.5280040000000 1.0
C      1  0.4415240000000  0.4442080000000  0.5338920000000 1.0
C      1  0.5210260000000  0.5593640000000  0.4756300000000 1.0
C      1  0.5133810000000  0.5636110000000  0.5295360000000 1.0
C      1  0.4567620000000  0.5824620000000  0.5016440000000 1.0
C      1  0.5825890000000  0.4477600000000  0.5604450000000 1.0
C      1  0.4021840000000  0.4489920000000  0.5297290000000 1.0
C      1  0.5215010000000  0.4444070000000  0.4030100000000 1.0
C      1  0.4476920000000  0.4916070000000  0.5513640000000 1.0
C      1  0.4846340000000  0.4870950000000  0.4373070000000 1.0
C      1  0.5689810000000  0.4807650000000  0.5225680000000 1.0
C      1  0.4866210000000  0.4030760000000  0.4571580000000 1.0
C      1  0.5464860000000  0.3978920000000  0.5030390000000 1.0
C      1  0.4719450000000  0.4064340000000  0.5346000000000 1.0
C      1  0.4858070000000  0.5426240000000  0.6015880000000 1.0
C      1  0.4220860000000  0.5431710000000  0.4373590000000 1.0
C      1  0.5896930000000  0.5409670000000  0.4587050000000 1.0
C      1  0.5332370000000  0.4100860000000  0.4469680000000 1.0
C      1  0.5361990000000  0.4109180000000  0.5494030000000 1.0
C      1  0.4361540000000  0.4113560000000  0.4989820000000 1.0
C      1  0.4947690000000  0.3903640000000  0.5177010000000 1.0
C      1  0.4842670000000  0.3897200000000  0.4858170000000 1.0
C      1  0.5175480000000  0.3849510000000  0.4916040000000 1.0
C      1  0.4505980000000  0.5528430000000  0.4875290000000 1.0
C      1  0.5404140000000  0.5491060000000  0.4532840000000 1.0
C      1  0.5154560000000  0.5526930000000  0.5592400000000 1.0
C      1  0.5424220000000  0.4932280000000  0.3789860000000 1.0
C      1  0.5898710000000  0.4947030000000  0.6107350000000 1.0
C      1  0.3611820000000  0.4919450000000  0.5198280000000 1.0
C      1  0.5008150000000  0.4268600000000  0.5030660000000 1.0
C      1  0.5010120000000  0.4787370000000  0.5043890000000 1.0
END
