TITL C-2622956-4641-625 -0.0015066963540141 125000 -724.734000556206 0 0 131 (C1) n - 1
REM
REM in /nfs/bkarasulu/CARBON/AIRSS/Generating-Clusters/AIREBO/with-SteepDescent/Higher-Symm/SD-CG/HFTN-CG
REM
REM
REM
REM
REM
REM ./C.cell (b20cbc046b6831c77cfcea5457e17084)
REM
REM compiler GCC version 9.2.1 20190827 (Red Hat 9.2.1-1)
REM options -cpp -mtune=generic -march=x86-64 -g -O0 -fpre-include=/usr/include/finclude/math-vector-fortran.h
REM seed -2045992156 -829592817 1166462656 -889568199 -74511589 -1474997501 -90940889 -274455389 1559246860 -1050958191 -197205715 -778577200 -996868484 1536066115 -2144000010 -288853561 1351641315 -578249807 -851976596 -1065020113 -764130593 -1012835678 -1899411225 1823459040 370862266 1031465849 1752784063 1144735856 -218697258 -567285851 -1385810354 1730810907 -1055481259
REM
CELL 1.54180   50.00000   50.00000   50.00000   90.00000   90.00000   90.00000
LATT -1
SFAC C  
C      1  0.5439920000000  0.4336670000000  0.5729550000000 1.0
C      1  0.5369040000000  0.4394570000000  0.5265730000000 1.0
C      1  0.5452850000000  0.5519800000000  0.4570640000000 1.0
C      1  0.5736060000000  0.5298820000000  0.5560040000000 1.0
C      1  0.4728900000000  0.4370390000000  0.5265870000000 1.0
C      1  0.4756870000000  0.4948290000000  0.5967620000000 1.0
C      1  0.4732680000000  0.5227360000000  0.4270950000000 1.0
C      1  0.4904660000000  0.5235090000000  0.4786030000000 1.0
C      1  0.4990300000000  0.5377350000000  0.5189000000000 1.0
C      1  0.5190600000000  0.5109110000000  0.5123240000000 1.0
C      1  0.5508390000000  0.4562900000000  0.4162950000000 1.0
C      1  0.5213820000000  0.5742020000000  0.4317630000000 1.0
C      1  0.5637700000000  0.5743630000000  0.5050100000000 1.0
C      1  0.5152370000000  0.4579660000000  0.4466660000000 1.0
C      1  0.4660740000000  0.4554040000000  0.4990360000000 1.0
C      1  0.5304410000000  0.5705430000000  0.5534520000000 1.0
C      1  0.4414600000000  0.4903830000000  0.5120130000000 1.0
C      1  0.4424030000000  0.5085200000000  0.5407590000000 1.0
C      1  0.4260780000000  0.4692020000000  0.5337140000000 1.0
C      1  0.5305660000000  0.5155910000000  0.4270440000000 1.0
C      1  0.5372470000000  0.5220020000000  0.4905600000000 1.0
C      1  0.4959840000000  0.6053330000000  0.4838750000000 1.0
C      1  0.4450110000000  0.5941480000000  0.5247570000000 1.0
C      1  0.5043000000000  0.5785670000000  0.5369920000000 1.0
C      1  0.5111160000000  0.4803040000000  0.5057560000000 1.0
C      1  0.5219190000000  0.5500850000000  0.5781320000000 1.0
C      1  0.5859080000000  0.5223760000000  0.5054020000000 1.0
C      1  0.5179020000000  0.4974130000000  0.4521420000000 1.0
C      1  0.4689760000000  0.4492620000000  0.4191340000000 1.0
C      1  0.5956960000000  0.4738930000000  0.5243650000000 1.0
C      1  0.5759160000000  0.4932000000000  0.5076060000000 1.0
C      1  0.4562900000000  0.5805590000000  0.5467690000000 1.0
C      1  0.4937060000000  0.4771980000000  0.4596880000000 1.0
C      1  0.4479830000000  0.4552070000000  0.4717180000000 1.0
C      1  0.4761740000000  0.4280630000000  0.4418090000000 1.0
C      1  0.4872180000000  0.4090320000000  0.5666960000000 1.0
C      1  0.4907190000000  0.4672240000000  0.4065210000000 1.0
C      1  0.5146150000000  0.5451300000000  0.4324600000000 1.0
C      1  0.5620290000000  0.5147610000000  0.4339280000000 1.0
C      1  0.4219240000000  0.4750490000000  0.4808550000000 1.0
C      1  0.5601320000000  0.4882070000000  0.5345720000000 1.0
C      1  0.4121940000000  0.5053830000000  0.4892500000000 1.0
C      1  0.5563440000000  0.5617470000000  0.5332570000000 1.0
C      1  0.5467890000000  0.5752450000000  0.4796310000000 1.0
C      1  0.5363800000000  0.5049660000000  0.5386550000000 1.0
C      1  0.4827650000000  0.4994400000000  0.4071500000000 1.0
C      1  0.4032870000000  0.4946130000000  0.4316580000000 1.0
C      1  0.4881020000000  0.5543150000000  0.4911460000000 1.0
C      1  0.5401630000000  0.5321020000000  0.5585500000000 1.0
C      1  0.5696510000000  0.5369880000000  0.4493390000000 1.0
C      1  0.4210980000000  0.5270030000000  0.5124620000000 1.0
C      1  0.4475630000000  0.5785930000000  0.4575550000000 1.0
C      1  0.5117010000000  0.4279100000000  0.5724140000000 1.0
C      1  0.4829060000000  0.5022000000000  0.5270550000000 1.0
C      1  0.4368250000000  0.4690930000000  0.5618700000000 1.0
C      1  0.5824580000000  0.5418690000000  0.5311490000000 1.0
C      1  0.5233890000000  0.4563230000000  0.5852000000000 1.0
C      1  0.5989920000000  0.4633650000000  0.4944020000000 1.0
C      1  0.4414280000000  0.4510070000000  0.4050300000000 1.0
C      1  0.5158520000000  0.5917370000000  0.4604750000000 1.0
C      1  0.4823000000000  0.4163440000000  0.5045860000000 1.0
C      1  0.3966220000000  0.5178940000000  0.4431490000000 1.0
C      1  0.4564480000000  0.4870250000000  0.4245550000000 1.0
C      1  0.4396250000000  0.5665190000000  0.5650690000000 1.0
C      1  0.4093660000000  0.4962800000000  0.5218340000000 1.0
C      1  0.5197310000000  0.5302200000000  0.4626010000000 1.0
C      1  0.5253930000000  0.4867870000000  0.5737500000000 1.0
C      1  0.4379370000000  0.4506250000000  0.5129140000000 1.0
C      1  0.4265410000000  0.4803290000000  0.4494840000000 1.0
C      1  0.5554330000000  0.4386490000000  0.5479410000000 1.0
C      1  0.5631970000000  0.4249200000000  0.4813510000000 1.0
C      1  0.5269900000000  0.5456590000000  0.5302750000000 1.0
C      1  0.4531460000000  0.5283980000000  0.5153480000000 1.0
C      1  0.4467590000000  0.4968510000000  0.4712810000000 1.0
C      1  0.4757250000000  0.4698250000000  0.5352660000000 1.0
C      1  0.4454530000000  0.5377070000000  0.5579390000000 1.0
C      1  0.4940270000000  0.4514930000000  0.5572900000000 1.0
C      1  0.4683660000000  0.5046130000000  0.4963980000000 1.0
C      1  0.4985560000000  0.5388310000000  0.5861300000000 1.0
C      1  0.4466840000000  0.5145500000000  0.4423940000000 1.0
C      1  0.5267720000000  0.5011840000000  0.3773260000000 1.0
C      1  0.4292280000000  0.5660230000000  0.4832820000000 1.0
C      1  0.4631980000000  0.4903940000000  0.5592680000000 1.0
C      1  0.5083650000000  0.4102620000000  0.5026370000000 1.0
C      1  0.4750130000000  0.5316200000000  0.5422030000000 1.0
C      1  0.5091500000000  0.4892720000000  0.5444610000000 1.0
C      1  0.4808220000000  0.5164960000000  0.5721140000000 1.0
C      1  0.4803790000000  0.5652010000000  0.5432130000000 1.0
C      1  0.4582990000000  0.4269030000000  0.4629540000000 1.0
C      1  0.5660190000000  0.4014990000000  0.4660980000000 1.0
C      1  0.5371400000000  0.4244590000000  0.5003140000000 1.0
C      1  0.5068340000000  0.5901230000000  0.5123250000000 1.0
C      1  0.4216330000000  0.5147140000000  0.5669650000000 1.0
C      1  0.5211040000000  0.4652690000000  0.4171800000000 1.0
C      1  0.4862160000000  0.4776030000000  0.4896910000000 1.0
C      1  0.5593900000000  0.5423370000000  0.4985420000000 1.0
C      1  0.5333390000000  0.4634050000000  0.4922890000000 1.0
C      1  0.4855250000000  0.5421810000000  0.4388620000000 1.0
C      1  0.5971290000000  0.4793390000000  0.4717460000000 1.0
C      1  0.5162690000000  0.5715810000000  0.4870280000000 1.0
C      1  0.5166620000000  0.4969180000000  0.4058540000000 1.0
C      1  0.5728190000000  0.4889740000000  0.4501070000000 1.0
C      1  0.5032580000000  0.4281690000000  0.4490370000000 1.0
C      1  0.4449400000000  0.4950400000000  0.6041090000000 1.0
C      1  0.4742620000000  0.5853430000000  0.4898220000000 1.0
C      1  0.5599160000000  0.4781730000000  0.4861630000000 1.0
C      1  0.4117790000000  0.5239850000000  0.4648410000000 1.0
C      1  0.4707870000000  0.5541350000000  0.4618710000000 1.0
C      1  0.5049100000000  0.4791050000000  0.5998280000000 1.0
C      1  0.4669830000000  0.4672380000000  0.4478150000000 1.0
C      1  0.5778030000000  0.5305740000000  0.4747360000000 1.0
C      1  0.5658450000000  0.4534090000000  0.4669070000000 1.0
C      1  0.5950210000000  0.4839200000000  0.5569010000000 1.0
C      1  0.5473150000000  0.5876150000000  0.4482350000000 1.0
C      1  0.5662150000000  0.4605050000000  0.4377460000000 1.0
C      1  0.5463620000000  0.5008700000000  0.4679330000000 1.0
C      1  0.4261840000000  0.4768970000000  0.4155990000000 1.0
C      1  0.5922020000000  0.4369900000000  0.4918070000000 1.0
C      1  0.4636140000000  0.4099900000000  0.4846660000000 1.0
C      1  0.4110970000000  0.5528950000000  0.5046260000000 1.0
C      1  0.4616800000000  0.4513480000000  0.5678040000000 1.0
C      1  0.5242400000000  0.4391270000000  0.4732440000000 1.0
C      1  0.4666290000000  0.4227380000000  0.5537680000000 1.0
C      1  0.5736290000000  0.4605650000000  0.5465460000000 1.0
C      1  0.5812520000000  0.5044270000000  0.5698340000000 1.0
C      1  0.4483080000000  0.5863670000000  0.4980830000000 1.0
C      1  0.5137270000000  0.4585310000000  0.5306970000000 1.0
C      1  0.5502410000000  0.5044470000000  0.5761300000000 1.0
C      1  0.4777430000000  0.4614810000000  0.5923230000000 1.0
C      1  0.4278480000000  0.4913370000000  0.5829060000000 1.0
C      1  0.4395180000000  0.5403830000000  0.4634040000000 1.0
END
