TITL C-2622965-4321-291 0.00125186161466762 125000 -608.2594184897 0 0 106 (C1) n - 1
REM
REM in /nfs/bkarasulu/CARBON/AIRSS/Generating-Clusters/AIREBO/with-SteepDescent/Higher-Symm/SD-CG/HFTN-CG
REM
REM
REM
REM
REM
REM ./C.cell (b20cbc046b6831c77cfcea5457e17084)
REM
REM compiler GCC version 9.2.1 20190827 (Red Hat 9.2.1-1)
REM options -cpp -mtune=generic -march=x86-64 -g -O0 -fpre-include=/usr/include/finclude/math-vector-fortran.h
REM seed -686556062 -1643057822 1354930601 248428522 -1482680880 1398996309 128100406 450672484 1294254079 -54084724 97683705 1229485511 -75733559 1061228721 -1752448779 536219984 1209494895 268940861 -829905784 -845122812 -695310211 625688516 1161642202 1256138674 1031246525 -807451920 695488260 -936925483 -1133242985 1312391612 1292017618 815120146 998100262
REM
CELL 1.54180   50.00000   50.00000   50.00000   90.00000   90.00000   90.00000
LATT -1
SFAC C  
C      1  0.5082560000000  0.4114610000000  0.5292130000000 1.0
C      1  0.5748290000000  0.4457110000000  0.5194370000000 1.0
C      1  0.5824800000000  0.5207660000000  0.5230500000000 1.0
C      1  0.5290330000000  0.5903650000000  0.5273720000000 1.0
C      1  0.4512260000000  0.5690060000000  0.5295940000000 1.0
C      1  0.4115900000000  0.5081200000000  0.5252790000000 1.0
C      1  0.4309140000000  0.4383540000000  0.5274000000000 1.0
C      1  0.5594110000000  0.5158050000000  0.4275500000000 1.0
C      1  0.5235230000000  0.5572950000000  0.4233370000000 1.0
C      1  0.4715220000000  0.5531880000000  0.4296480000000 1.0
C      1  0.4373850000000  0.5126710000000  0.4273170000000 1.0
C      1  0.4550680000000  0.4571610000000  0.4201420000000 1.0
C      1  0.5028360000000  0.4373030000000  0.4251700000000 1.0
C      1  0.5526620000000  0.4606700000000  0.4219470000000 1.0
C      1  0.4674610000000  0.5074230000000  0.5292830000000 1.0
C      1  0.4747810000000  0.4742780000000  0.5315420000000 1.0
C      1  0.5050560000000  0.4665960000000  0.5181020000000 1.0
C      1  0.5369610000000  0.4681200000000  0.5295090000000 1.0
C      1  0.5347760000000  0.5157250000000  0.5330270000000 1.0
C      1  0.5152560000000  0.5401760000000  0.5230170000000 1.0
C      1  0.4866690000000  0.5286210000000  0.5183840000000 1.0
C      1  0.5177750000000  0.5821390000000  0.4665070000000 1.0
C      1  0.4479220000000  0.5638280000000  0.4726680000000 1.0
C      1  0.4192270000000  0.4977710000000  0.4695050000000 1.0
C      1  0.4512870000000  0.4389930000000  0.4660400000000 1.0
C      1  0.5211150000000  0.4196610000000  0.4666340000000 1.0
C      1  0.5748450000000  0.4665190000000  0.4646270000000 1.0
C      1  0.5726250000000  0.5386020000000  0.4665810000000 1.0
C      1  0.4272140000000  0.5204470000000  0.4524480000000 1.0
C      1  0.4435150000000  0.4578060000000  0.4464250000000 1.0
C      1  0.4983620000000  0.4243630000000  0.4503740000000 1.0
C      1  0.5598730000000  0.4484820000000  0.4462850000000 1.0
C      1  0.5758680000000  0.5080000000000  0.4562600000000 1.0
C      1  0.5340900000000  0.5680590000000  0.4477330000000 1.0
C      1  0.4690750000000  0.5698830000000  0.4532120000000 1.0
C      1  0.4199530000000  0.5042670000000  0.4964920000000 1.0
C      1  0.4428250000000  0.4396190000000  0.4955710000000 1.0
C      1  0.5146260000000  0.4172840000000  0.4963230000000 1.0
C      1  0.5731120000000  0.4573390000000  0.4909230000000 1.0
C      1  0.5776750000000  0.5151990000000  0.4896670000000 1.0
C      1  0.5314150000000  0.5832650000000  0.4941900000000 1.0
C      1  0.4548500000000  0.5699210000000  0.4996620000000 1.0
C      1  0.5677120000000  0.4677770000000  0.5433760000000 1.0
C      1  0.5661030000000  0.5432110000000  0.5321320000000 1.0
C      1  0.5117390000000  0.5640480000000  0.5409970000000 1.0
C      1  0.4352460000000  0.5460350000000  0.5431130000000 1.0
C      1  0.4270230000000  0.4996150000000  0.5488110000000 1.0
C      1  0.4489130000000  0.4602240000000  0.5462100000000 1.0
C      1  0.5096670000000  0.4305640000000  0.5487070000000 1.0
C      1  0.5513550000000  0.5006240000000  0.5585860000000 1.0
C      1  0.5409490000000  0.5404260000000  0.5555880000000 1.0
C      1  0.4894730000000  0.5578430000000  0.5634840000000 1.0
C      1  0.4512570000000  0.5204770000000  0.5532080000000 1.0
C      1  0.4371120000000  0.4767010000000  0.5718300000000 1.0
C      1  0.4867900000000  0.4526860000000  0.5549220000000 1.0
C      1  0.5324750000000  0.4526450000000  0.5590370000000 1.0
C      1  0.5202590000000  0.5241510000000  0.5750370000000 1.0
C      1  0.4932510000000  0.5325570000000  0.5755810000000 1.0
C      1  0.4708810000000  0.5149060000000  0.5757930000000 1.0
C      1  0.4677320000000  0.4873780000000  0.5823880000000 1.0
C      1  0.4902130000000  0.4700930000000  0.5790940000000 1.0
C      1  0.5189820000000  0.4718590000000  0.5800660000000 1.0
C      1  0.5312060000000  0.4972180000000  0.5797980000000 1.0
C      1  0.5502930000000  0.5045070000000  0.5061230000000 1.0
C      1  0.5301480000000  0.5498750000000  0.4987310000000 1.0
C      1  0.4848960000000  0.5605940000000  0.5069100000000 1.0
C      1  0.4505560000000  0.5154110000000  0.5037080000000 1.0
C      1  0.4552670000000  0.4688260000000  0.5053300000000 1.0
C      1  0.4933660000000  0.4400020000000  0.5031160000000 1.0
C      1  0.5427130000000  0.4581920000000  0.4992750000000 1.0
C      1  0.4311020000000  0.5397240000000  0.5104300000000 1.0
C      1  0.4234650000000  0.4707390000000  0.5175070000000 1.0
C      1  0.4678250000000  0.4300710000000  0.5144300000000 1.0
C      1  0.5387100000000  0.4303660000000  0.5119250000000 1.0
C      1  0.5760860000000  0.4870140000000  0.5173750000000 1.0
C      1  0.5564500000000  0.5668960000000  0.5106670000000 1.0
C      1  0.4963110000000  0.5880340000000  0.5228100000000 1.0
C      1  0.4930340000000  0.5695950000000  0.4681070000000 1.0
C      1  0.4445070000000  0.5359480000000  0.4683740000000 1.0
C      1  0.4482130000000  0.4866490000000  0.4556360000000 1.0
C      1  0.4792790000000  0.4377760000000  0.4658040000000 1.0
C      1  0.5377040000000  0.4419940000000  0.4631020000000 1.0
C      1  0.5497090000000  0.4865240000000  0.4529610000000 1.0
C      1  0.5470560000000  0.5478880000000  0.4626270000000 1.0
C      1  0.4671210000000  0.5029140000000  0.4289540000000 1.0
C      1  0.4766600000000  0.4761410000000  0.4177430000000 1.0
C      1  0.5021920000000  0.4657320000000  0.4206210000000 1.0
C      1  0.5280260000000  0.4803500000000  0.4274310000000 1.0
C      1  0.5330550000000  0.5102350000000  0.4213920000000 1.0
C      1  0.5131380000000  0.5302290000000  0.4206710000000 1.0
C      1  0.4848610000000  0.5279210000000  0.4238940000000 1.0
C      1  0.4681780000000  0.4861490000000  0.4811800000000 1.0
C      1  0.4921540000000  0.4641190000000  0.4803230000000 1.0
C      1  0.5226710000000  0.4689260000000  0.4764330000000 1.0
C      1  0.5336850000000  0.4999250000000  0.4797900000000 1.0
C      1  0.5247350000000  0.5285530000000  0.4753350000000 1.0
C      1  0.4953170000000  0.5404280000000  0.4815900000000 1.0
C      1  0.4709570000000  0.5199750000000  0.4790130000000 1.0
C      1  0.4162800000000  0.4612600000000  0.5493630000000 1.0
C      1  0.4704450000000  0.4270040000000  0.5418170000000 1.0
C      1  0.5508580000000  0.4319640000000  0.5392500000000 1.0
C      1  0.5823900000000  0.4981770000000  0.5484720000000 1.0
C      1  0.5508790000000  0.5709920000000  0.5444810000000 1.0
C      1  0.4739900000000  0.5761900000000  0.5436020000000 1.0
C      1  0.4045820000000  0.5380880000000  0.5305580000000 1.0
C      1  0.5084460000000  0.4957250000000  0.5299670000000 1.0
END
