TITL C-2622953-3516-724 0.00273932761985599 125000 -751.693738699113 0 0 141 (C1) n - 1
REM
REM in /nfs/bkarasulu/CARBON/AIRSS/Generating-Clusters/AIREBO/with-SteepDescent/Higher-Symm/SD-CG/HFTN-CG
REM
REM
REM
REM
REM
REM ./C.cell (b20cbc046b6831c77cfcea5457e17084)
REM
REM compiler GCC version 9.2.1 20190827 (Red Hat 9.2.1-1)
REM options -cpp -mtune=generic -march=x86-64 -g -O0 -fpre-include=/usr/include/finclude/math-vector-fortran.h
REM seed 655277428 666147977 -1425877260 -407336924 -1693650867 1703834877 -996523135 40530857 -1517852800 226144501 2076685983 -2049888515 1565101324 -92881652 607164627 -1990019099 1119672087 409277318 1757151595 1541425765 228746957 97034554 1039863564 -1260642767 1544330480 -667836096 -1785183394 -1760964492 -1809026888 -39591389 1090270705 1597107054 1828821922
REM
CELL 1.54180   50.00000   50.00000   50.00000   90.00000   90.00000   90.00000
LATT -1
SFAC C  
C      1  0.4968090000000  0.5428810000000  0.5168890000000 1.0
C      1  0.5442670000000  0.4815260000000  0.5166230000000 1.0
C      1  0.4627930000000  0.4748280000000  0.5182860000000 1.0
C      1  0.5323700000000  0.4992420000000  0.4114560000000 1.0
C      1  0.4837160000000  0.4849000000000  0.4039250000000 1.0
C      1  0.4886460000000  0.5305790000000  0.4064090000000 1.0
C      1  0.3979420000000  0.4863870000000  0.4803600000000 1.0
C      1  0.5451600000000  0.5864050000000  0.4670640000000 1.0
C      1  0.5605110000000  0.4185840000000  0.4770660000000 1.0
C      1  0.4190170000000  0.5775040000000  0.4745590000000 1.0
C      1  0.6054260000000  0.5200760000000  0.4702870000000 1.0
C      1  0.4712110000000  0.3944640000000  0.4673050000000 1.0
C      1  0.4899120000000  0.4503000000000  0.4221450000000 1.0
C      1  0.4481850000000  0.5611390000000  0.4272500000000 1.0
C      1  0.5612450000000  0.5257100000000  0.4186610000000 1.0
C      1  0.5699500000000  0.5502650000000  0.5343480000000 1.0
C      1  0.5059910000000  0.4182140000000  0.5310530000000 1.0
C      1  0.4291830000000  0.5392040000000  0.5411260000000 1.0
C      1  0.4784510000000  0.5477640000000  0.5450980000000 1.0
C      1  0.5598980000000  0.4883320000000  0.5460450000000 1.0
C      1  0.4653950000000  0.4556100000000  0.5462300000000 1.0
C      1  0.5129500000000  0.4777630000000  0.4044300000000 1.0
C      1  0.4772720000000  0.5096680000000  0.3909140000000 1.0
C      1  0.5150460000000  0.5244920000000  0.4127610000000 1.0
C      1  0.4890490000000  0.5854770000000  0.4551540000000 1.0
C      1  0.5879500000000  0.4642370000000  0.4577220000000 1.0
C      1  0.4213560000000  0.4475580000000  0.4626450000000 1.0
C      1  0.4982960000000  0.5842480000000  0.4854010000000 1.0
C      1  0.5791560000000  0.4604180000000  0.4877030000000 1.0
C      1  0.4184600000000  0.4621580000000  0.4925240000000 1.0
C      1  0.4287500000000  0.4740140000000  0.5582920000000 1.0
C      1  0.5133200000000  0.5705100000000  0.5561780000000 1.0
C      1  0.5533660000000  0.4471300000000  0.5544050000000 1.0
C      1  0.5655690000000  0.5815080000000  0.4881690000000 1.0
C      1  0.5396120000000  0.4102950000000  0.4970930000000 1.0
C      1  0.4010440000000  0.5106750000000  0.5026820000000 1.0
C      1  0.5120080000000  0.4753520000000  0.4702800000000 1.0
C      1  0.4750400000000  0.4998090000000  0.4647660000000 1.0
C      1  0.5116260000000  0.5154750000000  0.4778320000000 1.0
C      1  0.5166010000000  0.4450110000000  0.5841110000000 1.0
C      1  0.4483420000000  0.5118220000000  0.5775880000000 1.0
C      1  0.5341200000000  0.5412710000000  0.5827290000000 1.0
C      1  0.5419320000000  0.4359560000000  0.5764770000000 1.0
C      1  0.4263470000000  0.4948380000000  0.5769200000000 1.0
C      1  0.5251750000000  0.5681790000000  0.5805400000000 1.0
C      1  0.5348310000000  0.4335550000000  0.5214440000000 1.0
C      1  0.4252380000000  0.5087350000000  0.5265210000000 1.0
C      1  0.5517030000000  0.5714900000000  0.5147180000000 1.0
C      1  0.4485310000000  0.4768180000000  0.4918890000000 1.0
C      1  0.5037290000000  0.5532310000000  0.4880730000000 1.0
C      1  0.5481800000000  0.4688980000000  0.4892390000000 1.0
C      1  0.4920410000000  0.4496930000000  0.4740280000000 1.0
C      1  0.4586340000000  0.5287410000000  0.4718690000000 1.0
C      1  0.5434300000000  0.5147350000000  0.4835580000000 1.0
C      1  0.5407890000000  0.4894970000000  0.4651880000000 1.0
C      1  0.4668840000000  0.4692260000000  0.4681680000000 1.0
C      1  0.4893620000000  0.5366730000000  0.4642680000000 1.0
C      1  0.4407040000000  0.5555060000000  0.5134370000000 1.0
C      1  0.5894510000000  0.5289710000000  0.5163740000000 1.0
C      1  0.4795410000000  0.4224540000000  0.5100420000000 1.0
C      1  0.4296520000000  0.4861700000000  0.4380170000000 1.0
C      1  0.5230010000000  0.5641120000000  0.4319600000000 1.0
C      1  0.5514120000000  0.4469630000000  0.4346010000000 1.0
C      1  0.5036910000000  0.5118750000000  0.5411930000000 1.0
C      1  0.5158250000000  0.4851000000000  0.5580300000000 1.0
C      1  0.4821300000000  0.4903530000000  0.5563370000000 1.0
C      1  0.4513880000000  0.4935850000000  0.5421400000000 1.0
C      1  0.5173410000000  0.5430490000000  0.5416280000000 1.0
C      1  0.5305170000000  0.4626510000000  0.5385430000000 1.0
C      1  0.4686400000000  0.4270020000000  0.4781440000000 1.0
C      1  0.4472910000000  0.5582310000000  0.4801660000000 1.0
C      1  0.5766470000000  0.5147830000000  0.4889820000000 1.0
C      1  0.5471820000000  0.5325560000000  0.5523710000000 1.0
C      1  0.4871610000000  0.4488670000000  0.5675320000000 1.0
C      1  0.4580790000000  0.5260890000000  0.5500080000000 1.0
C      1  0.5664790000000  0.4441990000000  0.5147750000000 1.0
C      1  0.4122240000000  0.4775900000000  0.5223570000000 1.0
C      1  0.5209280000000  0.5851460000000  0.5108460000000 1.0
C      1  0.5144450000000  0.4234010000000  0.4539580000000 1.0
C      1  0.4234050000000  0.5239490000000  0.4544800000000 1.0
C      1  0.5598000000000  0.5458910000000  0.4646080000000 1.0
C      1  0.6019150000000  0.5013050000000  0.5258560000000 1.0
C      1  0.4494070000000  0.4185120000000  0.5216980000000 1.0
C      1  0.4553730000000  0.5831590000000  0.5229560000000 1.0
C      1  0.5559080000000  0.4968660000000  0.4358970000000 1.0
C      1  0.4662390000000  0.4476770000000  0.4436080000000 1.0
C      1  0.4727680000000  0.5397920000000  0.4347280000000 1.0
C      1  0.4753090000000  0.5763060000000  0.5452150000000 1.0
C      1  0.5885980000000  0.4878890000000  0.5496870000000 1.0
C      1  0.4446030000000  0.4365250000000  0.5451270000000 1.0
C      1  0.4672240000000  0.5345130000000  0.5098300000000 1.0
C      1  0.5440700000000  0.5148340000000  0.5235110000000 1.0
C      1  0.4873380000000  0.4554150000000  0.5130310000000 1.0
C      1  0.5333370000000  0.5587420000000  0.4816570000000 1.0
C      1  0.5359720000000  0.4417390000000  0.4728220000000 1.0
C      1  0.4288790000000  0.4998570000000  0.4763040000000 1.0
C      1  0.4412170000000  0.5182010000000  0.4991310000000 1.0
C      1  0.5489340000000  0.5398340000000  0.5026050000000 1.0
C      1  0.5160520000000  0.4468050000000  0.4979340000000 1.0
C      1  0.4775600000000  0.4754630000000  0.5865790000000 1.0
C      1  0.4876180000000  0.5289050000000  0.5973620000000 1.0
C      1  0.5256580000000  0.4949780000000  0.5883030000000 1.0
C      1  0.4733860000000  0.4881870000000  0.4336610000000 1.0
C      1  0.5171360000000  0.5144110000000  0.4450520000000 1.0
C      1  0.5069150000000  0.4828490000000  0.4375100000000 1.0
C      1  0.5374180000000  0.5875810000000  0.4401370000000 1.0
C      1  0.5599210000000  0.4227550000000  0.4470380000000 1.0
C      1  0.4034640000000  0.4902060000000  0.4471570000000 1.0
C      1  0.4154220000000  0.4505430000000  0.5412610000000 1.0
C      1  0.5037350000000  0.5929430000000  0.5372060000000 1.0
C      1  0.5821010000000  0.4554710000000  0.5416860000000 1.0
C      1  0.4917540000000  0.3971130000000  0.4909430000000 1.0
C      1  0.4112420000000  0.5567960000000  0.4964850000000 1.0
C      1  0.6030980000000  0.5443880000000  0.4900710000000 1.0
C      1  0.5154800000000  0.5231930000000  0.5930900000000 1.0
C      1  0.5081410000000  0.4711840000000  0.5957270000000 1.0
C      1  0.4697820000000  0.5060330000000  0.5940880000000 1.0
C      1  0.4373520000000  0.4593200000000  0.4431330000000 1.0
C      1  0.4953150000000  0.5651750000000  0.4369330000000 1.0
C      1  0.5696040000000  0.4679410000000  0.4370840000000 1.0
C      1  0.4504210000000  0.5131300000000  0.4365100000000 1.0
C      1  0.5395760000000  0.5394260000000  0.4398830000000 1.0
C      1  0.5206090000000  0.4517160000000  0.4366980000000 1.0
C      1  0.4823560000000  0.5943630000000  0.5107980000000 1.0
C      1  0.5940550000000  0.4721760000000  0.5138590000000 1.0
C      1  0.4229980000000  0.4347400000000  0.5121130000000 1.0
C      1  0.4838010000000  0.4199290000000  0.4486230000000 1.0
C      1  0.4296000000000  0.5559050000000  0.4513020000000 1.0
C      1  0.5751250000000  0.5173050000000  0.4551130000000 1.0
C      1  0.4590320000000  0.4610760000000  0.6050490000000 1.0
C      1  0.4595820000000  0.5473370000000  0.5917350000000 1.0
C      1  0.5525580000000  0.4919200000000  0.5958530000000 1.0
C      1  0.4781460000000  0.5054120000000  0.4969300000000 1.0
C      1  0.5149930000000  0.5078740000000  0.5108210000000 1.0
C      1  0.4989760000000  0.4825920000000  0.4979810000000 1.0
C      1  0.5812370000000  0.5324160000000  0.5610000000000 1.0
C      1  0.4992050000000  0.4205180000000  0.5578210000000 1.0
C      1  0.4360120000000  0.5494570000000  0.5728990000000 1.0
C      1  0.5171160000000  0.4038900000000  0.4816240000000 1.0
C      1  0.4061500000000  0.5320020000000  0.4836830000000 1.0
C      1  0.5844560000000  0.5618460000000  0.4786080000000 1.0
END
