TITL C-2622956-4641-91 0.000353712263406902 125000 -524.155822770745 0 0 94 (C1) n - 1
REM
REM in /nfs/bkarasulu/CARBON/AIRSS/Generating-Clusters/AIREBO/with-SteepDescent/Higher-Symm/SD-CG/HFTN-CG
REM
REM
REM
REM
REM
REM ./C.cell (b20cbc046b6831c77cfcea5457e17084)
REM
REM compiler GCC version 9.2.1 20190827 (Red Hat 9.2.1-1)
REM options -cpp -mtune=generic -march=x86-64 -g -O0 -fpre-include=/usr/include/finclude/math-vector-fortran.h
REM seed -9187811 -856514804 2098724913 1543577824 -1261806643 401971871 -1726970518 -2133076358 1700241979 876870814 -1755292162 1440186504 1880992875 -1396184734 -1797971926 -210103748 -977272659 755598342 744971737 -1278123959 1488306782 -572198979 1220128437 -274481532 1362982667 2130884932 52385207 -493748636 -16797704 -556221694 -549300454 -996547478 2124436850
REM
CELL 1.54180   50.00000   50.00000   50.00000   90.00000   90.00000   90.00000
LATT -1
SFAC C  
C      1  0.5520620000000  0.5179590000000  0.5596970000000 1.0
C      1  0.4463010000000  0.5249140000000  0.4441610000000 1.0
C      1  0.4334830000000  0.5299820000000  0.5711100000000 1.0
C      1  0.5557420000000  0.5221120000000  0.4394360000000 1.0
C      1  0.5271130000000  0.4501330000000  0.5172680000000 1.0
C      1  0.4717550000000  0.4478320000000  0.4814020000000 1.0
C      1  0.4691440000000  0.4455300000000  0.5210370000000 1.0
C      1  0.5325500000000  0.4442560000000  0.4782210000000 1.0
C      1  0.5239010000000  0.4412520000000  0.4297590000000 1.0
C      1  0.4777450000000  0.4436720000000  0.5695980000000 1.0
C      1  0.4671550000000  0.4483920000000  0.4417970000000 1.0
C      1  0.5269020000000  0.4434060000000  0.5671720000000 1.0
C      1  0.5890580000000  0.4932970000000  0.4858110000000 1.0
C      1  0.4185980000000  0.4990490000000  0.5137030000000 1.0
C      1  0.4128220000000  0.5046660000000  0.4817710000000 1.0
C      1  0.5878570000000  0.5027880000000  0.5170860000000 1.0
C      1  0.4815720000000  0.4765740000000  0.5154350000000 1.0
C      1  0.5211560000000  0.4728170000000  0.4746650000000 1.0
C      1  0.5147280000000  0.4777490000000  0.5228850000000 1.0
C      1  0.4902970000000  0.4743170000000  0.4824650000000 1.0
C      1  0.5611940000000  0.4845830000000  0.4514560000000 1.0
C      1  0.4418830000000  0.4853470000000  0.5478670000000 1.0
C      1  0.4458120000000  0.4711250000000  0.4558700000000 1.0
C      1  0.5594330000000  0.4887250000000  0.5449760000000 1.0
C      1  0.4694230000000  0.5605250000000  0.4738010000000 1.0
C      1  0.5315180000000  0.5551290000000  0.5298460000000 1.0
C      1  0.5350930000000  0.5606060000000  0.4666860000000 1.0
C      1  0.4649450000000  0.5665970000000  0.5295530000000 1.0
C      1  0.5340630000000  0.5265300000000  0.5154690000000 1.0
C      1  0.4561420000000  0.5304310000000  0.4825370000000 1.0
C      1  0.4495340000000  0.5241120000000  0.5120880000000 1.0
C      1  0.5486820000000  0.5273780000000  0.4852710000000 1.0
C      1  0.4446410000000  0.4993590000000  0.4748010000000 1.0
C      1  0.5545560000000  0.5002920000000  0.5136960000000 1.0
C      1  0.5472410000000  0.4936630000000  0.4811120000000 1.0
C      1  0.4518580000000  0.4929940000000  0.5173550000000 1.0
C      1  0.5115450000000  0.5521250000000  0.4436680000000 1.0
C      1  0.4752010000000  0.5479700000000  0.5517690000000 1.0
C      1  0.4820180000000  0.5567580000000  0.4458150000000 1.0
C      1  0.5075920000000  0.5497340000000  0.5534090000000 1.0
C      1  0.4281760000000  0.5151620000000  0.5446990000000 1.0
C      1  0.5776820000000  0.5118270000000  0.4627000000000 1.0
C      1  0.5769810000000  0.5239660000000  0.5379390000000 1.0
C      1  0.4228620000000  0.5291550000000  0.4604270000000 1.0
C      1  0.4883910000000  0.4692090000000  0.5695140000000 1.0
C      1  0.5149160000000  0.4672320000000  0.4279890000000 1.0
C      1  0.5165390000000  0.4690360000000  0.5696730000000 1.0
C      1  0.4874220000000  0.4692470000000  0.4294520000000 1.0
C      1  0.4406490000000  0.5629230000000  0.5151110000000 1.0
C      1  0.5588060000000  0.5671760000000  0.4896230000000 1.0
C      1  0.5597860000000  0.5644550000000  0.5173740000000 1.0
C      1  0.4405070000000  0.5668320000000  0.4866920000000 1.0
C      1  0.4220160000000  0.4664910000000  0.5187240000000 1.0
C      1  0.5841300000000  0.4603020000000  0.4842620000000 1.0
C      1  0.5801080000000  0.4696730000000  0.5165590000000 1.0
C      1  0.4184880000000  0.4712990000000  0.4850680000000 1.0
C      1  0.4741520000000  0.4143130000000  0.4878980000000 1.0
C      1  0.5245840000000  0.4164200000000  0.5117550000000 1.0
C      1  0.5273280000000  0.4116210000000  0.4837120000000 1.0
C      1  0.4730780000000  0.4125190000000  0.5163900000000 1.0
C      1  0.5297710000000  0.4883610000000  0.4456460000000 1.0
C      1  0.4758270000000  0.4872490000000  0.5485210000000 1.0
C      1  0.4760420000000  0.4843040000000  0.4554630000000 1.0
C      1  0.5277830000000  0.4879850000000  0.5491790000000 1.0
C      1  0.5410730000000  0.5484510000000  0.5617920000000 1.0
C      1  0.4638050000000  0.5444290000000  0.4295910000000 1.0
C      1  0.4539480000000  0.5445390000000  0.5742020000000 1.0
C      1  0.5450930000000  0.5514250000000  0.4370360000000 1.0
C      1  0.4197750000000  0.5556880000000  0.4705930000000 1.0
C      1  0.5803480000000  0.5504560000000  0.5312070000000 1.0
C      1  0.5725890000000  0.5436590000000  0.4724380000000 1.0
C      1  0.4243420000000  0.5393960000000  0.5239000000000 1.0
C      1  0.5179730000000  0.5207000000000  0.4795660000000 1.0
C      1  0.4808100000000  0.5240990000000  0.5148550000000 1.0
C      1  0.4879070000000  0.5257260000000  0.4804920000000 1.0
C      1  0.5082020000000  0.5077560000000  0.5095330000000 1.0
C      1  0.5185640000000  0.5176260000000  0.5511840000000 1.0
C      1  0.4743680000000  0.5132720000000  0.4523320000000 1.0
C      1  0.4869390000000  0.5165460000000  0.5460960000000 1.0
C      1  0.5229060000000  0.5203070000000  0.4481470000000 1.0
C      1  0.5148650000000  0.4264530000000  0.4559730000000 1.0
C      1  0.4854820000000  0.4281010000000  0.5435990000000 1.0
C      1  0.4839520000000  0.4269660000000  0.4586790000000 1.0
C      1  0.5165110000000  0.4293140000000  0.5411090000000 1.0
C      1  0.4886410000000  0.5792930000000  0.4871790000000 1.0
C      1  0.5155390000000  0.5785840000000  0.5161770000000 1.0
C      1  0.5195310000000  0.5804630000000  0.4855130000000 1.0
C      1  0.4846980000000  0.5819540000000  0.5176360000000 1.0
C      1  0.4152800000000  0.4584020000000  0.4572070000000 1.0
C      1  0.5785370000000  0.4656190000000  0.5467540000000 1.0
C      1  0.5769010000000  0.4604480000000  0.4535790000000 1.0
C      1  0.4223510000000  0.4616700000000  0.5482520000000 1.0
C      1  0.5549470000000  0.4547490000000  0.5005460000000 1.0
C      1  0.4457870000000  0.4564030000000  0.4989400000000 1.0
END
