TITL C-2622956-4641-396 0.000168218141208702 125000 -440.199617522589 0 0 84 (C1) n - 1
REM
REM in /nfs/bkarasulu/CARBON/AIRSS/Generating-Clusters/AIREBO/with-SteepDescent/Higher-Symm/SD-CG/HFTN-CG
REM
REM
REM
REM
REM
REM ./C.cell (b20cbc046b6831c77cfcea5457e17084)
REM
REM compiler GCC version 9.2.1 20190827 (Red Hat 9.2.1-1)
REM options -cpp -mtune=generic -march=x86-64 -g -O0 -fpre-include=/usr/include/finclude/math-vector-fortran.h
REM seed -1990283894 -143015870 412955560 -2099477838 -76488304 1801556581 -1026966324 866502048 -1408064613 -44092077 810580212 900020439 1891476400 575590419 -1483841107 353250170 -868220454 -347675302 1394065922 1499931886 -1555360779 124374047 -1322131111 -1741849918 -73973850 1546143178 -1767027740 2008516178 53216486 -643535796 2066275052 -1389643735 -424542298
REM
CELL 1.54180   50.00000   50.00000   50.00000   90.00000   90.00000   90.00000
LATT -1
SFAC C  
C      1  0.5228410000000  0.5199080000000  0.5284660000000 1.0
C      1  0.5252280000000  0.4794310000000  0.5269370000000 1.0
C      1  0.5260660000000  0.4692120000000  0.4883930000000 1.0
C      1  0.5264000000000  0.5024050000000  0.4666910000000 1.0
C      1  0.5273410000000  0.5336750000000  0.4912140000000 1.0
C      1  0.5598540000000  0.4630060000000  0.4680820000000 1.0
C      1  0.5650900000000  0.5202770000000  0.4545170000000 1.0
C      1  0.5587340000000  0.5535540000000  0.5039870000000 1.0
C      1  0.5562390000000  0.5159350000000  0.5566970000000 1.0
C      1  0.5594230000000  0.4591050000000  0.5253090000000 1.0
C      1  0.5574040000000  0.4897170000000  0.4609940000000 1.0
C      1  0.5596200000000  0.5239870000000  0.4866140000000 1.0
C      1  0.5543310000000  0.5290630000000  0.5258340000000 1.0
C      1  0.5564400000000  0.4904060000000  0.5353280000000 1.0
C      1  0.5556100000000  0.4567680000000  0.4984360000000 1.0
C      1  0.4747800000000  0.4750040000000  0.4210410000000 1.0
C      1  0.4625540000000  0.5650030000000  0.4559100000000 1.0
C      1  0.4701370000000  0.5595980000000  0.5455880000000 1.0
C      1  0.4673730000000  0.4729890000000  0.5786780000000 1.0
C      1  0.4602860000000  0.4121480000000  0.5035300000000 1.0
C      1  0.4600460000000  0.5132330000000  0.5413560000000 1.0
C      1  0.4624470000000  0.4631230000000  0.5309510000000 1.0
C      1  0.4609140000000  0.4783200000000  0.4722550000000 1.0
C      1  0.4662070000000  0.5088750000000  0.4670960000000 1.0
C      1  0.4597710000000  0.5357920000000  0.4903380000000 1.0
C      1  0.5141560000000  0.5832190000000  0.4811730000000 1.0
C      1  0.5218240000000  0.5416760000000  0.5770830000000 1.0
C      1  0.5188180000000  0.4420270000000  0.5618610000000 1.0
C      1  0.5150800000000  0.4240240000000  0.4671910000000 1.0
C      1  0.5195160000000  0.5129040000000  0.4119730000000 1.0
C      1  0.4954960000000  0.5464030000000  0.5177790000000 1.0
C      1  0.4981610000000  0.4931360000000  0.5540830000000 1.0
C      1  0.4914200000000  0.4496240000000  0.5070190000000 1.0
C      1  0.5015380000000  0.4756730000000  0.4505860000000 1.0
C      1  0.4970370000000  0.5419960000000  0.4540190000000 1.0
C      1  0.4873090000000  0.5040910000000  0.4188020000000 1.0
C      1  0.4779590000000  0.5847370000000  0.4757830000000 1.0
C      1  0.4868790000000  0.5463060000000  0.5694820000000 1.0
C      1  0.4832130000000  0.4440840000000  0.5703170000000 1.0
C      1  0.4577870000000  0.4270020000000  0.4731430000000 1.0
C      1  0.4364770000000  0.5466480000000  0.4680600000000 1.0
C      1  0.4433450000000  0.5418040000000  0.5356450000000 1.0
C      1  0.4445290000000  0.4790480000000  0.5551190000000 1.0
C      1  0.4414610000000  0.4402530000000  0.5000730000000 1.0
C      1  0.4266220000000  0.4847010000000  0.4495490000000 1.0
C      1  0.5451870000000  0.5279400000000  0.5780530000000 1.0
C      1  0.5352220000000  0.4503280000000  0.5414470000000 1.0
C      1  0.5340720000000  0.4430820000000  0.4681510000000 1.0
C      1  0.5442420000000  0.5171470000000  0.4343440000000 1.0
C      1  0.5334480000000  0.5671190000000  0.4919130000000 1.0
C      1  0.4901210000000  0.4177170000000  0.5150520000000 1.0
C      1  0.4972060000000  0.4553660000000  0.4236580000000 1.0
C      1  0.4825720000000  0.5600290000000  0.4288720000000 1.0
C      1  0.4916780000000  0.5764340000000  0.5291610000000 1.0
C      1  0.4930290000000  0.4932650000000  0.5882100000000 1.0
C      1  0.4930930000000  0.4713640000000  0.5305650000000 1.0
C      1  0.4926720000000  0.4723340000000  0.4819480000000 1.0
C      1  0.4962630000000  0.5092680000000  0.4511970000000 1.0
C      1  0.4936110000000  0.5349440000000  0.4871080000000 1.0
C      1  0.4895270000000  0.5177810000000  0.5349860000000 1.0
C      1  0.4300180000000  0.5194980000000  0.4877370000000 1.0
C      1  0.4350950000000  0.5155490000000  0.5181110000000 1.0
C      1  0.4381890000000  0.4850500000000  0.5234830000000 1.0
C      1  0.4389200000000  0.4700210000000  0.4954370000000 1.0
C      1  0.4237240000000  0.4920610000000  0.4762290000000 1.0
C      1  0.4635730000000  0.5862070000000  0.5003180000000 1.0
C      1  0.4688760000000  0.5281110000000  0.5856660000000 1.0
C      1  0.4666890000000  0.4249970000000  0.5564710000000 1.0
C      1  0.4499710000000  0.4366990000000  0.4475810000000 1.0
C      1  0.4646500000000  0.5256950000000  0.4191420000000 1.0
C      1  0.4564420000000  0.4327490000000  0.5302990000000 1.0
C      1  0.4533020000000  0.4676600000000  0.4419360000000 1.0
C      1  0.4576980000000  0.5331590000000  0.4454970000000 1.0
C      1  0.4585140000000  0.5608990000000  0.5132880000000 1.0
C      1  0.4590820000000  0.5051920000000  0.5712690000000 1.0
C      1  0.5010690000000  0.5749360000000  0.4531960000000 1.0
C      1  0.5125090000000  0.5471920000000  0.5471390000000 1.0
C      1  0.5063110000000  0.4676580000000  0.5734290000000 1.0
C      1  0.4890030000000  0.4292000000000  0.4800790000000 1.0
C      1  0.5269600000000  0.4893450000000  0.4352970000000 1.0
C      1  0.4941840000000  0.5024760000000  0.4947210000000 1.0
C      1  0.6034500000000  0.5017390000000  0.5096290000000 1.0
C      1  0.5738520000000  0.5061280000000  0.5108510000000 1.0
C      1  0.5276250000000  0.5009030000000  0.5006550000000 1.0
END
