TITL C-2622954-8726-655 0.000625242738667701 125000 -224.264591558483 0 0 42 (C1) n - 1
REM
REM in /nfs/bkarasulu/CARBON/AIRSS/Generating-Clusters/AIREBO/with-SteepDescent/Higher-Symm/SD-CG/HFTN-CG
REM
REM
REM
REM
REM
REM ./C.cell (b20cbc046b6831c77cfcea5457e17084)
REM
REM compiler GCC version 9.2.1 20190827 (Red Hat 9.2.1-1)
REM options -cpp -mtune=generic -march=x86-64 -g -O0 -fpre-include=/usr/include/finclude/math-vector-fortran.h
REM seed -1788418166 1351393496 1244693637 491408338 -1519065476 -1437584684 -1785608926 1637683937 -155542083 744837503 -876054046 -181249085 85760004 1210174893 -1760807926 -1138480454 1468960381 383000344 341331536 -719586629 -1170212395 -465555334 1076792199 -1892625034 63616780 1769476090 2069862296 1206364589 1123854301 -2056732122 857872252 1218272746 1008578379
REM
CELL 1.54180   50.00000   50.00000   50.00000   90.00000   90.00000   90.00000
LATT -1
SFAC C  
C      1  0.4497550000000  0.4801740000000  0.5058200000000 1.0
C      1  0.5197700000000  0.4749280000000  0.4504870000000 1.0
C      1  0.5272900000000  0.4779460000000  0.5413910000000 1.0
C      1  0.5241830000000  0.4855930000000  0.4824680000000 1.0
C      1  0.4966460000000  0.4767110000000  0.5267150000000 1.0
C      1  0.4779160000000  0.4752520000000  0.4911170000000 1.0
C      1  0.4957290000000  0.4581800000000  0.5553110000000 1.0
C      1  0.4464020000000  0.4675660000000  0.4582540000000 1.0
C      1  0.5515270000000  0.4674500000000  0.4735450000000 1.0
C      1  0.5235000000000  0.5376200000000  0.5166280000000 1.0
C      1  0.4750490000000  0.5381980000000  0.5134130000000 1.0
C      1  0.5009310000000  0.5370620000000  0.4719320000000 1.0
C      1  0.5480120000000  0.5175500000000  0.4793000000000 1.0
C      1  0.4930030000000  0.5133660000000  0.5527680000000 1.0
C      1  0.4548630000000  0.5162560000000  0.4693670000000 1.0
C      1  0.5469770000000  0.5397160000000  0.5021960000000 1.0
C      1  0.4780230000000  0.5405640000000  0.5410540000000 1.0
C      1  0.4763500000000  0.5387200000000  0.4595580000000 1.0
C      1  0.5368650000000  0.5432490000000  0.4360090000000 1.0
C      1  0.5312130000000  0.5459790000000  0.5665800000000 1.0
C      1  0.4267880000000  0.5480010000000  0.4987720000000 1.0
C      1  0.5328800000000  0.4596700000000  0.5157850000000 1.0
C      1  0.4661600000000  0.4690770000000  0.5309860000000 1.0
C      1  0.4983140000000  0.4576340000000  0.4705000000000 1.0
C      1  0.5263680000000  0.5275550000000  0.4564240000000 1.0
C      1  0.5220170000000  0.5290010000000  0.5466980000000 1.0
C      1  0.4481550000000  0.5301860000000  0.4986750000000 1.0
C      1  0.5481840000000  0.4941650000000  0.4555950000000 1.0
C      1  0.5044810000000  0.4871990000000  0.5644370000000 1.0
C      1  0.4406790000000  0.4872120000000  0.4769000000000 1.0
C      1  0.4553340000000  0.4771000000000  0.5572940000000 1.0
C      1  0.4737150000000  0.4715050000000  0.4516630000000 1.0
C      1  0.5556650000000  0.4722830000000  0.5028850000000 1.0
C      1  0.4782560000000  0.4998060000000  0.4508890000000 1.0
C      1  0.5549970000000  0.5010520000000  0.5082160000000 1.0
C      1  0.4610180000000  0.5051340000000  0.5474240000000 1.0
C      1  0.5405080000000  0.5053410000000  0.5328480000000 1.0
C      1  0.4505630000000  0.5076580000000  0.5211480000000 1.0
C      1  0.5059490000000  0.5043120000000  0.4496180000000 1.0
C      1  0.5150680000000  0.4488130000000  0.4979640000000 1.0
C      1  0.5000030000000  0.5267990000000  0.5004470000000 1.0
C      1  0.5016870000000  0.4951360000000  0.5001730000000 1.0
END
