TITL C-2622959-7779-677 0.00170211536104554 125000 -289.264196819369 0 0 54 (C1) n - 1
REM
REM in /nfs/bkarasulu/CARBON/AIRSS/Generating-Clusters/AIREBO/with-SteepDescent/Higher-Symm/SD-CG/HFTN-CG
REM
REM
REM
REM
REM
REM ./C.cell (b20cbc046b6831c77cfcea5457e17084)
REM
REM compiler GCC version 9.2.1 20190827 (Red Hat 9.2.1-1)
REM options -cpp -mtune=generic -march=x86-64 -g -O0 -fpre-include=/usr/include/finclude/math-vector-fortran.h
REM seed -107015593 -216955823 1318419232 968508293 1806111908 1700179586 978767953 1271384993 -759536997 439109619 -312127140 153453420 784508921 836712375 1988960174 1977613335 2081565645 -1921004272 793291399 -676425269 -585865347 -120978321 582681175 -361515965 -455549396 1541080788 -1076571215 1951244555 848676065 -2134715196 -1681484705 790282010 -1567213360
REM
CELL 1.54180   50.00000   50.00000   50.00000   90.00000   90.00000   90.00000
LATT -1
SFAC C  
C      1  0.5398420000000  0.4713440000000  0.4895730000000 1.0
C      1  0.5204820000000  0.5025360000000  0.4738890000000 1.0
C      1  0.5374730000000  0.5324190000000  0.4937100000000 1.0
C      1  0.5421550000000  0.5206060000000  0.5315400000000 1.0
C      1  0.5422010000000  0.4779060000000  0.5289580000000 1.0
C      1  0.5189310000000  0.5680000000000  0.5279290000000 1.0
C      1  0.5137900000000  0.4954010000000  0.5685000000000 1.0
C      1  0.5238820000000  0.4296710000000  0.5165790000000 1.0
C      1  0.5156050000000  0.4618540000000  0.4413600000000 1.0
C      1  0.5191220000000  0.5340800000000  0.4428240000000 1.0
C      1  0.4898250000000  0.4485960000000  0.5442040000000 1.0
C      1  0.5026420000000  0.4331010000000  0.4790260000000 1.0
C      1  0.4855480000000  0.5473750000000  0.4086360000000 1.0
C      1  0.4916390000000  0.5624820000000  0.4876910000000 1.0
C      1  0.4942550000000  0.5360080000000  0.5489080000000 1.0
C      1  0.5688520000000  0.5267100000000  0.4889420000000 1.0
C      1  0.5696060000000  0.5159140000000  0.5169080000000 1.0
C      1  0.5694920000000  0.4870170000000  0.5151160000000 1.0
C      1  0.5705110000000  0.4805510000000  0.4856630000000 1.0
C      1  0.5546470000000  0.5038530000000  0.4719220000000 1.0
C      1  0.4770590000000  0.5409470000000  0.4790960000000 1.0
C      1  0.4699150000000  0.5263080000000  0.5283660000000 1.0
C      1  0.4730440000000  0.4749610000000  0.5412780000000 1.0
C      1  0.4827140000000  0.4545980000000  0.4928730000000 1.0
C      1  0.4864780000000  0.5025250000000  0.4752480000000 1.0
C      1  0.5388830000000  0.4379980000000  0.4948260000000 1.0
C      1  0.5298690000000  0.4826390000000  0.4290080000000 1.0
C      1  0.5219050000000  0.5466010000000  0.4669590000000 1.0
C      1  0.5313890000000  0.5500960000000  0.5447950000000 1.0
C      1  0.5315390000000  0.4749370000000  0.5609960000000 1.0
C      1  0.4939720000000  0.4346480000000  0.5177890000000 1.0
C      1  0.4883030000000  0.4638560000000  0.4431100000000 1.0
C      1  0.4930990000000  0.5356650000000  0.4320410000000 1.0
C      1  0.4906540000000  0.5694950000000  0.5170130000000 1.0
C      1  0.4862370000000  0.4902260000000  0.5676530000000 1.0
C      1  0.4617450000000  0.4580230000000  0.5175070000000 1.0
C      1  0.4744640000000  0.4736770000000  0.4701790000000 1.0
C      1  0.4738760000000  0.5248200000000  0.4522720000000 1.0
C      1  0.4678300000000  0.5585870000000  0.5299890000000 1.0
C      1  0.4616290000000  0.5046320000000  0.5490800000000 1.0
C      1  0.4341090000000  0.5071370000000  0.5611420000000 1.0
C      1  0.4380480000000  0.4470590000000  0.5173310000000 1.0
C      1  0.4439710000000  0.4744900000000  0.4667480000000 1.0
C      1  0.4481540000000  0.5193480000000  0.4428940000000 1.0
C      1  0.4453320000000  0.5713280000000  0.5386010000000 1.0
C      1  0.5224000000000  0.4527710000000  0.5390440000000 1.0
C      1  0.5267880000000  0.4503380000000  0.4661490000000 1.0
C      1  0.5286580000000  0.5068750000000  0.4425520000000 1.0
C      1  0.5242200000000  0.5622470000000  0.4967440000000 1.0
C      1  0.5209050000000  0.5207770000000  0.5563860000000 1.0
C      1  0.4381560000000  0.5104140000000  0.4936080000000 1.0
C      1  0.4677300000000  0.5180810000000  0.4990550000000 1.0
C      1  0.4143300000000  0.5018970000000  0.4902400000000 1.0
C      1  0.5332070000000  0.5007410000000  0.5053930000000 1.0
END
