TITL C-2622955-8511-234 -0.00223426915306765 125000 -687.431783325127 0 0 133 (C1) n - 1
REM
REM in /nfs/bkarasulu/CARBON/AIRSS/Generating-Clusters/AIREBO/with-SteepDescent/Higher-Symm/SD-CG/HFTN-CG
REM
REM
REM
REM
REM
REM ./C.cell (b20cbc046b6831c77cfcea5457e17084)
REM
REM compiler GCC version 9.2.1 20190827 (Red Hat 9.2.1-1)
REM options -cpp -mtune=generic -march=x86-64 -g -O0 -fpre-include=/usr/include/finclude/math-vector-fortran.h
REM seed 1600352187 2129452088 -966802910 -254581089 -406801712 1074197707 -486147518 -1887871701 1058254353 -423280371 -1755282779 -628724834 -1871244557 -2116290849 -1734857426 832866656 1207876197 965316876 -1049408527 884522197 910531435 760965536 1671465202 2066777345 78638034 31192003 -445305095 -54128033 -1810355753 1306176041 -1515534568 61519137 1611455290
REM
CELL 1.54180   50.00000   50.00000   50.00000   90.00000   90.00000   90.00000
LATT -1
SFAC C  
C      1  0.4228470000000  0.4470630000000  0.4542180000000 1.0
C      1  0.4237060000000  0.5197480000000  0.4352970000000 1.0
C      1  0.4229700000000  0.5698330000000  0.4974680000000 1.0
C      1  0.4316930000000  0.5161780000000  0.5641320000000 1.0
C      1  0.4221870000000  0.4396150000000  0.5389670000000 1.0
C      1  0.4334110000000  0.4855090000000  0.5579640000000 1.0
C      1  0.4285680000000  0.4392560000000  0.5095130000000 1.0
C      1  0.4281660000000  0.4684080000000  0.4359560000000 1.0
C      1  0.4352760000000  0.5426290000000  0.4553480000000 1.0
C      1  0.4311320000000  0.5587690000000  0.5247250000000 1.0
C      1  0.4501230000000  0.4140540000000  0.5018310000000 1.0
C      1  0.4554050000000  0.4653200000000  0.4220880000000 1.0
C      1  0.4611560000000  0.5615820000000  0.4434330000000 1.0
C      1  0.4533120000000  0.5755140000000  0.5383420000000 1.0
C      1  0.4553130000000  0.4749170000000  0.5767650000000 1.0
C      1  0.5690180000000  0.5260720000000  0.4294270000000 1.0
C      1  0.5674810000000  0.5744770000000  0.5033640000000 1.0
C      1  0.5883440000000  0.5269780000000  0.5703060000000 1.0
C      1  0.5722150000000  0.4465580000000  0.5568020000000 1.0
C      1  0.5715710000000  0.4399510000000  0.4739740000000 1.0
C      1  0.5712480000000  0.4658580000000  0.4912080000000 1.0
C      1  0.5728610000000  0.5059430000000  0.4564810000000 1.0
C      1  0.5724440000000  0.5459860000000  0.4899910000000 1.0
C      1  0.5845490000000  0.5273820000000  0.5379980000000 1.0
C      1  0.5639460000000  0.4777730000000  0.5461310000000 1.0
C      1  0.5524600000000  0.4304800000000  0.4571850000000 1.0
C      1  0.5463350000000  0.5293480000000  0.4146870000000 1.0
C      1  0.5433670000000  0.5830170000000  0.4935910000000 1.0
C      1  0.5654590000000  0.5216320000000  0.5842990000000 1.0
C      1  0.5523090000000  0.4279840000000  0.5520740000000 1.0
C      1  0.5570050000000  0.4173180000000  0.4336020000000 1.0
C      1  0.5447480000000  0.5432240000000  0.3910930000000 1.0
C      1  0.5414730000000  0.6050610000000  0.4771820000000 1.0
C      1  0.5625770000000  0.4952140000000  0.5941990000000 1.0
C      1  0.5579120000000  0.4131510000000  0.5287670000000 1.0
C      1  0.4848240000000  0.4599370000000  0.5855540000000 1.0
C      1  0.4808350000000  0.4014350000000  0.4913330000000 1.0
C      1  0.4826350000000  0.4833940000000  0.4112120000000 1.0
C      1  0.4861380000000  0.5831900000000  0.4548050000000 1.0
C      1  0.4802310000000  0.5814890000000  0.5584240000000 1.0
C      1  0.4699620000000  0.5725950000000  0.4896980000000 1.0
C      1  0.4858050000000  0.5346470000000  0.5693130000000 1.0
C      1  0.4712140000000  0.4433930000000  0.5455490000000 1.0
C      1  0.4708280000000  0.4313390000000  0.4671350000000 1.0
C      1  0.4658360000000  0.5193770000000  0.4157660000000 1.0
C      1  0.5541790000000  0.4617510000000  0.5175570000000 1.0
C      1  0.5537420000000  0.4841830000000  0.4735030000000 1.0
C      1  0.5516640000000  0.5239960000000  0.4753660000000 1.0
C      1  0.5596710000000  0.5265930000000  0.5148310000000 1.0
C      1  0.5447740000000  0.5045090000000  0.5547980000000 1.0
C      1  0.5602740000000  0.4838310000000  0.4339210000000 1.0
C      1  0.5632880000000  0.5589110000000  0.4598980000000 1.0
C      1  0.5647320000000  0.5545810000000  0.5429440000000 1.0
C      1  0.5547960000000  0.4742720000000  0.5787070000000 1.0
C      1  0.5521330000000  0.4300370000000  0.5079890000000 1.0
C      1  0.4707550000000  0.4992370000000  0.5445010000000 1.0
C      1  0.4679130000000  0.4621420000000  0.4966220000000 1.0
C      1  0.4606870000000  0.4854740000000  0.4644950000000 1.0
C      1  0.4675540000000  0.5242850000000  0.4707670000000 1.0
C      1  0.4726420000000  0.5327940000000  0.5184110000000 1.0
C      1  0.4894060000000  0.5204790000000  0.4931170000000 1.0
C      1  0.4983360000000  0.5143810000000  0.5315740000000 1.0
C      1  0.4735960000000  0.4688610000000  0.5294660000000 1.0
C      1  0.4877630000000  0.4826740000000  0.4802610000000 1.0
C      1  0.4684000000000  0.5084700000000  0.4435930000000 1.0
C      1  0.5269900000000  0.5281350000000  0.5193450000000 1.0
C      1  0.5207260000000  0.4926130000000  0.5372070000000 1.0
C      1  0.5249070000000  0.4696700000000  0.5050890000000 1.0
C      1  0.5208850000000  0.4900860000000  0.4781850000000 1.0
C      1  0.5191840000000  0.5240010000000  0.4805110000000 1.0
C      1  0.4863880000000  0.5422950000000  0.3906100000000 1.0
C      1  0.5066900000000  0.5945230000000  0.5169400000000 1.0
C      1  0.5080120000000  0.5027100000000  0.6052660000000 1.0
C      1  0.4955960000000  0.4117090000000  0.5456160000000 1.0
C      1  0.4891000000000  0.4128860000000  0.4370100000000 1.0
C      1  0.4431510000000  0.4287460000000  0.5527340000000 1.0
C      1  0.4411980000000  0.4256090000000  0.4529420000000 1.0
C      1  0.4356420000000  0.5205230000000  0.4105520000000 1.0
C      1  0.4429550000000  0.5861330000000  0.4881050000000 1.0
C      1  0.4538830000000  0.5258880000000  0.5771220000000 1.0
C      1  0.5257670000000  0.4602090000000  0.5777510000000 1.0
C      1  0.5247940000000  0.4247760000000  0.4952080000000 1.0
C      1  0.5293750000000  0.4857560000000  0.4312070000000 1.0
C      1  0.5319750000000  0.5620970000000  0.4586940000000 1.0
C      1  0.5328920000000  0.5609100000000  0.5504870000000 1.0
C      1  0.4390750000000  0.5244770000000  0.4838770000000 1.0
C      1  0.4422500000000  0.5260110000000  0.5156100000000 1.0
C      1  0.4425390000000  0.4937070000000  0.5262470000000 1.0
C      1  0.4376330000000  0.4710190000000  0.5013950000000 1.0
C      1  0.4302150000000  0.4937130000000  0.4771740000000 1.0
C      1  0.4224840000000  0.5315790000000  0.5427200000000 1.0
C      1  0.4123940000000  0.4626460000000  0.5503780000000 1.0
C      1  0.4160770000000  0.4526190000000  0.4808450000000 1.0
C      1  0.4218680000000  0.4940900000000  0.4461120000000 1.0
C      1  0.4131880000000  0.5541810000000  0.4771730000000 1.0
C      1  0.5225820000000  0.4406130000000  0.5500930000000 1.0
C      1  0.5232400000000  0.4370140000000  0.4650740000000 1.0
C      1  0.5199240000000  0.5181890000000  0.4269710000000 1.0
C      1  0.5222210000000  0.5565260000000  0.4907940000000 1.0
C      1  0.5386420000000  0.5337160000000  0.5701160000000 1.0
C      1  0.4780160000000  0.5165480000000  0.5975350000000 1.0
C      1  0.4707100000000  0.4189890000000  0.5255950000000 1.0
C      1  0.4734930000000  0.4386820000000  0.4339780000000 1.0
C      1  0.4736180000000  0.5506040000000  0.4176380000000 1.0
C      1  0.4801820000000  0.5761800000000  0.5189850000000 1.0
C      1  0.4940120000000  0.4388540000000  0.5660860000000 1.0
C      1  0.4998950000000  0.4137390000000  0.4659980000000 1.0
C      1  0.4968460000000  0.5139010000000  0.4063570000000 1.0
C      1  0.5007730000000  0.5823760000000  0.4854950000000 1.0
C      1  0.5136500000000  0.5286670000000  0.5864700000000 1.0
C      1  0.5915880000000  0.4872700000000  0.5012000000000 1.0
C      1  0.5967630000000  0.5066280000000  0.4808250000000 1.0
C      1  0.6006370000000  0.5328840000000  0.4911140000000 1.0
C      1  0.6094990000000  0.5356700000000  0.5174670000000 1.0
C      1  0.5871360000000  0.4946360000000  0.5292020000000 1.0
C      1  0.4819970000000  0.4704450000000  0.4426680000000 1.0
C      1  0.4840040000000  0.5513020000000  0.4664280000000 1.0
C      1  0.4851490000000  0.5519370000000  0.5423160000000 1.0
C      1  0.4845450000000  0.4921850000000  0.5747320000000 1.0
C      1  0.4842510000000  0.4344990000000  0.4985300000000 1.0
C      1  0.5108820000000  0.5368640000000  0.4506800000000 1.0
C      1  0.5134310000000  0.5545350000000  0.5236110000000 1.0
C      1  0.5168890000000  0.4895600000000  0.5678870000000 1.0
C      1  0.5103690000000  0.4441110000000  0.5182790000000 1.0
C      1  0.5136940000000  0.4676070000000  0.4536950000000 1.0
C      1  0.5122710000000  0.4771050000000  0.4051680000000 1.0
C      1  0.5154560000000  0.5864490000000  0.4472230000000 1.0
C      1  0.5093810000000  0.5856390000000  0.5476400000000 1.0
C      1  0.5083550000000  0.4742270000000  0.6035760000000 1.0
C      1  0.5058540000000  0.4046850000000  0.5139700000000 1.0
C      1  0.5407990000000  0.4988450000000  0.5116070000000 1.0
C      1  0.4894830000000  0.4920930000000  0.5101440000000 1.0
C      1  0.3997470000000  0.4969550000000  0.4901130000000 1.0
END
