TITL C-2622967-6265-193 0.00117108310684095 125000 -376.411898257753 0 0 72 (C1) n - 1
REM
REM in /nfs/bkarasulu/CARBON/AIRSS/Generating-Clusters/AIREBO/with-SteepDescent/Higher-Symm/SD-CG/HFTN-CG
REM
REM
REM
REM
REM
REM ./C.cell (b20cbc046b6831c77cfcea5457e17084)
REM
REM compiler GCC version 9.2.1 20190827 (Red Hat 9.2.1-1)
REM options -cpp -mtune=generic -march=x86-64 -g -O0 -fpre-include=/usr/include/finclude/math-vector-fortran.h
REM seed -93682473 1975784672 104501396 -1430879876 -1271371505 2055057170 -1439780784 -2113986362 -1068807773 1624079721 1298495530 -604487660 423935720 1469313259 -1945895575 1094618474 -2097104317 -602225785 -1401424136 1146930728 149826914 -653871899 -569273924 1930591948 33726689 1542945164 -1373078920 -1960510158 1682374476 706903201 2085197536 1014730671 -739902715
REM
CELL 1.54180   50.00000   50.00000   50.00000   90.00000   90.00000   90.00000
LATT -1
SFAC C  
C      1  0.5515730000000  0.4968170000000  0.4374310000000 1.0
C      1  0.4495750000000  0.5456930000000  0.4689430000000 1.0
C      1  0.5551450000000  0.5284950000000  0.5530210000000 1.0
C      1  0.4495860000000  0.4711340000000  0.4334780000000 1.0
C      1  0.5585460000000  0.4683630000000  0.4284230000000 1.0
C      1  0.5112990000000  0.5044230000000  0.5228730000000 1.0
C      1  0.5169840000000  0.4513040000000  0.5367010000000 1.0
C      1  0.5186790000000  0.4906160000000  0.4926710000000 1.0
C      1  0.5159340000000  0.5722730000000  0.4981440000000 1.0
C      1  0.4642190000000  0.5578860000000  0.5434140000000 1.0
C      1  0.4899430000000  0.5097630000000  0.4280950000000 1.0
C      1  0.5054560000000  0.5431480000000  0.5307870000000 1.0
C      1  0.4743660000000  0.4263090000000  0.5002850000000 1.0
C      1  0.5538630000000  0.5562890000000  0.4860420000000 1.0
C      1  0.5596850000000  0.5193310000000  0.4717140000000 1.0
C      1  0.4454850000000  0.5368380000000  0.5508850000000 1.0
C      1  0.5576860000000  0.5444770000000  0.5310410000000 1.0
C      1  0.5332890000000  0.4701600000000  0.4697770000000 1.0
C      1  0.4729420000000  0.4826440000000  0.4242030000000 1.0
C      1  0.5229690000000  0.5040910000000  0.4199530000000 1.0
C      1  0.4542650000000  0.4548000000000  0.4621440000000 1.0
C      1  0.4762230000000  0.5488790000000  0.5143720000000 1.0
C      1  0.4348100000000  0.5117880000000  0.4830740000000 1.0
C      1  0.4713710000000  0.4191070000000  0.4676180000000 1.0
C      1  0.4884460000000  0.5701020000000  0.4934280000000 1.0
C      1  0.5566060000000  0.4974820000000  0.5487090000000 1.0
C      1  0.5622910000000  0.5021420000000  0.5172010000000 1.0
C      1  0.4680900000000  0.5115860000000  0.4776180000000 1.0
C      1  0.5421180000000  0.5133510000000  0.4989820000000 1.0
C      1  0.5103920000000  0.4799230000000  0.5653000000000 1.0
C      1  0.4901200000000  0.5205650000000  0.5016610000000 1.0
C      1  0.4874260000000  0.4900790000000  0.5423750000000 1.0
C      1  0.5179490000000  0.5117740000000  0.5561150000000 1.0
C      1  0.5328290000000  0.4797610000000  0.5320610000000 1.0
C      1  0.5040890000000  0.4394340000000  0.5105370000000 1.0
C      1  0.4839150000000  0.4431560000000  0.4496570000000 1.0
C      1  0.4367590000000  0.5213890000000  0.5290300000000 1.0
C      1  0.5397980000000  0.4574120000000  0.5093260000000 1.0
C      1  0.4947300000000  0.4658210000000  0.4337420000000 1.0
C      1  0.4337700000000  0.4930070000000  0.5288640000000 1.0
C      1  0.5467880000000  0.4516370000000  0.4446580000000 1.0
C      1  0.4576850000000  0.4793370000000  0.4805840000000 1.0
C      1  0.4915400000000  0.4540190000000  0.5590950000000 1.0
C      1  0.5161570000000  0.5584890000000  0.5574850000000 1.0
C      1  0.5109090000000  0.5172330000000  0.4538020000000 1.0
C      1  0.4678780000000  0.4724760000000  0.5309740000000 1.0
C      1  0.5018320000000  0.5369500000000  0.4758390000000 1.0
C      1  0.4775360000000  0.4581920000000  0.5080110000000 1.0
C      1  0.4792970000000  0.5580710000000  0.4646310000000 1.0
C      1  0.4725370000000  0.5279200000000  0.4504240000000 1.0
C      1  0.4474410000000  0.5363350000000  0.5012740000000 1.0
C      1  0.5333500000000  0.5381410000000  0.5696980000000 1.0
C      1  0.4648170000000  0.4528760000000  0.5653740000000 1.0
C      1  0.5641270000000  0.4674560000000  0.4949670000000 1.0
C      1  0.4428930000000  0.4699550000000  0.5484080000000 1.0
C      1  0.4818690000000  0.5220380000000  0.5434160000000 1.0
C      1  0.4852110000000  0.5596490000000  0.5623150000000 1.0
C      1  0.4314390000000  0.4836860000000  0.5001510000000 1.0
C      1  0.5797990000000  0.5443870000000  0.4797150000000 1.0
C      1  0.4947600000000  0.5291980000000  0.5740530000000 1.0
C      1  0.4449510000000  0.4307380000000  0.4832780000000 1.0
C      1  0.5418250000000  0.4793660000000  0.5708450000000 1.0
C      1  0.5624430000000  0.4875870000000  0.4711920000000 1.0
C      1  0.5223890000000  0.4421360000000  0.4847870000000 1.0
C      1  0.4616120000000  0.5221350000000  0.5713510000000 1.0
C      1  0.5095820000000  0.4271080000000  0.4638330000000 1.0
C      1  0.5147280000000  0.4842800000000  0.4463330000000 1.0
C      1  0.4893470000000  0.4813620000000  0.4909130000000 1.0
C      1  0.5318290000000  0.5442190000000  0.5089620000000 1.0
C      1  0.4068300000000  0.4958500000000  0.4797770000000 1.0
C      1  0.5314710000000  0.5474420000000  0.4691250000000 1.0
C      1  0.5419080000000  0.5281160000000  0.4450380000000 1.0
END
