TITL C-2622961-1971-817 5.43825355474116e-05 125000 -206.197276560907 0 0 46 (C1) n - 1
REM
REM in /nfs/bkarasulu/CARBON/AIRSS/Generating-Clusters/AIREBO/with-SteepDescent/Higher-Symm/SD-CG/HFTN-CG
REM
REM
REM
REM
REM
REM ./C.cell (b20cbc046b6831c77cfcea5457e17084)
REM
REM compiler GCC version 9.2.1 20190827 (Red Hat 9.2.1-1)
REM options -cpp -mtune=generic -march=x86-64 -g -O0 -fpre-include=/usr/include/finclude/math-vector-fortran.h
REM seed -1804658151 -1896674900 -1981178642 252727122 -1665527187 -1649924482 -2041842066 764013969 -126079852 -477634626 -700194437 1278902280 -58166558 1265207798 -929666882 359035001 -975116366 -389112587 -928043304 504553874 -1837870144 -17618462 662580579 786140951 -1479928349 1286567274 -1678026117 1591159021 72103671 1993300456 1199765734 1055962002 1895674573
REM
CELL 1.54180   50.00000   50.00000   50.00000   90.00000   90.00000   90.00000
LATT -1
SFAC C  
C      1  0.5393820000000  0.4633550000000  0.5213740000000 1.0
C      1  0.4617890000000  0.4633200000000  0.4788030000000 1.0
C      1  0.5283870000000  0.5417010000000  0.5130160000000 1.0
C      1  0.4719590000000  0.5417850000000  0.4867920000000 1.0
C      1  0.5322240000000  0.4630390000000  0.4879680000000 1.0
C      1  0.4687160000000  0.4629390000000  0.5123080000000 1.0
C      1  0.5366460000000  0.5381470000000  0.4800260000000 1.0
C      1  0.4636330000000  0.5384170000000  0.5196450000000 1.0
C      1  0.5533670000000  0.5186470000000  0.5137810000000 1.0
C      1  0.4473140000000  0.5183680000000  0.4862320000000 1.0
C      1  0.5536300000000  0.4887330000000  0.5097950000000 1.0
C      1  0.4472160000000  0.4884670000000  0.4903800000000 1.0
C      1  0.5611000000000  0.5158260000000  0.4817200000000 1.0
C      1  0.4394290000000  0.5156290000000  0.5182860000000 1.0
C      1  0.5565760000000  0.4850720000000  0.4791380000000 1.0
C      1  0.4441910000000  0.4848310000000  0.5210110000000 1.0
C      1  0.5498800000000  0.4360860000000  0.4770630000000 1.0
C      1  0.4503290000000  0.4353350000000  0.5198500000000 1.0
C      1  0.5455090000000  0.5684650000000  0.4642240000000 1.0
C      1  0.4542110000000  0.5688350000000  0.5348230000000 1.0
C      1  0.5383910000000  0.4333120000000  0.5353150000000 1.0
C      1  0.4607080000000  0.4337950000000  0.4648270000000 1.0
C      1  0.5432720000000  0.5695460000000  0.5256630000000 1.0
C      1  0.4547170000000  0.5700110000000  0.4738480000000 1.0
C      1  0.4799350000000  0.4411850000000  0.5359260000000 1.0
C      1  0.5175310000000  0.4406040000000  0.4670500000000 1.0
C      1  0.4854400000000  0.5565820000000  0.5383870000000 1.0
C      1  0.5144940000000  0.5561900000000  0.4615710000000 1.0
C      1  0.4875470000000  0.4416910000000  0.4571860000000 1.0
C      1  0.5111200000000  0.4421510000000  0.5399340000000 1.0
C      1  0.4837250000000  0.5612100000000  0.4614740000000 1.0
C      1  0.5161840000000  0.5617790000000  0.5412180000000 1.0
C      1  0.5132090000000  0.5278710000000  0.5401300000000 1.0
C      1  0.4871720000000  0.5270180000000  0.4601950000000 1.0
C      1  0.5181810000000  0.4781820000000  0.5399950000000 1.0
C      1  0.4819570000000  0.4780150000000  0.4596160000000 1.0
C      1  0.5183830000000  0.5219630000000  0.4563430000000 1.0
C      1  0.4818520000000  0.5225100000000  0.5435490000000 1.0
C      1  0.5128020000000  0.4735540000000  0.4601170000000 1.0
C      1  0.4871170000000  0.4741100000000  0.5404550000000 1.0
C      1  0.4761260000000  0.4970720000000  0.5534860000000 1.0
C      1  0.4740290000000  0.5035790000000  0.4502150000000 1.0
C      1  0.5262270000000  0.5037560000000  0.5497480000000 1.0
C      1  0.5239360000000  0.4963470000000  0.4465640000000 1.0
C      1  0.4998930000000  0.5554410000000  0.5005550000000 1.0
C      1  0.5005680000000  0.4629350000000  0.5003970000000 1.0
END
