TITL C-2622955-8511-656 -0.000218671187985901 125000 -185.811238831642 0 0 33 (C1) n - 1
REM
REM in /nfs/bkarasulu/CARBON/AIRSS/Generating-Clusters/AIREBO/with-SteepDescent/Higher-Symm/SD-CG/HFTN-CG
REM
REM
REM
REM
REM
REM ./C.cell (b20cbc046b6831c77cfcea5457e17084)
REM
REM compiler GCC version 9.2.1 20190827 (Red Hat 9.2.1-1)
REM options -cpp -mtune=generic -march=x86-64 -g -O0 -fpre-include=/usr/include/finclude/math-vector-fortran.h
REM seed -1312537898 551238029 -21228627 1399362185 752374920 1895631764 1338897073 1963235637 -654962370 42582011 -1927139172 -868380731 -464127252 913893827 -1778419772 71768581 1925523165 -348802200 -1693077943 827638752 841434192 1688457077 809963002 -1970572621 493752778 1287631496 105618170 1898962093 -1351853331 1061209147 1902018127 5138909 -1889781998
REM
CELL 1.54180   50.00000   50.00000   50.00000   90.00000   90.00000   90.00000
LATT -1
SFAC C  
C      1  0.5580330000000  0.5267170000000  0.4718140000000 1.0
C      1  0.4745230000000  0.5241360000000  0.4685330000000 1.0
C      1  0.4757720000000  0.5285760000000  0.5689180000000 1.0
C      1  0.5601570000000  0.4759860000000  0.4752120000000 1.0
C      1  0.4739940000000  0.4770800000000  0.4687590000000 1.0
C      1  0.4730160000000  0.4721830000000  0.5717010000000 1.0
C      1  0.4573010000000  0.5243420000000  0.4957480000000 1.0
C      1  0.5516350000000  0.5300480000000  0.4402720000000 1.0
C      1  0.5054140000000  0.5240550000000  0.5549850000000 1.0
C      1  0.4568790000000  0.4773640000000  0.4961030000000 1.0
C      1  0.5503150000000  0.4710990000000  0.4430180000000 1.0
C      1  0.5034880000000  0.4730980000000  0.5588410000000 1.0
C      1  0.4488430000000  0.5158150000000  0.5615170000000 1.0
C      1  0.5632280000000  0.5228070000000  0.4986940000000 1.0
C      1  0.4822820000000  0.5149720000000  0.4433220000000 1.0
C      1  0.4474630000000  0.4865400000000  0.5622540000000 1.0
C      1  0.5611070000000  0.4871120000000  0.5016580000000 1.0
C      1  0.4819580000000  0.4858690000000  0.4434580000000 1.0
C      1  0.5309910000000  0.5135450000000  0.5493920000000 1.0
C      1  0.4380190000000  0.5157290000000  0.5141130000000 1.0
C      1  0.5283670000000  0.5146410000000  0.4269660000000 1.0
C      1  0.5299220000000  0.4810260000000  0.5532880000000 1.0
C      1  0.4377500000000  0.4865710000000  0.5143660000000 1.0
C      1  0.5280770000000  0.4853760000000  0.4276010000000 1.0
C      1  0.5459620000000  0.4840040000000  0.5275450000000 1.0
C      1  0.5476740000000  0.5175960000000  0.5234760000000 1.0
C      1  0.4330100000000  0.4754690000000  0.5401510000000 1.0
C      1  0.4341720000000  0.5272740000000  0.5398110000000 1.0
C      1  0.5022390000000  0.5261570000000  0.4265400000000 1.0
C      1  0.5018460000000  0.4741790000000  0.4269550000000 1.0
C      1  0.4810990000000  0.5006250000000  0.4919240000000 1.0
C      1  0.5506620000000  0.5004180000000  0.4569000000000 1.0
C      1  0.4848020000000  0.4992530000000  0.5561680000000 1.0
END
