TITL C-2622959-7779-167 -0.00274216236936547 125000 -1058.47664816165 0 0 190 (C1) n - 1
REM
REM in /nfs/bkarasulu/CARBON/AIRSS/Generating-Clusters/AIREBO/with-SteepDescent/Higher-Symm/SD-CG/HFTN-CG
REM
REM
REM
REM
REM
REM ./C.cell (b20cbc046b6831c77cfcea5457e17084)
REM
REM compiler GCC version 9.2.1 20190827 (Red Hat 9.2.1-1)
REM options -cpp -mtune=generic -march=x86-64 -g -O0 -fpre-include=/usr/include/finclude/math-vector-fortran.h
REM seed 1182581786 -1597052039 -913767130 -596824175 -2122615695 2067651026 -1614683288 22281517 -1097159988 2037194066 1484059580 756684221 -1224692079 856199670 1065179344 -2106481920 -1405592899 1150259436 1834214669 1097342277 -473842550 -1545003713 1676627395 842590570 2130866818 -1357832680 1964746363 1424611217 497347801 -782420735 -1810244674 1308495976 -441045236
REM
CELL 1.54180   50.00000   50.00000   50.00000   90.00000   90.00000   90.00000
LATT -1
SFAC C  
C      1  0.4257710000000  0.5329000000000  0.5831310000000 1.0
C      1  0.5055410000000  0.4167590000000  0.5842610000000 1.0
C      1  0.5664270000000  0.5440120000000  0.5794310000000 1.0
C      1  0.4251090000000  0.5337800000000  0.4173830000000 1.0
C      1  0.5145490000000  0.4218790000000  0.4209930000000 1.0
C      1  0.5648910000000  0.5435540000000  0.4213470000000 1.0
C      1  0.5873710000000  0.4676510000000  0.4765180000000 1.0
C      1  0.4789030000000  0.5969000000000  0.4746230000000 1.0
C      1  0.4302340000000  0.4421650000000  0.4739560000000 1.0
C      1  0.5851290000000  0.4710110000000  0.5261320000000 1.0
C      1  0.4834980000000  0.5918000000000  0.5267730000000 1.0
C      1  0.4306320000000  0.4409780000000  0.5247140000000 1.0
C      1  0.5837210000000  0.4425940000000  0.4887460000000 1.0
C      1  0.5052080000000  0.6029400000000  0.4865400000000 1.0
C      1  0.4081330000000  0.4552900000000  0.4859560000000 1.0
C      1  0.5840050000000  0.4441780000000  0.5163890000000 1.0
C      1  0.5063740000000  0.6036120000000  0.5140720000000 1.0
C      1  0.4080320000000  0.4545690000000  0.5135470000000 1.0
C      1  0.5098340000000  0.4576130000000  0.4380750000000 1.0
C      1  0.5292720000000  0.5267400000000  0.4377920000000 1.0
C      1  0.4549740000000  0.5168350000000  0.4378590000000 1.0
C      1  0.5110900000000  0.4522160000000  0.5639080000000 1.0
C      1  0.5317890000000  0.5303300000000  0.5649780000000 1.0
C      1  0.4548550000000  0.5151130000000  0.5622730000000 1.0
C      1  0.4484030000000  0.4710240000000  0.4368660000000 1.0
C      1  0.5564320000000  0.4780750000000  0.4394100000000 1.0
C      1  0.4995040000000  0.5591930000000  0.4390640000000 1.0
C      1  0.4477520000000  0.4700530000000  0.5622710000000 1.0
C      1  0.5562860000000  0.4768480000000  0.5684970000000 1.0
C      1  0.5003970000000  0.5588930000000  0.5630050000000 1.0
C      1  0.5281880000000  0.4003850000000  0.5672010000000 1.0
C      1  0.5669290000000  0.5740460000000  0.5656020000000 1.0
C      1  0.4015710000000  0.5203470000000  0.5644630000000 1.0
C      1  0.5365880000000  0.4070700000000  0.4403740000000 1.0
C      1  0.5614390000000  0.5738190000000  0.4365050000000 1.0
C      1  0.4018220000000  0.5200830000000  0.4366730000000 1.0
C      1  0.5110400000000  0.4235920000000  0.4845760000000 1.0
C      1  0.5616780000000  0.5486520000000  0.4675490000000 1.0
C      1  0.4262590000000  0.5300310000000  0.4831570000000 1.0
C      1  0.5135820000000  0.4204520000000  0.5183840000000 1.0
C      1  0.5637780000000  0.5515720000000  0.5329210000000 1.0
C      1  0.4254960000000  0.5293020000000  0.5171700000000 1.0
C      1  0.5337680000000  0.4658690000000  0.5171380000000 1.0
C      1  0.5164670000000  0.5446900000000  0.5167740000000 1.0
C      1  0.4514700000000  0.4896450000000  0.5131580000000 1.0
C      1  0.5354280000000  0.4660060000000  0.4875990000000 1.0
C      1  0.5165100000000  0.5440880000000  0.4874660000000 1.0
C      1  0.4547210000000  0.4915170000000  0.4835460000000 1.0
C      1  0.4345560000000  0.5748460000000  0.4768140000000 1.0
C      1  0.4707040000000  0.4098920000000  0.4759290000000 1.0
C      1  0.5976370000000  0.5235060000000  0.4817600000000 1.0
C      1  0.4329170000000  0.5759200000000  0.5258000000000 1.0
C      1  0.4682670000000  0.4059920000000  0.5243930000000 1.0
C      1  0.6004450000000  0.5262880000000  0.5160730000000 1.0
C      1  0.5544750000000  0.5066760000000  0.4322800000000 1.0
C      1  0.4558170000000  0.5513390000000  0.4358060000000 1.0
C      1  0.4805630000000  0.4388050000000  0.4356030000000 1.0
C      1  0.5572220000000  0.5073150000000  0.5673100000000 1.0
C      1  0.4567130000000  0.5496180000000  0.5647140000000 1.0
C      1  0.4790480000000  0.4386550000000  0.5644820000000 1.0
C      1  0.5088020000000  0.4831850000000  0.5515650000000 1.0
C      1  0.5062680000000  0.5158770000000  0.5534750000000 1.0
C      1  0.4797250000000  0.4975030000000  0.5520910000000 1.0
C      1  0.5092550000000  0.4878020000000  0.4494420000000 1.0
C      1  0.4996430000000  0.5190620000000  0.4490390000000 1.0
C      1  0.4772480000000  0.4951280000000  0.4504560000000 1.0
C      1  0.6030110000000  0.5534770000000  0.5259800000000 1.0
C      1  0.4060320000000  0.5601990000000  0.5332230000000 1.0
C      1  0.4938080000000  0.3888530000000  0.5325870000000 1.0
C      1  0.6013230000000  0.5508600000000  0.4703160000000 1.0
C      1  0.4060100000000  0.5607830000000  0.4683070000000 1.0
C      1  0.4951490000000  0.3914120000000  0.4674990000000 1.0
C      1  0.5568150000000  0.4900900000000  0.6062270000000 1.0
C      1  0.4789210000000  0.5535310000000  0.6078330000000 1.0
C      1  0.4640730000000  0.4557220000000  0.6077960000000 1.0
C      1  0.5496550000000  0.4924680000000  0.3839440000000 1.0
C      1  0.4772260000000  0.5543720000000  0.3919610000000 1.0
C      1  0.4686600000000  0.4581780000000  0.3925230000000 1.0
C      1  0.5425410000000  0.4503110000000  0.4340560000000 1.0
C      1  0.5309240000000  0.5588950000000  0.4350260000000 1.0
C      1  0.4272000000000  0.4976020000000  0.4339510000000 1.0
C      1  0.5386280000000  0.4326810000000  0.5692250000000 1.0
C      1  0.5343960000000  0.5641980000000  0.5667060000000 1.0
C      1  0.4264890000000  0.4967860000000  0.5662460000000 1.0
C      1  0.5311050000000  0.5913560000000  0.4424650000000 1.0
C      1  0.4074690000000  0.4739080000000  0.4446080000000 1.0
C      1  0.5618920000000  0.4269170000000  0.4463540000000 1.0
C      1  0.5236880000000  0.5929300000000  0.5553080000000 1.0
C      1  0.4068030000000  0.4729230000000  0.5555050000000 1.0
C      1  0.5663740000000  0.4353720000000  0.5579950000000 1.0
C      1  0.4873760000000  0.4434830000000  0.5948500000000 1.0
C      1  0.5522970000000  0.5187100000000  0.5972320000000 1.0
C      1  0.4573230000000  0.5387120000000  0.5944470000000 1.0
C      1  0.4912390000000  0.4423410000000  0.4061710000000 1.0
C      1  0.5517200000000  0.5183870000000  0.4025460000000 1.0
C      1  0.4555640000000  0.5406750000000  0.4057730000000 1.0
C      1  0.5572290000000  0.4792510000000  0.5363240000000 1.0
C      1  0.4929820000000  0.5631690000000  0.5316610000000 1.0
C      1  0.4514980000000  0.4621510000000  0.5314030000000 1.0
C      1  0.5592020000000  0.4783860000000  0.4698120000000 1.0
C      1  0.4964170000000  0.5667900000000  0.4720630000000 1.0
C      1  0.4520030000000  0.4631070000000  0.4675750000000 1.0
C      1  0.4441250000000  0.4150850000000  0.5362140000000 1.0
C      1  0.5968390000000  0.5007290000000  0.5379680000000 1.0
C      1  0.4540430000000  0.5914480000000  0.5382320000000 1.0
C      1  0.4468090000000  0.4176200000000  0.4638100000000 1.0
C      1  0.5929150000000  0.4975370000000  0.4602650000000 1.0
C      1  0.4524970000000  0.5907530000000  0.4623720000000 1.0
C      1  0.4804950000000  0.4489870000000  0.4801450000000 1.0
C      1  0.5517240000000  0.5064410000000  0.4825270000000 1.0
C      1  0.4680120000000  0.5486760000000  0.4798880000000 1.0
C      1  0.4826320000000  0.4538420000000  0.5197360000000 1.0
C      1  0.5507570000000  0.5083080000000  0.5226820000000 1.0
C      1  0.4681580000000  0.5432070000000  0.5194680000000 1.0
C      1  0.5004410000000  0.4833770000000  0.3778720000000 1.0
C      1  0.5084960000000  0.5141360000000  0.3776090000000 1.0
C      1  0.4780160000000  0.5056940000000  0.3785130000000 1.0
C      1  0.5037470000000  0.4821610000000  0.6207040000000 1.0
C      1  0.5097250000000  0.5136370000000  0.6228940000000 1.0
C      1  0.4796400000000  0.5029790000000  0.6208970000000 1.0
C      1  0.5772510000000  0.5256640000000  0.5503740000000 1.0
C      1  0.4300080000000  0.5429130000000  0.5480390000000 1.0
C      1  0.4977250000000  0.4179040000000  0.5484020000000 1.0
C      1  0.5757290000000  0.5244060000000  0.4483410000000 1.0
C      1  0.4295260000000  0.5439690000000  0.4522780000000 1.0
C      1  0.5009440000000  0.4205590000000  0.4522080000000 1.0
C      1  0.4533750000000  0.5190840000000  0.4717520000000 1.0
C      1  0.5119560000000  0.4531680000000  0.4717280000000 1.0
C      1  0.5376040000000  0.5305920000000  0.4702170000000 1.0
C      1  0.4525100000000  0.5168670000000  0.5283950000000 1.0
C      1  0.5122330000000  0.4496790000000  0.5300120000000 1.0
C      1  0.5395490000000  0.5342790000000  0.5330560000000 1.0
C      1  0.5303360000000  0.5977290000000  0.5284340000000 1.0
C      1  0.3993180000000  0.4767670000000  0.5288210000000 1.0
C      1  0.5688450000000  0.4259270000000  0.5319790000000 1.0
C      1  0.5257410000000  0.5840190000000  0.4727960000000 1.0
C      1  0.3998720000000  0.4778500000000  0.4713130000000 1.0
C      1  0.5666550000000  0.4234890000000  0.4765970000000 1.0
C      1  0.5288270000000  0.4347330000000  0.6014840000000 1.0
C      1  0.5407360000000  0.5564540000000  0.5992010000000 1.0
C      1  0.4281390000000  0.5032360000000  0.5995910000000 1.0
C      1  0.5346230000000  0.4432130000000  0.4036780000000 1.0
C      1  0.5379970000000  0.5554450000000  0.4023090000000 1.0
C      1  0.4277550000000  0.5039880000000  0.4005590000000 1.0
C      1  0.5815460000000  0.4594990000000  0.5646740000000 1.0
C      1  0.4985750000000  0.5985930000000  0.5660750000000 1.0
C      1  0.4147230000000  0.4480860000000  0.5656810000000 1.0
C      1  0.5883310000000  0.4439730000000  0.4341660000000 1.0
C      1  0.5017590000000  0.5983450000000  0.4325440000000 1.0
C      1  0.4152670000000  0.4491110000000  0.4340690000000 1.0
C      1  0.5399000000000  0.4654750000000  0.5920860000000 1.0
C      1  0.5073640000000  0.5528320000000  0.5937640000000 1.0
C      1  0.4514550000000  0.4796060000000  0.5922410000000 1.0
C      1  0.5357980000000  0.4705290000000  0.3904860000000 1.0
C      1  0.5043700000000  0.5513950000000  0.4063160000000 1.0
C      1  0.4522100000000  0.4813480000000  0.4073220000000 1.0
C      1  0.5450200000000  0.4072850000000  0.5210940000000 1.0
C      1  0.5553750000000  0.5801730000000  0.5160090000000 1.0
C      1  0.3990460000000  0.5073850000000  0.5169860000000 1.0
C      1  0.5413310000000  0.4092820000000  0.4897480000000 1.0
C      1  0.5543610000000  0.5765320000000  0.4855940000000 1.0
C      1  0.4002430000000  0.5081040000000  0.4841980000000 1.0
C      1  0.4720430000000  0.5776700000000  0.5621950000000 1.0
C      1  0.4462230000000  0.4360980000000  0.5610640000000 1.0
C      1  0.6032530000000  0.4763000000000  0.5607590000000 1.0
C      1  0.4736770000000  0.5798680000000  0.4390440000000 1.0
C      1  0.4468440000000  0.4370700000000  0.4379540000000 1.0
C      1  0.5879450000000  0.4725380000000  0.4376130000000 1.0
C      1  0.3929050000000  0.5309840000000  0.5396510000000 1.0
C      1  0.5250350000000  0.3898740000000  0.5410540000000 1.0
C      1  0.5822190000000  0.5781230000000  0.5367870000000 1.0
C      1  0.3930220000000  0.5310320000000  0.4615640000000 1.0
C      1  0.5270820000000  0.3932130000000  0.4645030000000 1.0
C      1  0.5807540000000  0.5749020000000  0.4633930000000 1.0
C      1  0.5227610000000  0.4930300000000  0.4767200000000 1.0
C      1  0.4919260000000  0.5275430000000  0.4776610000000 1.0
C      1  0.4847510000000  0.4810920000000  0.4802290000000 1.0
C      1  0.5224670000000  0.4941480000000  0.5240870000000 1.0
C      1  0.4936560000000  0.5241390000000  0.5257130000000 1.0
C      1  0.4816080000000  0.4861440000000  0.5224140000000 1.0
C      1  0.4671990000000  0.5084650000000  0.5932600000000 1.0
C      1  0.5078240000000  0.4676770000000  0.5940290000000 1.0
C      1  0.5202140000000  0.5223300000000  0.5959380000000 1.0
C      1  0.4665140000000  0.5107410000000  0.4064550000000 1.0
C      1  0.5060170000000  0.4706710000000  0.4069000000000 1.0
C      1  0.5184430000000  0.5209330000000  0.4060060000000 1.0
C      1  0.4492690000000  0.5628980000000  0.5030190000000 1.0
C      1  0.5727550000000  0.5151650000000  0.5025590000000 1.0
C      1  0.4745960000000  0.4264670000000  0.5028140000000 1.0
C      1  0.5004440000000  0.5031870000000  0.4998090000000 1.0
END
