TITL C-2622958-629-130 -0.00591248955354523 125000 -1122.60870790513 0 0 200 (C1) n - 1
REM
REM in /nfs/bkarasulu/CARBON/AIRSS/Generating-Clusters/AIREBO/with-SteepDescent/Higher-Symm/SD-CG/HFTN-CG
REM
REM
REM
REM
REM
REM ./C.cell (b20cbc046b6831c77cfcea5457e17084)
REM
REM compiler GCC version 9.2.1 20190827 (Red Hat 9.2.1-1)
REM options -cpp -mtune=generic -march=x86-64 -g -O0 -fpre-include=/usr/include/finclude/math-vector-fortran.h
REM seed 2006540332 450182464 250406329 471764343 -1879982932 1614818640 -352327143 2131804839 -1116723310 -402653535 647956491 1982249510 -2011911710 -1441464654 1589277915 -1062830218 2132760442 -969156076 -1152915837 513141837 1378723197 -180273380 1958279754 -1357854023 -2100166114 -1434411080 -1851289319 -807994271 -1168121751 253248581 -529804728 -1331123954 -1609636008
REM
CELL 1.54180   50.00000   50.00000   50.00000   90.00000   90.00000   90.00000
LATT -1
SFAC C  
C      1  0.4817020000000  0.4532980000000  0.4634930000000 1.0
C      1  0.4906880000000  0.5502770000000  0.5763580000000 1.0
C      1  0.4829990000000  0.5444270000000  0.3998360000000 1.0
C      1  0.5357110000000  0.4822210000000  0.4309560000000 1.0
C      1  0.5796470000000  0.5753870000000  0.5292810000000 1.0
C      1  0.6095970000000  0.4825290000000  0.5053380000000 1.0
C      1  0.4803050000000  0.5364110000000  0.6123190000000 1.0
C      1  0.4257370000000  0.5976350000000  0.4748140000000 1.0
C      1  0.4844040000000  0.4129360000000  0.5482400000000 1.0
C      1  0.5319000000000  0.4758760000000  0.4612910000000 1.0
C      1  0.4353150000000  0.5425640000000  0.5793320000000 1.0
C      1  0.4755840000000  0.6071870000000  0.5370130000000 1.0
C      1  0.5526520000000  0.5906530000000  0.5233920000000 1.0
C      1  0.5134850000000  0.5248610000000  0.5463430000000 1.0
C      1  0.5240470000000  0.4235090000000  0.4939220000000 1.0
C      1  0.5196060000000  0.6195090000000  0.5808360000000 1.0
C      1  0.4596950000000  0.4505690000000  0.5781770000000 1.0
C      1  0.5397890000000  0.3968870000000  0.5396370000000 1.0
C      1  0.5343190000000  0.4855280000000  0.5565140000000 1.0
C      1  0.5092890000000  0.3849770000000  0.5172460000000 1.0
C      1  0.5497450000000  0.4948850000000  0.4829050000000 1.0
C      1  0.4217780000000  0.4380350000000  0.5061760000000 1.0
C      1  0.4724070000000  0.5187250000000  0.4049350000000 1.0
C      1  0.3952860000000  0.5299540000000  0.4836800000000 1.0
C      1  0.5282920000000  0.4569400000000  0.4096530000000 1.0
C      1  0.4155690000000  0.5852190000000  0.4992070000000 1.0
C      1  0.4630140000000  0.4468910000000  0.4082480000000 1.0
C      1  0.4650390000000  0.5433940000000  0.4355280000000 1.0
C      1  0.5108650000000  0.5228210000000  0.5138030000000 1.0
C      1  0.5215050000000  0.5045940000000  0.6240960000000 1.0
C      1  0.4822820000000  0.4705480000000  0.3927560000000 1.0
C      1  0.4005470000000  0.4763430000000  0.4711650000000 1.0
C      1  0.5329980000000  0.5253220000000  0.6087520000000 1.0
C      1  0.4521170000000  0.4498890000000  0.5292950000000 1.0
C      1  0.4509010000000  0.5314180000000  0.4817940000000 1.0
C      1  0.4724830000000  0.5064980000000  0.4838500000000 1.0
C      1  0.5746650000000  0.4902940000000  0.4299170000000 1.0
C      1  0.4335540000000  0.4490770000000  0.4251110000000 1.0
C      1  0.5333030000000  0.5124750000000  0.3629560000000 1.0
C      1  0.4905690000000  0.5275340000000  0.4392900000000 1.0
C      1  0.4414430000000  0.5795170000000  0.5160750000000 1.0
C      1  0.5331030000000  0.5473740000000  0.4850970000000 1.0
C      1  0.4750590000000  0.4746400000000  0.6141220000000 1.0
C      1  0.5056120000000  0.5982200000000  0.5376650000000 1.0
C      1  0.4524110000000  0.4677540000000  0.5993190000000 1.0
C      1  0.5289660000000  0.4462700000000  0.4519270000000 1.0
C      1  0.5538730000000  0.5176970000000  0.5916700000000 1.0
C      1  0.5836240000000  0.4389180000000  0.5222560000000 1.0
C      1  0.5169380000000  0.5700360000000  0.5792490000000 1.0
C      1  0.3971360000000  0.5606490000000  0.4969690000000 1.0
C      1  0.4117640000000  0.4465980000000  0.4749410000000 1.0
C      1  0.4822550000000  0.3764090000000  0.5189950000000 1.0
C      1  0.5548250000000  0.4276800000000  0.4482250000000 1.0
C      1  0.5423100000000  0.5621890000000  0.5258840000000 1.0
C      1  0.4412980000000  0.5081580000000  0.4039800000000 1.0
C      1  0.5575890000000  0.4473290000000  0.4240620000000 1.0
C      1  0.5583300000000  0.5387470000000  0.4159500000000 1.0
C      1  0.4224720000000  0.4235290000000  0.5340580000000 1.0
C      1  0.5497190000000  0.4591450000000  0.5116970000000 1.0
C      1  0.4261850000000  0.5769930000000  0.4511830000000 1.0
C      1  0.4547480000000  0.4786030000000  0.4085990000000 1.0
C      1  0.4335770000000  0.4883140000000  0.5941120000000 1.0
C      1  0.4079030000000  0.4993810000000  0.5198880000000 1.0
C      1  0.4824960000000  0.5092240000000  0.5263670000000 1.0
C      1  0.4582730000000  0.4920480000000  0.4362270000000 1.0
C      1  0.4144220000000  0.4951490000000  0.4172060000000 1.0
C      1  0.4303730000000  0.5705510000000  0.4193560000000 1.0
C      1  0.5332030000000  0.5827600000000  0.4267460000000 1.0
C      1  0.5837730000000  0.5418180000000  0.5254730000000 1.0
C      1  0.5307470000000  0.5788880000000  0.4742300000000 1.0
C      1  0.5342280000000  0.5112210000000  0.4195080000000 1.0
C      1  0.5423810000000  0.5100960000000  0.5124170000000 1.0
C      1  0.5850680000000  0.5281990000000  0.4577580000000 1.0
C      1  0.5029690000000  0.4116080000000  0.5932290000000 1.0
C      1  0.5137270000000  0.5976860000000  0.5677140000000 1.0
C      1  0.5323210000000  0.5586030000000  0.4103000000000 1.0
C      1  0.5613370000000  0.5399190000000  0.5718010000000 1.0
C      1  0.5758640000000  0.5560630000000  0.4846120000000 1.0
C      1  0.5585830000000  0.4826950000000  0.4057970000000 1.0
C      1  0.5635020000000  0.4076010000000  0.5549640000000 1.0
C      1  0.5667700000000  0.4369640000000  0.5476470000000 1.0
C      1  0.4358700000000  0.5014010000000  0.5030430000000 1.0
C      1  0.5751970000000  0.4620740000000  0.4491480000000 1.0
C      1  0.4264010000000  0.5245630000000  0.4592290000000 1.0
C      1  0.5605310000000  0.4911880000000  0.5772630000000 1.0
C      1  0.5034450000000  0.5646180000000  0.4657900000000 1.0
C      1  0.4617430000000  0.3989750000000  0.4491480000000 1.0
C      1  0.5644220000000  0.5540220000000  0.4544860000000 1.0
C      1  0.5803960000000  0.4701270000000  0.5175730000000 1.0
C      1  0.6090410000000  0.4668490000000  0.4529440000000 1.0
C      1  0.4378050000000  0.4733760000000  0.5145080000000 1.0
C      1  0.5037010000000  0.4133280000000  0.4686510000000 1.0
C      1  0.4849250000000  0.4613510000000  0.5580270000000 1.0
C      1  0.5764510000000  0.5172650000000  0.4330140000000 1.0
C      1  0.5842820000000  0.5539690000000  0.5780770000000 1.0
C      1  0.4616780000000  0.5671760000000  0.4114490000000 1.0
C      1  0.4505310000000  0.6105180000000  0.4800180000000 1.0
C      1  0.4345250000000  0.5427240000000  0.5300860000000 1.0
C      1  0.5009790000000  0.4351400000000  0.4427100000000 1.0
C      1  0.5771900000000  0.3841880000000  0.5369340000000 1.0
C      1  0.4939520000000  0.4790180000000  0.5303590000000 1.0
C      1  0.4847630000000  0.4595990000000  0.5086410000000 1.0
C      1  0.5645620000000  0.4574860000000  0.3924730000000 1.0
C      1  0.5432240000000  0.5177840000000  0.5533290000000 1.0
C      1  0.5106820000000  0.4840290000000  0.4000160000000 1.0
C      1  0.4543970000000  0.5649750000000  0.4591630000000 1.0
C      1  0.4253170000000  0.4974770000000  0.4737090000000 1.0
C      1  0.5648740000000  0.4660130000000  0.4813160000000 1.0
C      1  0.5119470000000  0.5317790000000  0.4634170000000 1.0
C      1  0.4619530000000  0.5618770000000  0.5366960000000 1.0
C      1  0.4872320000000  0.5671910000000  0.4950660000000 1.0
C      1  0.4554700000000  0.5610950000000  0.4911690000000 1.0
C      1  0.4956930000000  0.5142900000000  0.6330860000000 1.0
C      1  0.4918050000000  0.5135970000000  0.5933310000000 1.0
C      1  0.5271250000000  0.4817210000000  0.5233620000000 1.0
C      1  0.4113440000000  0.4828240000000  0.5751040000000 1.0
C      1  0.4582070000000  0.3783740000000  0.4677460000000 1.0
C      1  0.5732710000000  0.5152740000000  0.5426470000000 1.0
C      1  0.4728740000000  0.3873330000000  0.5437180000000 1.0
C      1  0.4094320000000  0.5047920000000  0.5526520000000 1.0
C      1  0.4824600000000  0.5988330000000  0.4835420000000 1.0
C      1  0.5194820000000  0.4731130000000  0.5845000000000 1.0
C      1  0.4569380000000  0.4774690000000  0.5490290000000 1.0
C      1  0.5068870000000  0.4487540000000  0.4865880000000 1.0
C      1  0.4281380000000  0.5585180000000  0.5575520000000 1.0
C      1  0.5487500000000  0.5797770000000  0.4499210000000 1.0
C      1  0.4888930000000  0.5208930000000  0.5639290000000 1.0
C      1  0.6080120000000  0.4316420000000  0.4837710000000 1.0
C      1  0.4541510000000  0.5234090000000  0.5146910000000 1.0
C      1  0.6125130000000  0.4819910000000  0.5379440000000 1.0
C      1  0.5543110000000  0.4645880000000  0.6187510000000 1.0
C      1  0.4326410000000  0.4402210000000  0.4516820000000 1.0
C      1  0.5017580000000  0.4994000000000  0.4720290000000 1.0
C      1  0.5153090000000  0.4497890000000  0.5618870000000 1.0
C      1  0.5113340000000  0.5470430000000  0.6033220000000 1.0
C      1  0.5815810000000  0.5162520000000  0.4826080000000 1.0
C      1  0.5801960000000  0.4311660000000  0.4654720000000 1.0
C      1  0.4626810000000  0.6054550000000  0.5103930000000 1.0
C      1  0.5221400000000  0.5138890000000  0.3884220000000 1.0
C      1  0.5126510000000  0.4335570000000  0.4044850000000 1.0
C      1  0.6012630000000  0.5587910000000  0.4937660000000 1.0
C      1  0.3871810000000  0.5068740000000  0.4644320000000 1.0
C      1  0.5397000000000  0.5330380000000  0.4438160000000 1.0
C      1  0.4244330000000  0.4678180000000  0.5516390000000 1.0
C      1  0.4389550000000  0.4397260000000  0.5583580000000 1.0
C      1  0.4579620000000  0.4289090000000  0.4618760000000 1.0
C      1  0.5879600000000  0.4880360000000  0.5568370000000 1.0
C      1  0.5697680000000  0.4656380000000  0.5956590000000 1.0
C      1  0.5753280000000  0.5016410000000  0.5128320000000 1.0
C      1  0.4165510000000  0.5457760000000  0.4269090000000 1.0
C      1  0.4987110000000  0.4236080000000  0.5689250000000 1.0
C      1  0.4653200000000  0.5670580000000  0.5694780000000 1.0
C      1  0.4590340000000  0.5966410000000  0.5574310000000 1.0
C      1  0.4675530000000  0.4740120000000  0.4864490000000 1.0
C      1  0.4049860000000  0.5330640000000  0.5161280000000 1.0
C      1  0.4905760000000  0.5699460000000  0.5262290000000 1.0
C      1  0.4556340000000  0.4305960000000  0.5044490000000 1.0
C      1  0.5115180000000  0.5442210000000  0.3965380000000 1.0
C      1  0.4936220000000  0.5002930000000  0.4202660000000 1.0
C      1  0.5168860000000  0.4172400000000  0.5248890000000 1.0
C      1  0.5287300000000  0.6051400000000  0.5172000000000 1.0
C      1  0.5348470000000  0.4430780000000  0.5378440000000 1.0
C      1  0.3850400000000  0.4933310000000  0.4957930000000 1.0
C      1  0.5161450000000  0.4787240000000  0.4913030000000 1.0
C      1  0.4079050000000  0.4648130000000  0.5242070000000 1.0
C      1  0.4813930000000  0.5764290000000  0.4504960000000 1.0
C      1  0.5527110000000  0.3830340000000  0.5153350000000 1.0
C      1  0.4023750000000  0.5167070000000  0.4364700000000 1.0
C      1  0.5094370000000  0.5989060000000  0.4331790000000 1.0
C      1  0.4859320000000  0.4837550000000  0.4489610000000 1.0
C      1  0.5551860000000  0.5411550000000  0.5070590000000 1.0
C      1  0.5143460000000  0.5551060000000  0.5371540000000 1.0
C      1  0.5376760000000  0.5563330000000  0.5618580000000 1.0
C      1  0.5755610000000  0.4209370000000  0.4949750000000 1.0
C      1  0.5363750000000  0.4052680000000  0.4626730000000 1.0
C      1  0.4113040000000  0.5541880000000  0.4663450000000 1.0
C      1  0.4143290000000  0.4678830000000  0.4156170000000 1.0
C      1  0.4612680000000  0.5077590000000  0.5528910000000 1.0
C      1  0.4376020000000  0.4674400000000  0.4823030000000 1.0
C      1  0.5976600000000  0.4629870000000  0.4822160000000 1.0
C      1  0.5215090000000  0.6041050000000  0.4903840000000 1.0
C      1  0.4840570000000  0.4269350000000  0.4169340000000 1.0
C      1  0.4746220000000  0.4104640000000  0.4850780000000 1.0
C      1  0.4364700000000  0.5135170000000  0.5712210000000 1.0
C      1  0.5513830000000  0.4033040000000  0.4931220000000 1.0
C      1  0.6111370000000  0.5356500000000  0.5098520000000 1.0
C      1  0.6103470000000  0.4259820000000  0.5136740000000 1.0
C      1  0.5299590000000  0.4784900000000  0.6153080000000 1.0
C      1  0.5058170000000  0.6073300000000  0.4613470000000 1.0
C      1  0.4860390000000  0.5841450000000  0.4226060000000 1.0
C      1  0.4687670000000  0.3810130000000  0.4951630000000 1.0
C      1  0.4852700000000  0.4292340000000  0.5211020000000 1.0
C      1  0.4463850000000  0.5206410000000  0.4352230000000 1.0
C      1  0.4716880000000  0.3998760000000  0.4240370000000 1.0
C      1  0.4574820000000  0.5508690000000  0.5983360000000 1.0
C      1  0.5780640000000  0.4572260000000  0.5672980000000 1.0
C      1  0.4924230000000  0.5330400000000  0.4912330000000 1.0
C      1  0.4323580000000  0.5860420000000  0.5481950000000 1.0
C      1  0.6099900000000  0.5108730000000  0.4958960000000 1.0
C      1  0.4948420000000  0.4868810000000  0.5988570000000 1.0
END
