TITL C-2622959-7779-498 0.00207471138663469 125000 -965.271608339874 0 0 180 (C1) n - 1
REM
REM in /nfs/bkarasulu/CARBON/AIRSS/Generating-Clusters/AIREBO/with-SteepDescent/Higher-Symm/SD-CG/HFTN-CG
REM
REM
REM
REM
REM
REM ./C.cell (b20cbc046b6831c77cfcea5457e17084)
REM
REM compiler GCC version 9.2.1 20190827 (Red Hat 9.2.1-1)
REM options -cpp -mtune=generic -march=x86-64 -g -O0 -fpre-include=/usr/include/finclude/math-vector-fortran.h
REM seed 620974565 -1792357326 -860981292 -449907051 -1373622064 1368414216 -1259708636 648861171 -115389181 1366622062 1922838055 385195688 -1997245074 -1409271301 -2071628366 -1060674592 1788477035 453063886 2124876464 -2093078322 22212882 637473047 -1949638061 445175558 -1003623455 779338835 902225260 803402069 1912648771 -360950463 -2055314244 -1090129382 1861131007
REM
CELL 1.54180   50.00000   50.00000   50.00000   90.00000   90.00000   90.00000
LATT -1
SFAC C  
C      1  0.4656180000000  0.4712050000000  0.5858970000000 1.0
C      1  0.4688580000000  0.5278350000000  0.4060630000000 1.0
C      1  0.5447650000000  0.5094450000000  0.5873560000000 1.0
C      1  0.5469800000000  0.4818470000000  0.4123210000000 1.0
C      1  0.5307670000000  0.5702800000000  0.4479780000000 1.0
C      1  0.5306270000000  0.4299640000000  0.5520630000000 1.0
C      1  0.4682730000000  0.4258340000000  0.4404770000000 1.0
C      1  0.4693040000000  0.5791880000000  0.5574090000000 1.0
C      1  0.5529890000000  0.4775220000000  0.5310980000000 1.0
C      1  0.5550150000000  0.5251330000000  0.4709640000000 1.0
C      1  0.4416320000000  0.5064190000000  0.5291900000000 1.0
C      1  0.4378470000000  0.4935010000000  0.4682070000000 1.0
C      1  0.4925450000000  0.4336250000000  0.4629840000000 1.0
C      1  0.4932670000000  0.5700640000000  0.5366110000000 1.0
C      1  0.5006240000000  0.5809500000000  0.4595610000000 1.0
C      1  0.5006140000000  0.4217370000000  0.5383570000000 1.0
C      1  0.4798800000000  0.4976570000000  0.5480470000000 1.0
C      1  0.4828260000000  0.5079350000000  0.4526580000000 1.0
C      1  0.5117750000000  0.5077350000000  0.5416920000000 1.0
C      1  0.5140150000000  0.4949500000000  0.4565180000000 1.0
C      1  0.4513140000000  0.5400070000000  0.4977920000000 1.0
C      1  0.4498750000000  0.4576240000000  0.4996410000000 1.0
C      1  0.5507230000000  0.4531760000000  0.4994520000000 1.0
C      1  0.5508630000000  0.5496720000000  0.5020830000000 1.0
C      1  0.5206810000000  0.5596600000000  0.4172920000000 1.0
C      1  0.5166100000000  0.4390230000000  0.5817120000000 1.0
C      1  0.4726300000000  0.4366570000000  0.4119850000000 1.0
C      1  0.4743280000000  0.5667750000000  0.5881250000000 1.0
C      1  0.5442940000000  0.4210360000000  0.5085410000000 1.0
C      1  0.5440050000000  0.5813500000000  0.4917910000000 1.0
C      1  0.4605120000000  0.5854480000000  0.5025310000000 1.0
C      1  0.4634550000000  0.4147190000000  0.4971770000000 1.0
C      1  0.5797310000000  0.4810420000000  0.4578810000000 1.0
C      1  0.5832800000000  0.5191110000000  0.5387520000000 1.0
C      1  0.4128520000000  0.5080820000000  0.4539030000000 1.0
C      1  0.4238080000000  0.4886810000000  0.5520750000000 1.0
C      1  0.5589700000000  0.5243560000000  0.4381990000000 1.0
C      1  0.5541990000000  0.4754270000000  0.5650130000000 1.0
C      1  0.4538550000000  0.4712010000000  0.4530540000000 1.0
C      1  0.4576520000000  0.5305670000000  0.5451580000000 1.0
C      1  0.4326700000000  0.4413640000000  0.5240470000000 1.0
C      1  0.4371960000000  0.5567140000000  0.4717580000000 1.0
C      1  0.5620080000000  0.5673610000000  0.5289250000000 1.0
C      1  0.5589960000000  0.4331680000000  0.4731870000000 1.0
C      1  0.5117380000000  0.4610190000000  0.4568660000000 1.0
C      1  0.5122750000000  0.5417140000000  0.5428310000000 1.0
C      1  0.4942820000000  0.5487070000000  0.4609360000000 1.0
C      1  0.4914850000000  0.4533060000000  0.5374130000000 1.0
C      1  0.4745240000000  0.4836590000000  0.4332400000000 1.0
C      1  0.4774910000000  0.5221960000000  0.5685910000000 1.0
C      1  0.5250960000000  0.5161990000000  0.4360350000000 1.0
C      1  0.5219760000000  0.4850730000000  0.5600450000000 1.0
C      1  0.5882620000000  0.5624820000000  0.5078670000000 1.0
C      1  0.5881660000000  0.4390360000000  0.4896540000000 1.0
C      1  0.4144730000000  0.4185370000000  0.5060680000000 1.0
C      1  0.4103140000000  0.5622510000000  0.4919540000000 1.0
C      1  0.4150420000000  0.4859810000000  0.4281360000000 1.0
C      1  0.4360500000000  0.5164370000000  0.5674330000000 1.0
C      1  0.5891620000000  0.5108000000000  0.4460340000000 1.0
C      1  0.5758930000000  0.4996750000000  0.5748980000000 1.0
C      1  0.4559210000000  0.4784190000000  0.5566680000000 1.0
C      1  0.4587200000000  0.5226490000000  0.4337260000000 1.0
C      1  0.5565350000000  0.5229360000000  0.5594000000000 1.0
C      1  0.5565250000000  0.4717300000000  0.4359010000000 1.0
C      1  0.4856480000000  0.3822670000000  0.5025120000000 1.0
C      1  0.4848760000000  0.6166280000000  0.4975790000000 1.0
C      1  0.5113250000000  0.6141040000000  0.5061270000000 1.0
C      1  0.5114640000000  0.3878780000000  0.4933460000000 1.0
C      1  0.5595310000000  0.3816890000000  0.4690510000000 1.0
C      1  0.5636760000000  0.6180410000000  0.5315670000000 1.0
C      1  0.4159320000000  0.5900590000000  0.4772440000000 1.0
C      1  0.4194340000000  0.3946300000000  0.5238010000000 1.0
C      1  0.5455820000000  0.4039140000000  0.4725730000000 1.0
C      1  0.5494590000000  0.5960830000000  0.5285680000000 1.0
C      1  0.4464160000000  0.5893430000000  0.4743360000000 1.0
C      1  0.4489290000000  0.4115100000000  0.5249360000000 1.0
C      1  0.4598340000000  0.4515520000000  0.5417970000000 1.0
C      1  0.4646020000000  0.5464540000000  0.4541280000000 1.0
C      1  0.5424240000000  0.5468870000000  0.5481470000000 1.0
C      1  0.5403180000000  0.4517080000000  0.4514740000000 1.0
C      1  0.4671290000000  0.4663050000000  0.4052430000000 1.0
C      1  0.4713780000000  0.5348270000000  0.5994300000000 1.0
C      1  0.5275890000000  0.5288920000000  0.4045740000000 1.0
C      1  0.5189470000000  0.4638270000000  0.6004860000000 1.0
C      1  0.3909760000000  0.4607010000000  0.4576890000000 1.0
C      1  0.3997500000000  0.5378530000000  0.5493520000000 1.0
C      1  0.6010390000000  0.5432910000000  0.4526480000000 1.0
C      1  0.6013960000000  0.4603180000000  0.5386970000000 1.0
C      1  0.4995010000000  0.4727020000000  0.4863630000000 1.0
C      1  0.4982880000000  0.5322790000000  0.5133010000000 1.0
C      1  0.5086260000000  0.5310580000000  0.4862450000000 1.0
C      1  0.5090190000000  0.4711700000000  0.5142290000000 1.0
C      1  0.5788560000000  0.5355290000000  0.4889250000000 1.0
C      1  0.5773650000000  0.4673970000000  0.5156680000000 1.0
C      1  0.4257140000000  0.4668050000000  0.4810660000000 1.0
C      1  0.4280600000000  0.5354100000000  0.5188650000000 1.0
C      1  0.4619300000000  0.3882390000000  0.4801450000000 1.0
C      1  0.4623600000000  0.6153000000000  0.5187020000000 1.0
C      1  0.5317230000000  0.6112600000000  0.4857410000000 1.0
C      1  0.5309960000000  0.3919750000000  0.5131550000000 1.0
C      1  0.4371980000000  0.4379900000000  0.4385470000000 1.0
C      1  0.4422430000000  0.5631240000000  0.5646500000000 1.0
C      1  0.5602970000000  0.5576320000000  0.4394640000000 1.0
C      1  0.5609570000000  0.4425560000000  0.5593510000000 1.0
C      1  0.4519850000000  0.5729320000000  0.4383230000000 1.0
C      1  0.4515810000000  0.4270720000000  0.5633420000000 1.0
C      1  0.5481010000000  0.4239030000000  0.4358360000000 1.0
C      1  0.5487850000000  0.5740610000000  0.5660280000000 1.0
C      1  0.4446610000000  0.5408430000000  0.5815230000000 1.0
C      1  0.4388370000000  0.4680340000000  0.4242880000000 1.0
C      1  0.5433330000000  0.4773210000000  0.5971780000000 1.0
C      1  0.5530540000000  0.5090660000000  0.4084090000000 1.0
C      1  0.5922230000000  0.5425580000000  0.5617030000000 1.0
C      1  0.5922620000000  0.4544620000000  0.4407620000000 1.0
C      1  0.4139620000000  0.4607520000000  0.5687840000000 1.0
C      1  0.4284980000000  0.5290000000000  0.4355130000000 1.0
C      1  0.5820300000000  0.4369320000000  0.5408950000000 1.0
C      1  0.5816600000000  0.5631660000000  0.4568250000000 1.0
C      1  0.4234900000000  0.5587550000000  0.5417790000000 1.0
C      1  0.4171600000000  0.4429380000000  0.4621610000000 1.0
C      1  0.4181510000000  0.4170470000000  0.4787480000000 1.0
C      1  0.4299460000000  0.5770530000000  0.5149490000000 1.0
C      1  0.5745240000000  0.5744360000000  0.4815360000000 1.0
C      1  0.5761850000000  0.4266120000000  0.5145980000000 1.0
C      1  0.4965370000000  0.5151430000000  0.4062340000000 1.0
C      1  0.4933790000000  0.4830970000000  0.5931540000000 1.0
C      1  0.4941300000000  0.4861380000000  0.3985950000000 1.0
C      1  0.4946100000000  0.5117410000000  0.6030600000000 1.0
C      1  0.5211800000000  0.5252580000000  0.5965570000000 1.0
C      1  0.5224200000000  0.4710910000000  0.4038970000000 1.0
C      1  0.4581780000000  0.4484860000000  0.5966220000000 1.0
C      1  0.4570280000000  0.5389120000000  0.3858320000000 1.0
C      1  0.4804420000000  0.5066010000000  0.5169440000000 1.0
C      1  0.4846020000000  0.4986530000000  0.4841200000000 1.0
C      1  0.5303940000000  0.4981340000000  0.5162410000000 1.0
C      1  0.5304520000000  0.5048630000000  0.4828750000000 1.0
C      1  0.4554260000000  0.4863270000000  0.5085370000000 1.0
C      1  0.4548130000000  0.5114800000000  0.4866400000000 1.0
C      1  0.5562160000000  0.5201850000000  0.5181520000000 1.0
C      1  0.5543380000000  0.4808760000000  0.4806030000000 1.0
C      1  0.5384010000000  0.6018530000000  0.4580520000000 1.0
C      1  0.5380250000000  0.3986650000000  0.5410200000000 1.0
C      1  0.4456280000000  0.4115720000000  0.4615410000000 1.0
C      1  0.4475380000000  0.5944670000000  0.5386780000000 1.0
C      1  0.5102480000000  0.5779810000000  0.4890520000000 1.0
C      1  0.5106030000000  0.4257740000000  0.5091120000000 1.0
C      1  0.4880780000000  0.4265510000000  0.4934530000000 1.0
C      1  0.4895520000000  0.5774250000000  0.5055210000000 1.0
C      1  0.4718170000000  0.5468210000000  0.5240930000000 1.0
C      1  0.4646050000000  0.4507870000000  0.4720250000000 1.0
C      1  0.5318200000000  0.4537220000000  0.5277220000000 1.0
C      1  0.5321720000000  0.5478890000000  0.4735870000000 1.0
C      1  0.5287610000000  0.4051940000000  0.4364510000000 1.0
C      1  0.5306500000000  0.5938570000000  0.5636470000000 1.0
C      1  0.4660170000000  0.5957530000000  0.4402450000000 1.0
C      1  0.4655410000000  0.4040020000000  0.5603890000000 1.0
C      1  0.6043010000000  0.5369800000000  0.5189900000000 1.0
C      1  0.5980910000000  0.4653150000000  0.4817950000000 1.0
C      1  0.4136180000000  0.4694640000000  0.5259330000000 1.0
C      1  0.4120400000000  0.5306770000000  0.4794180000000 1.0
C      1  0.5783860000000  0.5657250000000  0.5586790000000 1.0
C      1  0.5771600000000  0.4321720000000  0.4444570000000 1.0
C      1  0.4232910000000  0.4375210000000  0.5571290000000 1.0
C      1  0.4247230000000  0.5572970000000  0.4401320000000 1.0
C      1  0.4773640000000  0.6030310000000  0.4708590000000 1.0
C      1  0.4787360000000  0.3976190000000  0.5299240000000 1.0
C      1  0.5125750000000  0.4060610000000  0.4646180000000 1.0
C      1  0.5160080000000  0.5953030000000  0.5340700000000 1.0
C      1  0.5002440000000  0.4641870000000  0.4272550000000 1.0
C      1  0.5042220000000  0.5377900000000  0.5745880000000 1.0
C      1  0.5004120000000  0.5372850000000  0.4320190000000 1.0
C      1  0.4999370000000  0.4639500000000  0.5657030000000 1.0
C      1  0.5993470000000  0.4921920000000  0.5373930000000 1.0
C      1  0.6140830000000  0.5187300000000  0.4665150000000 1.0
C      1  0.4028090000000  0.5121580000000  0.5392260000000 1.0
C      1  0.3924870000000  0.4858820000000  0.4696700000000 1.0
C      1  0.6037820000000  0.4860100000000  0.5050890000000 1.0
C      1  0.6050200000000  0.5147110000000  0.4951020000000 1.0
C      1  0.4053170000000  0.5131120000000  0.5069630000000 1.0
C      1  0.4045750000000  0.4835470000000  0.4997000000000 1.0
END
