TITL C-2622963-3633-226 0.00288807608942742 125000 -197.571486533016 0 0 35 (C3) n - 1
REM
REM in /nfs/bkarasulu/CARBON/AIRSS/Generating-Clusters/AIREBO/with-SteepDescent/Higher-Symm/SD-CG/HFTN-CG
REM
REM
REM
REM
REM
REM ./C.cell (b20cbc046b6831c77cfcea5457e17084)
REM
REM compiler GCC version 9.2.1 20190827 (Red Hat 9.2.1-1)
REM options -cpp -mtune=generic -march=x86-64 -g -O0 -fpre-include=/usr/include/finclude/math-vector-fortran.h
REM seed -834123258 -309736824 691238326 1571872552 98875310 341760343 -758426146 -1436474085 2018582048 -946445138 -1921251096 80449362 -1714915411 1130078833 195370963 -1256680491 -1972263561 -544140263 -315614354 528560925 1999498112 -1050980490 878591508 -1113791608 -593758400 -979052777 -842150851 -2128398830 -696988702 -2089684332 205580949 -66542619 -2050083316
REM
CELL 1.54180   50.00000   50.00000   50.00000   90.00000   90.00000   90.00000
LATT -1
SFAC C  
C      1  0.4638190000000  0.4493160000000  0.4741520000000 1.0
C      1  0.4729900000000  0.5573870000000  0.4741980000000 1.0
C      1  0.5619960000000  0.4954090000000  0.4743740000000 1.0
C      1  0.5235830000000  0.4574090000000  0.4980290000000 1.0
C      1  0.4500460000000  0.5015300000000  0.4978820000000 1.0
C      1  0.5250240000000  0.5431550000000  0.4980530000000 1.0
C      1  0.4696370000000  0.5382610000000  0.5367190000000 1.0
C      1  0.5469220000000  0.5077360000000  0.5368770000000 1.0
C      1  0.4818440000000  0.4560680000000  0.5367250000000 1.0
C      1  0.5535300000000  0.4808770000000  0.5362710000000 1.0
C      1  0.4552810000000  0.4637760000000  0.5360550000000 1.0
C      1  0.4895960000000  0.5574130000000  0.5361520000000 1.0
C      1  0.5523470000000  0.4628500000000  0.5091910000000 1.0
C      1  0.4403420000000  0.4738740000000  0.5089530000000 1.0
C      1  0.5058910000000  0.5653620000000  0.5091160000000 1.0
C      1  0.5213340000000  0.5179600000000  0.5313080000000 1.0
C      1  0.5035090000000  0.4731280000000  0.5312590000000 1.0
C      1  0.4735950000000  0.5109810000000  0.5312040000000 1.0
C      1  0.4753860000000  0.5298420000000  0.4694300000000 1.0
C      1  0.5369590000000  0.5071170000000  0.4695570000000 1.0
C      1  0.4864910000000  0.4651550000000  0.4694380000000 1.0
C      1  0.5261580000000  0.5081020000000  0.4435880000000 1.0
C      1  0.4928230000000  0.4740750000000  0.4435080000000 1.0
C      1  0.4800220000000  0.5199570000000  0.4434920000000 1.0
C      1  0.5704560000000  0.4731640000000  0.4878600000000 1.0
C      1  0.4402840000000  0.4530820000000  0.4875760000000 1.0
C      1  0.4879780000000  0.5758560000000  0.4877080000000 1.0
C      1  0.5171220000000  0.5446940000000  0.5369950000000 1.0
C      1  0.5287490000000  0.4633960000000  0.5370000000000 1.0
C      1  0.4525300000000  0.4939750000000  0.5368430000000 1.0
C      1  0.4745620000000  0.5111470000000  0.4911050000000 1.0
C      1  0.5211140000000  0.5171290000000  0.4912070000000 1.0
C      1  0.5030200000000  0.4738230000000  0.4911570000000 1.0
C      1  0.4996800000000  0.5007120000000  0.4378070000000 1.0
C      1  0.4995210000000  0.5006950000000  0.5117230000000 1.0
END
