TITL C-2622955-8511-770 -0.000915960899180012 125000 -723.334534034001 0 0 134 (C1) n - 1
REM
REM in /nfs/bkarasulu/CARBON/AIRSS/Generating-Clusters/AIREBO/with-SteepDescent/Higher-Symm/SD-CG/HFTN-CG
REM
REM
REM
REM
REM
REM ./C.cell (b20cbc046b6831c77cfcea5457e17084)
REM
REM compiler GCC version 9.2.1 20190827 (Red Hat 9.2.1-1)
REM options -cpp -mtune=generic -march=x86-64 -g -O0 -fpre-include=/usr/include/finclude/math-vector-fortran.h
REM seed 1788997015 -465262247 -859111191 400999507 -1630277156 -1601924306 308058359 -983311263 298375181 1338493007 358740700 -579307891 -1095926186 1849292642 1322447140 -740405374 -662127454 -1251630465 -1916386404 484714559 -1547957838 1016990491 -1514732265 -325088349 -1413106621 306922760 -652401737 -527307385 1879631689 -155403272 1868124699 852608977 -1926978986
REM
CELL 1.54180   50.00000   50.00000   50.00000   90.00000   90.00000   90.00000
LATT -1
SFAC C  
C      1  0.5250610000000  0.4282000000000  0.5186320000000 1.0
C      1  0.5270450000000  0.5237280000000  0.4180340000000 1.0
C      1  0.5250640000000  0.5526090000000  0.5624550000000 1.0
C      1  0.4670110000000  0.4523240000000  0.5206090000000 1.0
C      1  0.4677420000000  0.5116710000000  0.4414490000000 1.0
C      1  0.4708090000000  0.5375940000000  0.5336930000000 1.0
C      1  0.5061260000000  0.5429230000000  0.5155880000000 1.0
C      1  0.5152470000000  0.4720040000000  0.5249480000000 1.0
C      1  0.5133030000000  0.4975330000000  0.4578640000000 1.0
C      1  0.5607870000000  0.5025100000000  0.4482620000000 1.0
C      1  0.5632420000000  0.5386930000000  0.5348270000000 1.0
C      1  0.5497380000000  0.4485820000000  0.5301420000000 1.0
C      1  0.4297910000000  0.4753310000000  0.5224380000000 1.0
C      1  0.4404420000000  0.4935840000000  0.4779330000000 1.0
C      1  0.4341870000000  0.5063850000000  0.5091430000000 1.0
C      1  0.4290410000000  0.5014470000000  0.4468590000000 1.0
C      1  0.4312910000000  0.5328410000000  0.5303600000000 1.0
C      1  0.4295860000000  0.4508100000000  0.5051380000000 1.0
C      1  0.4832510000000  0.5825830000000  0.5628680000000 1.0
C      1  0.4866290000000  0.4047040000000  0.5438750000000 1.0
C      1  0.4967530000000  0.4984240000000  0.4119370000000 1.0
C      1  0.4315280000000  0.5117900000000  0.5544920000000 1.0
C      1  0.4320930000000  0.4544800000000  0.4773490000000 1.0
C      1  0.4303060000000  0.5313150000000  0.4630740000000 1.0
C      1  0.5226720000000  0.4201370000000  0.4688790000000 1.0
C      1  0.5255330000000  0.5693130000000  0.4382370000000 1.0
C      1  0.5241420000000  0.5175650000000  0.5994100000000 1.0
C      1  0.4901670000000  0.4837700000000  0.4741400000000 1.0
C      1  0.4863040000000  0.5355420000000  0.4899560000000 1.0
C      1  0.4881020000000  0.4872860000000  0.5325920000000 1.0
C      1  0.5395900000000  0.4753910000000  0.5484480000000 1.0
C      1  0.5381330000000  0.4776930000000  0.4540770000000 1.0
C      1  0.5482050000000  0.5445990000000  0.4910450000000 1.0
C      1  0.5308400000000  0.5644410000000  0.5123610000000 1.0
C      1  0.5248910000000  0.4540010000000  0.5704290000000 1.0
C      1  0.5193250000000  0.4797960000000  0.4111140000000 1.0
C      1  0.4435360000000  0.5900240000000  0.5342570000000 1.0
C      1  0.4485470000000  0.4188340000000  0.5685280000000 1.0
C      1  0.4491190000000  0.4980780000000  0.3957630000000 1.0
C      1  0.4515810000000  0.4672950000000  0.5462570000000 1.0
C      1  0.4646120000000  0.4873470000000  0.4578580000000 1.0
C      1  0.4684560000000  0.5563010000000  0.5063590000000 1.0
C      1  0.4879960000000  0.5436330000000  0.4595650000000 1.0
C      1  0.4872410000000  0.5077100000000  0.5572960000000 1.0
C      1  0.4894750000000  0.4508650000000  0.4771670000000 1.0
C      1  0.5062460000000  0.5332190000000  0.3957740000000 1.0
C      1  0.4982520000000  0.5628450000000  0.5770030000000 1.0
C      1  0.5040110000000  0.4033040000000  0.5201650000000 1.0
C      1  0.5454490000000  0.4949390000000  0.4188660000000 1.0
C      1  0.5403640000000  0.5703650000000  0.5422840000000 1.0
C      1  0.5306890000000  0.4279720000000  0.5529750000000 1.0
C      1  0.4583210000000  0.4408870000000  0.4675100000000 1.0
C      1  0.4553910000000  0.5506740000000  0.4529580000000 1.0
C      1  0.4573520000000  0.5108090000000  0.5703210000000 1.0
C      1  0.5534140000000  0.5003730000000  0.5291210000000 1.0
C      1  0.5582530000000  0.4783900000000  0.4799640000000 1.0
C      1  0.5593350000000  0.5135750000000  0.4993910000000 1.0
C      1  0.5687020000000  0.5676200000000  0.5244740000000 1.0
C      1  0.5632900000000  0.4236160000000  0.5470560000000 1.0
C      1  0.5714030000000  0.4741280000000  0.4223540000000 1.0
C      1  0.4954660000000  0.5719260000000  0.4769260000000 1.0
C      1  0.5020120000000  0.4797530000000  0.5698490000000 1.0
C      1  0.4936060000000  0.4467230000000  0.4436600000000 1.0
C      1  0.4924790000000  0.5074490000000  0.4984300000000 1.0
C      1  0.4634880000000  0.5096530000000  0.5254650000000 1.0
C      1  0.4745270000000  0.4789660000000  0.5036780000000 1.0
C      1  0.4779250000000  0.4277840000000  0.5636950000000 1.0
C      1  0.4714020000000  0.4817660000000  0.4099630000000 1.0
C      1  0.4760250000000  0.5952740000000  0.5319040000000 1.0
C      1  0.5726350000000  0.4970770000000  0.5543970000000 1.0
C      1  0.5714890000000  0.4527760000000  0.4690250000000 1.0
C      1  0.5718060000000  0.5493880000000  0.4670360000000 1.0
C      1  0.4542470000000  0.4080090000000  0.5386970000000 1.0
C      1  0.4745280000000  0.5208210000000  0.3994170000000 1.0
C      1  0.4535290000000  0.5768770000000  0.5589490000000 1.0
C      1  0.4957490000000  0.5187660000000  0.6032680000000 1.0
C      1  0.4947500000000  0.4089180000000  0.4712560000000 1.0
C      1  0.4960870000000  0.5736290000000  0.4277560000000 1.0
C      1  0.4804030000000  0.4154600000000  0.4461690000000 1.0
C      1  0.4804320000000  0.5817320000000  0.4504070000000 1.0
C      1  0.4844940000000  0.4931700000000  0.5957280000000 1.0
C      1  0.5434940000000  0.5352730000000  0.5789580000000 1.0
C      1  0.5411790000000  0.4206220000000  0.4919370000000 1.0
C      1  0.5439740000000  0.5462490000000  0.4280450000000 1.0
C      1  0.4850910000000  0.5847450000000  0.5066720000000 1.0
C      1  0.4794580000000  0.4560950000000  0.5603770000000 1.0
C      1  0.4680700000000  0.4670890000000  0.4354950000000 1.0
C      1  0.5721390000000  0.5292140000000  0.5655950000000 1.0
C      1  0.5657330000000  0.4302290000000  0.4849400000000 1.0
C      1  0.5651520000000  0.5357450000000  0.4439650000000 1.0
C      1  0.4829040000000  0.5525900000000  0.4082120000000 1.0
C      1  0.4842620000000  0.5430830000000  0.5930790000000 1.0
C      1  0.4821690000000  0.4083860000000  0.5020480000000 1.0
C      1  0.4184420000000  0.5281990000000  0.4883430000000 1.0
C      1  0.4179170000000  0.4887520000000  0.5487450000000 1.0
C      1  0.4150620000000  0.4752080000000  0.4633710000000 1.0
C      1  0.5338060000000  0.5099340000000  0.4772900000000 1.0
C      1  0.5342000000000  0.5275150000000  0.5270460000000 1.0
C      1  0.5364540000000  0.4781550000000  0.5008590000000 1.0
C      1  0.5271500000000  0.5899230000000  0.4933780000000 1.0
C      1  0.5349960000000  0.4500930000000  0.5989830000000 1.0
C      1  0.5106000000000  0.4535770000000  0.4150080000000 1.0
C      1  0.5560770000000  0.5074400000000  0.5946370000000 1.0
C      1  0.5378290000000  0.4205610000000  0.4384460000000 1.0
C      1  0.5334570000000  0.5898970000000  0.4641740000000 1.0
C      1  0.4490220000000  0.4265080000000  0.5146610000000 1.0
C      1  0.4451300000000  0.5232150000000  0.4262790000000 1.0
C      1  0.4497860000000  0.5472210000000  0.5551310000000 1.0
C      1  0.4516540000000  0.5821660000000  0.4586820000000 1.0
C      1  0.4557180000000  0.4867360000000  0.5904360000000 1.0
C      1  0.4558590000000  0.4363940000000  0.4354740000000 1.0
C      1  0.5250870000000  0.5574810000000  0.4701100000000 1.0
C      1  0.5313210000000  0.4965570000000  0.5737470000000 1.0
C      1  0.5266830000000  0.4490210000000  0.4512260000000 1.0
C      1  0.4369260000000  0.5635230000000  0.5168770000000 1.0
C      1  0.4345410000000  0.4389530000000  0.5825910000000 1.0
C      1  0.4323920000000  0.4832320000000  0.4183320000000 1.0
C      1  0.4576720000000  0.4143280000000  0.4840770000000 1.0
C      1  0.4530290000000  0.5505130000000  0.4190380000000 1.0
C      1  0.4581120000000  0.5382190000000  0.5844940000000 1.0
C      1  0.6088690000000  0.5143100000000  0.5150350000000 1.0
C      1  0.5793230000000  0.5024480000000  0.4767750000000 1.0
C      1  0.5910060000000  0.5198740000000  0.5384500000000 1.0
C      1  0.5802030000000  0.4573770000000  0.4423780000000 1.0
C      1  0.5727210000000  0.5676880000000  0.4958350000000 1.0
C      1  0.5687300000000  0.4697710000000  0.5650570000000 1.0
C      1  0.5009670000000  0.5360490000000  0.5474770000000 1.0
C      1  0.4990140000000  0.4481730000000  0.5097140000000 1.0
C      1  0.4999890000000  0.5197210000000  0.4382600000000 1.0
C      1  0.4327490000000  0.4558310000000  0.4207840000000 1.0
C      1  0.4468270000000  0.5722560000000  0.4855030000000 1.0
C      1  0.4443830000000  0.4649880000000  0.5773170000000 1.0
C      1  0.5209180000000  0.5069170000000  0.5067910000000 1.0
C      1  0.6061030000000  0.5055470000000  0.4917780000000 1.0
END
