TITL C-2622958-629-346 -0.000818451113819063 125000 -813.387474455677 0 0 151 (C1) n - 1
REM
REM in /nfs/bkarasulu/CARBON/AIRSS/Generating-Clusters/AIREBO/with-SteepDescent/Higher-Symm/SD-CG/HFTN-CG
REM
REM
REM
REM
REM
REM ./C.cell (b20cbc046b6831c77cfcea5457e17084)
REM
REM compiler GCC version 9.2.1 20190827 (Red Hat 9.2.1-1)
REM options -cpp -mtune=generic -march=x86-64 -g -O0 -fpre-include=/usr/include/finclude/math-vector-fortran.h
REM seed -83543899 -529934226 977905855 -591050783 -1307701428 -38559978 2022672536 165627142 337507240 1634473639 2039845948 -956204330 1107391917 -294130593 -427523059 -164448750 -241888162 -498181079 -264391127 -994647158 1138222169 328641047 922617119 -1908486860 268935683 -972814621 1226511286 1844296557 95556621 1192282205 -1380751107 -1447645444 -1723047978
REM
CELL 1.54180   50.00000   50.00000   50.00000   90.00000   90.00000   90.00000
LATT -1
SFAC C  
C      1  0.4905970000000  0.5218900000000  0.5900440000000 1.0
C      1  0.5183930000000  0.5165080000000  0.5885400000000 1.0
C      1  0.5231310000000  0.4887050000000  0.5945000000000 1.0
C      1  0.4965570000000  0.4782730000000  0.6003580000000 1.0
C      1  0.4768760000000  0.4979080000000  0.5934140000000 1.0
C      1  0.4869930000000  0.4790530000000  0.4025970000000 1.0
C      1  0.5144360000000  0.4849680000000  0.3986210000000 1.0
C      1  0.5193260000000  0.5125900000000  0.4022410000000 1.0
C      1  0.4944730000000  0.5252260000000  0.4046220000000 1.0
C      1  0.4741970000000  0.5046830000000  0.4066250000000 1.0
C      1  0.4503930000000  0.4157010000000  0.5068290000000 1.0
C      1  0.4109280000000  0.5318030000000  0.5079620000000 1.0
C      1  0.5139640000000  0.5987880000000  0.5202700000000 1.0
C      1  0.5779700000000  0.5177880000000  0.5017470000000 1.0
C      1  0.5528300000000  0.4220850000000  0.5101280000000 1.0
C      1  0.4444850000000  0.5867930000000  0.4927870000000 1.0
C      1  0.4122700000000  0.4825300000000  0.4845410000000 1.0
C      1  0.5098080000000  0.4014030000000  0.4923190000000 1.0
C      1  0.5905360000000  0.4664490000000  0.4860610000000 1.0
C      1  0.5424900000000  0.5827770000000  0.4845380000000 1.0
C      1  0.5298350000000  0.4788250000000  0.5230780000000 1.0
C      1  0.5021240000000  0.4637040000000  0.5292270000000 1.0
C      1  0.4797050000000  0.4870020000000  0.5185340000000 1.0
C      1  0.4828300000000  0.5485360000000  0.5328690000000 1.0
C      1  0.5161880000000  0.5071150000000  0.5245180000000 1.0
C      1  0.5284480000000  0.5035640000000  0.4753180000000 1.0
C      1  0.4939530000000  0.5335090000000  0.4793940000000 1.0
C      1  0.4780950000000  0.4955050000000  0.4743540000000 1.0
C      1  0.4877370000000  0.4649200000000  0.4705750000000 1.0
C      1  0.5200470000000  0.4751690000000  0.4676780000000 1.0
C      1  0.4478890000000  0.4278780000000  0.4688590000000 1.0
C      1  0.4071000000000  0.5315600000000  0.4391950000000 1.0
C      1  0.4918730000000  0.5933510000000  0.4492460000000 1.0
C      1  0.5826900000000  0.5338470000000  0.4519580000000 1.0
C      1  0.5629590000000  0.4195220000000  0.4431820000000 1.0
C      1  0.4369870000000  0.5924410000000  0.5439830000000 1.0
C      1  0.4174490000000  0.4711630000000  0.5562600000000 1.0
C      1  0.5027160000000  0.4030330000000  0.5619260000000 1.0
C      1  0.5871140000000  0.4777770000000  0.5531600000000 1.0
C      1  0.5580290000000  0.5687820000000  0.5625960000000 1.0
C      1  0.4770030000000  0.5453260000000  0.5748110000000 1.0
C      1  0.5332520000000  0.5384860000000  0.5727740000000 1.0
C      1  0.5462530000000  0.4675530000000  0.5812350000000 1.0
C      1  0.4935200000000  0.4510600000000  0.5861820000000 1.0
C      1  0.4511320000000  0.4888320000000  0.5754510000000 1.0
C      1  0.4812250000000  0.4483380000000  0.4160850000000 1.0
C      1  0.5325870000000  0.4652470000000  0.4124620000000 1.0
C      1  0.5453340000000  0.5271850000000  0.4167290000000 1.0
C      1  0.4935610000000  0.5502070000000  0.4234460000000 1.0
C      1  0.4531410000000  0.5145200000000  0.4267580000000 1.0
C      1  0.5263410000000  0.5514090000000  0.4629540000000 1.0
C      1  0.5551980000000  0.4856100000000  0.4518410000000 1.0
C      1  0.5260230000000  0.4386280000000  0.4528200000000 1.0
C      1  0.4463930000000  0.4798900000000  0.4449820000000 1.0
C      1  0.4618880000000  0.5416720000000  0.4572420000000 1.0
C      1  0.5074670000000  0.4325160000000  0.5353450000000 1.0
C      1  0.5555230000000  0.5095010000000  0.5574640000000 1.0
C      1  0.5138910000000  0.5554260000000  0.5421590000000 1.0
C      1  0.4473980000000  0.5239880000000  0.5404930000000 1.0
C      1  0.4687430000000  0.4532610000000  0.5486190000000 1.0
C      1  0.5530980000000  0.4048100000000  0.4616630000000 1.0
C      1  0.4294000000000  0.4476080000000  0.4607410000000 1.0
C      1  0.4124910000000  0.5510050000000  0.4546520000000 1.0
C      1  0.5176390000000  0.6017630000000  0.4605290000000 1.0
C      1  0.5897670000000  0.5112530000000  0.4599140000000 1.0
C      1  0.5484210000000  0.5865860000000  0.5467160000000 1.0
C      1  0.4263250000000  0.5667000000000  0.5366440000000 1.0
C      1  0.4213720000000  0.4503330000000  0.5426840000000 1.0
C      1  0.5227420000000  0.3969760000000  0.5475500000000 1.0
C      1  0.5864030000000  0.4982370000000  0.5350020000000 1.0
C      1  0.4511300000000  0.5245280000000  0.5102200000000 1.0
C      1  0.4951640000000  0.5582460000000  0.5026950000000 1.0
C      1  0.5336070000000  0.5191270000000  0.5004770000000 1.0
C      1  0.5225450000000  0.4524480000000  0.4910870000000 1.0
C      1  0.4596340000000  0.4522660000000  0.4986460000000 1.0
C      1  0.4566580000000  0.4977100000000  0.4977720000000 1.0
C      1  0.4912620000000  0.4531980000000  0.5005600000000 1.0
C      1  0.5465240000000  0.4757030000000  0.4974420000000 1.0
C      1  0.5269860000000  0.5481390000000  0.4961820000000 1.0
C      1  0.4625260000000  0.5512910000000  0.4960800000000 1.0
C      1  0.5574280000000  0.4799130000000  0.4201140000000 1.0
C      1  0.5001380000000  0.4265380000000  0.4343430000000 1.0
C      1  0.4333310000000  0.4531060000000  0.4314010000000 1.0
C      1  0.4639800000000  0.5646340000000  0.4322490000000 1.0
C      1  0.5283830000000  0.5778900000000  0.4449990000000 1.0
C      1  0.5759250000000  0.5048880000000  0.5803310000000 1.0
C      1  0.4950800000000  0.5723540000000  0.5648620000000 1.0
C      1  0.4340440000000  0.5469640000000  0.5541510000000 1.0
C      1  0.4644610000000  0.4429650000000  0.5793110000000 1.0
C      1  0.5390910000000  0.4396090000000  0.5947440000000 1.0
C      1  0.5104350000000  0.4648500000000  0.4377860000000 1.0
C      1  0.4768860000000  0.4702330000000  0.4400150000000 1.0
C      1  0.4755680000000  0.5132980000000  0.4503300000000 1.0
C      1  0.5053960000000  0.5294210000000  0.4476380000000 1.0
C      1  0.5331000000000  0.5101180000000  0.4434710000000 1.0
C      1  0.5134490000000  0.5236170000000  0.5494430000000 1.0
C      1  0.4793020000000  0.5204430000000  0.5517220000000 1.0
C      1  0.4743830000000  0.4867650000000  0.5507120000000 1.0
C      1  0.5030860000000  0.4721540000000  0.5616200000000 1.0
C      1  0.5339170000000  0.4848260000000  0.5546630000000 1.0
C      1  0.5151860000000  0.4314880000000  0.5950210000000 1.0
C      1  0.4436440000000  0.4607040000000  0.5873990000000 1.0
C      1  0.4460710000000  0.5501370000000  0.5790440000000 1.0
C      1  0.5218290000000  0.5672380000000  0.5794440000000 1.0
C      1  0.5706790000000  0.4845530000000  0.5947910000000 1.0
C      1  0.5163290000000  0.5725930000000  0.4203520000000 1.0
C      1  0.4449390000000  0.5444220000000  0.4200990000000 1.0
C      1  0.4497580000000  0.4413330000000  0.4128090000000 1.0
C      1  0.5221040000000  0.4345670000000  0.4132640000000 1.0
C      1  0.5641080000000  0.5032050000000  0.4063550000000 1.0
C      1  0.5804040000000  0.4435440000000  0.4698400000000 1.0
C      1  0.4937580000000  0.4107350000000  0.4638260000000 1.0
C      1  0.4065690000000  0.5037630000000  0.4677910000000 1.0
C      1  0.4581960000000  0.5809630000000  0.4622190000000 1.0
C      1  0.5633200000000  0.5641840000000  0.4693250000000 1.0
C      1  0.5751440000000  0.5438220000000  0.5239330000000 1.0
C      1  0.4906470000000  0.5954090000000  0.5397370000000 1.0
C      1  0.4123230000000  0.5091220000000  0.5249700000000 1.0
C      1  0.4685270000000  0.4018790000000  0.5264200000000 1.0
C      1  0.5674970000000  0.4401700000000  0.5349750000000 1.0
C      1  0.5252200000000  0.4117240000000  0.5193010000000 1.0
C      1  0.4466890000000  0.4426160000000  0.5263130000000 1.0
C      1  0.4308470000000  0.5587950000000  0.5064690000000 1.0
C      1  0.5327950000000  0.5704930000000  0.5211580000000 1.0
C      1  0.5561080000000  0.5087810000000  0.5237040000000 1.0
C      1  0.5090560000000  0.5864620000000  0.4896680000000 1.0
C      1  0.4365260000000  0.5496270000000  0.4742170000000 1.0
C      1  0.4423810000000  0.4727820000000  0.4795630000000 1.0
C      1  0.5337450000000  0.4227340000000  0.4818870000000 1.0
C      1  0.5716840000000  0.4916140000000  0.4809720000000 1.0
C      1  0.5559270000000  0.5407740000000  0.5475310000000 1.0
C      1  0.5671200000000  0.4576210000000  0.5562670000000 1.0
C      1  0.4800690000000  0.4210940000000  0.5474910000000 1.0
C      1  0.4324090000000  0.4984020000000  0.5487060000000 1.0
C      1  0.4653890000000  0.5745850000000  0.5384180000000 1.0
C      1  0.5569800000000  0.4520650000000  0.4484160000000 1.0
C      1  0.5535040000000  0.5444110000000  0.4437350000000 1.0
C      1  0.4871050000000  0.5631670000000  0.4641830000000 1.0
C      1  0.4262780000000  0.5053450000000  0.4417430000000 1.0
C      1  0.4738420000000  0.4343570000000  0.4658310000000 1.0
C      1  0.3980440000000  0.5264260000000  0.4826750000000 1.0
C      1  0.4768660000000  0.5967920000000  0.4859620000000 1.0
C      1  0.5818770000000  0.5489880000000  0.4905500000000 1.0
C      1  0.5783210000000  0.4201230000000  0.4886020000000 1.0
C      1  0.4707000000000  0.4004430000000  0.4866750000000 1.0
C      1  0.4029880000000  0.4857270000000  0.5108710000000 1.0
C      1  0.4875360000000  0.3845470000000  0.5100040000000 1.0
C      1  0.5851860000000  0.4450840000000  0.5093830000000 1.0
C      1  0.5642580000000  0.5720010000000  0.5083300000000 1.0
C      1  0.4651220000000  0.5993680000000  0.5167070000000 1.0
C      1  0.4947260000000  0.5098420000000  0.4996570000000 1.0
END
