TITL C-2622958-629-592 8.48830950773123e-05 125000 -200.336474958053 0 0 41 (C1) n - 1
REM
REM in /nfs/bkarasulu/CARBON/AIRSS/Generating-Clusters/AIREBO/with-SteepDescent/Higher-Symm/SD-CG/HFTN-CG
REM
REM
REM
REM
REM
REM ./C.cell (b20cbc046b6831c77cfcea5457e17084)
REM
REM compiler GCC version 9.2.1 20190827 (Red Hat 9.2.1-1)
REM options -cpp -mtune=generic -march=x86-64 -g -O0 -fpre-include=/usr/include/finclude/math-vector-fortran.h
REM seed -2109954187 -1144078274 73274101 1235648816 -216137282 239858752 -1059479383 97914618 -1542107778 -1634760612 -2016663553 -1581563687 932787719 535853125 -563401554 -1049051372 2130599474 1798962591 1243408131 1517795495 164665464 1151526149 -2112342394 -9287534 -2089564694 -466586511 -1577394364 -245633526 1364919447 -625993650 -1866005961 2119575542 -945984408
REM
CELL 1.54180   50.00000   50.00000   50.00000   90.00000   90.00000   90.00000
LATT -1
SFAC C  
C      1  0.5288090000000  0.4519020000000  0.4517380000000 1.0
C      1  0.4505730000000  0.5474810000000  0.4719160000000 1.0
C      1  0.4684480000000  0.4516820000000  0.5493980000000 1.0
C      1  0.5508560000000  0.5440010000000  0.5302800000000 1.0
C      1  0.4522900000000  0.4846930000000  0.4799910000000 1.0
C      1  0.4762410000000  0.5170050000000  0.5517110000000 1.0
C      1  0.5525220000000  0.4810010000000  0.5280860000000 1.0
C      1  0.5174220000000  0.5136760000000  0.4499560000000 1.0
C      1  0.4857660000000  0.4508070000000  0.4969770000000 1.0
C      1  0.4951710000000  0.5458650000000  0.5135080000000 1.0
C      1  0.5140500000000  0.4542950000000  0.5056470000000 1.0
C      1  0.5038200000000  0.5463310000000  0.4857600000000 1.0
C      1  0.4563400000000  0.4537370000000  0.4824090000000 1.0
C      1  0.4843680000000  0.5441140000000  0.5452650000000 1.0
C      1  0.5457350000000  0.4552460000000  0.5169010000000 1.0
C      1  0.5138050000000  0.5456400000000  0.4534140000000 1.0
C      1  0.5211240000000  0.4803410000000  0.4429170000000 1.0
C      1  0.4440730000000  0.5176910000000  0.4755450000000 1.0
C      1  0.4745120000000  0.4847790000000  0.5505580000000 1.0
C      1  0.5526110000000  0.5119790000000  0.5189110000000 1.0
C      1  0.4512250000000  0.5058330000000  0.5066090000000 1.0
C      1  0.5053600000000  0.4897260000000  0.5494300000000 1.0
C      1  0.5489620000000  0.5111850000000  0.4894150000000 1.0
C      1  0.4906690000000  0.4927440000000  0.4515960000000 1.0
C      1  0.5285340000000  0.5138330000000  0.5428490000000 1.0
C      1  0.5434440000000  0.4847610000000  0.4686140000000 1.0
C      1  0.4683030000000  0.5183630000000  0.4515820000000 1.0
C      1  0.4498470000000  0.4799090000000  0.5285820000000 1.0
C      1  0.4690760000000  0.4968000000000  0.4252990000000 1.0
C      1  0.4235930000000  0.5015390000000  0.5259620000000 1.0
C      1  0.5270540000000  0.4991370000000  0.5717670000000 1.0
C      1  0.5696280000000  0.5037580000000  0.4655570000000 1.0
C      1  0.4608280000000  0.4507500000000  0.5188070000000 1.0
C      1  0.5194720000000  0.5442600000000  0.5356470000000 1.0
C      1  0.5365640000000  0.4550420000000  0.4817250000000 1.0
C      1  0.4812620000000  0.5477060000000  0.4606710000000 1.0
C      1  0.5198500000000  0.5184360000000  0.4820240000000 1.0
C      1  0.4857310000000  0.4805820000000  0.4805290000000 1.0
C      1  0.4790810000000  0.5174890000000  0.5159410000000 1.0
C      1  0.5169510000000  0.4826330000000  0.5209040000000 1.0
C      1  0.5009860000000  0.5000670000000  0.5000400000000 1.0
END
