TITL C-2622966-9038-395 0.00503916084291059 125000 -945.68925725727 0 0 179 (C1) n - 1
REM
REM in /nfs/bkarasulu/CARBON/AIRSS/Generating-Clusters/AIREBO/with-SteepDescent/Higher-Symm/SD-CG/HFTN-CG
REM
REM
REM
REM
REM
REM ./C.cell (b20cbc046b6831c77cfcea5457e17084)
REM
REM compiler GCC version 9.2.1 20190827 (Red Hat 9.2.1-1)
REM options -cpp -mtune=generic -march=x86-64 -g -O0 -fpre-include=/usr/include/finclude/math-vector-fortran.h
REM seed 11137512 -1763975289 1390135167 2005449392 -530620674 1810684691 -1372783104 956178298 1041191041 -1786085219 1926129589 1462439785 746570404 -203742408 -1403584040 -1727597773 1247450936 -183628573 -163899254 -2071952138 919246203 -591334213 1546428609 -966870142 515926689 2101760338 -63324905 -267024482 -2144240504 -119859191 -526816885 -1530022403 1704614508
REM
CELL 1.54180   50.00000   50.00000   50.00000   90.00000   90.00000   90.00000
LATT -1
SFAC C  
C      1  0.5254320000000  0.4296530000000  0.5630960000000 1.0
C      1  0.5232300000000  0.5427730000000  0.5878970000000 1.0
C      1  0.5261240000000  0.5876080000000  0.4924330000000 1.0
C      1  0.5245530000000  0.5173030000000  0.4053790000000 1.0
C      1  0.5231730000000  0.4201200000000  0.4544760000000 1.0
C      1  0.4967010000000  0.5287150000000  0.4212800000000 1.0
C      1  0.5027850000000  0.4472790000000  0.4523040000000 1.0
C      1  0.5004430000000  0.4374430000000  0.5413710000000 1.0
C      1  0.5033960000000  0.5197050000000  0.5726580000000 1.0
C      1  0.4968990000000  0.5743520000000  0.5044840000000 1.0
C      1  0.5500010000000  0.5206630000000  0.4492330000000 1.0
C      1  0.5541660000000  0.4593880000000  0.4585910000000 1.0
C      1  0.5404120000000  0.4592700000000  0.5305940000000 1.0
C      1  0.5601060000000  0.5111270000000  0.5613300000000 1.0
C      1  0.5386540000000  0.5572630000000  0.5012900000000 1.0
C      1  0.5512220000000  0.4198790000000  0.4613570000000 1.0
C      1  0.5534040000000  0.4387790000000  0.5619080000000 1.0
C      1  0.5518020000000  0.5442260000000  0.5811530000000 1.0
C      1  0.5583130000000  0.5850350000000  0.4810740000000 1.0
C      1  0.5537900000000  0.5097800000000  0.4114610000000 1.0
C      1  0.4759570000000  0.5066410000000  0.5881050000000 1.0
C      1  0.4701880000000  0.5844540000000  0.5223230000000 1.0
C      1  0.4699840000000  0.5492100000000  0.4262810000000 1.0
C      1  0.4773340000000  0.4510130000000  0.4298520000000 1.0
C      1  0.4730350000000  0.4194370000000  0.5330270000000 1.0
C      1  0.5606700000000  0.5410120000000  0.5498620000000 1.0
C      1  0.5606320000000  0.5536170000000  0.4682720000000 1.0
C      1  0.5624560000000  0.4937840000000  0.4402210000000 1.0
C      1  0.5627090000000  0.4413280000000  0.4839380000000 1.0
C      1  0.5575840000000  0.4718580000000  0.5552420000000 1.0
C      1  0.5202660000000  0.5279240000000  0.4436170000000 1.0
C      1  0.5275490000000  0.4706190000000  0.4501090000000 1.0
C      1  0.5193890000000  0.4434750000000  0.5137500000000 1.0
C      1  0.5290090000000  0.5003450000000  0.5609390000000 1.0
C      1  0.5194940000000  0.5606830000000  0.5259190000000 1.0
C      1  0.4402330000000  0.5848130000000  0.5316690000000 1.0
C      1  0.4364060000000  0.5544260000000  0.4250080000000 1.0
C      1  0.4442440000000  0.4460920000000  0.4237620000000 1.0
C      1  0.4429100000000  0.4115560000000  0.5248000000000 1.0
C      1  0.4436070000000  0.4965010000000  0.5912480000000 1.0
C      1  0.4099400000000  0.4826790000000  0.5222810000000 1.0
C      1  0.4083170000000  0.5157270000000  0.5251080000000 1.0
C      1  0.4128860000000  0.5260280000000  0.4941310000000 1.0
C      1  0.4108430000000  0.5027120000000  0.4691700000000 1.0
C      1  0.4115280000000  0.4753330000000  0.4894490000000 1.0
C      1  0.4289870000000  0.5700880000000  0.4547410000000 1.0
C      1  0.4360870000000  0.4787240000000  0.4171190000000 1.0
C      1  0.4385810000000  0.4201930000000  0.4922010000000 1.0
C      1  0.4344460000000  0.4683310000000  0.5745340000000 1.0
C      1  0.4360360000000  0.5597900000000  0.5543040000000 1.0
C      1  0.6051590000000  0.5144610000000  0.4754490000000 1.0
C      1  0.6124830000000  0.4809030000000  0.4759700000000 1.0
C      1  0.6157490000000  0.4698400000000  0.5090570000000 1.0
C      1  0.6118050000000  0.4974200000000  0.5299800000000 1.0
C      1  0.6080610000000  0.5249520000000  0.5087300000000 1.0
C      1  0.5653810000000  0.4943660000000  0.4741240000000 1.0
C      1  0.5617270000000  0.4717010000000  0.4992100000000 1.0
C      1  0.5651720000000  0.4904080000000  0.5277600000000 1.0
C      1  0.5592190000000  0.5232990000000  0.5208630000000 1.0
C      1  0.5575600000000  0.5251170000000  0.4869280000000 1.0
C      1  0.4767170000000  0.4106350000000  0.5012780000000 1.0
C      1  0.4817200000000  0.4755690000000  0.5909700000000 1.0
C      1  0.4837140000000  0.5702520000000  0.5493130000000 1.0
C      1  0.4778090000000  0.5733650000000  0.4422430000000 1.0
C      1  0.4852380000000  0.4739090000000  0.4122740000000 1.0
C      1  0.5081760000000  0.5830590000000  0.5612550000000 1.0
C      1  0.5066630000000  0.5824790000000  0.4407610000000 1.0
C      1  0.5119990000000  0.4694760000000  0.3996020000000 1.0
C      1  0.5049400000000  0.3989880000000  0.4953830000000 1.0
C      1  0.5102840000000  0.4658340000000  0.5979680000000 1.0
C      1  0.4128490000000  0.4971500000000  0.4356270000000 1.0
C      1  0.4162280000000  0.4431370000000  0.4794710000000 1.0
C      1  0.4108980000000  0.4621820000000  0.5498790000000 1.0
C      1  0.4102250000000  0.5366280000000  0.5526310000000 1.0
C      1  0.4124190000000  0.5579560000000  0.4824080000000 1.0
C      1  0.5794260000000  0.5530480000000  0.4398910000000 1.0
C      1  0.5777710000000  0.4693390000000  0.4282360000000 1.0
C      1  0.5724190000000  0.4242600000000  0.5073730000000 1.0
C      1  0.5764030000000  0.4798720000000  0.5793490000000 1.0
C      1  0.5767480000000  0.5663280000000  0.5430560000000 1.0
C      1  0.5162660000000  0.4939780000000  0.3869940000000 1.0
C      1  0.5077030000000  0.3979360000000  0.4670340000000 1.0
C      1  0.5121620000000  0.4383330000000  0.5911250000000 1.0
C      1  0.5121180000000  0.5714280000000  0.5861340000000 1.0
C      1  0.5118050000000  0.5981820000000  0.4637860000000 1.0
C      1  0.4793980000000  0.4587240000000  0.5149990000000 1.0
C      1  0.4768360000000  0.5001090000000  0.5487330000000 1.0
C      1  0.4747730000000  0.5423070000000  0.5128810000000 1.0
C      1  0.4756400000000  0.5309900000000  0.4613500000000 1.0
C      1  0.4748490000000  0.4741330000000  0.4621730000000 1.0
C      1  0.5599480000000  0.4848440000000  0.6012310000000 1.0
C      1  0.5616870000000  0.5889180000000  0.5465210000000 1.0
C      1  0.5499600000000  0.5649410000000  0.4380400000000 1.0
C      1  0.5606300000000  0.4531090000000  0.4135250000000 1.0
C      1  0.5547250000000  0.4019710000000  0.5096140000000 1.0
C      1  0.5000090000000  0.5333210000000  0.3781860000000 1.0
C      1  0.4939770000000  0.4065140000000  0.4212940000000 1.0
C      1  0.5043930000000  0.3957720000000  0.5680740000000 1.0
C      1  0.4975570000000  0.5359370000000  0.6177100000000 1.0
C      1  0.5050370000000  0.6245150000000  0.5051320000000 1.0
C      1  0.4930590000000  0.5019000000000  0.4637360000000 1.0
C      1  0.4954840000000  0.4675740000000  0.4883890000000 1.0
C      1  0.4949880000000  0.4784590000000  0.5349230000000 1.0
C      1  0.4932830000000  0.5169060000000  0.5240900000000 1.0
C      1  0.4943060000000  0.5388980000000  0.4864750000000 1.0
C      1  0.5884590000000  0.4540240000000  0.5112100000000 1.0
C      1  0.5887740000000  0.4954970000000  0.5517870000000 1.0
C      1  0.5873180000000  0.5433220000000  0.5203460000000 1.0
C      1  0.5834010000000  0.5239420000000  0.4551970000000 1.0
C      1  0.5861730000000  0.4705870000000  0.4611680000000 1.0
C      1  0.4595000000000  0.5244710000000  0.4067880000000 1.0
C      1  0.4665590000000  0.4246340000000  0.4460570000000 1.0
C      1  0.4691190000000  0.4295110000000  0.5653120000000 1.0
C      1  0.4555460000000  0.5338080000000  0.5894260000000 1.0
C      1  0.4657470000000  0.5950130000000  0.4903010000000 1.0
C      1  0.4208590000000  0.5093330000000  0.5691810000000 1.0
C      1  0.4220330000000  0.5644860000000  0.5114520000000 1.0
C      1  0.4209460000000  0.5281980000000  0.4401500000000 1.0
C      1  0.4239760000000  0.4507910000000  0.4506550000000 1.0
C      1  0.4227350000000  0.4385070000000  0.5303180000000 1.0
C      1  0.5697820000000  0.5223940000000  0.5921060000000 1.0
C      1  0.5703980000000  0.5634790000000  0.5040180000000 1.0
C      1  0.5786050000000  0.5253050000000  0.4217000000000 1.0
C      1  0.5737170000000  0.4343390000000  0.4463110000000 1.0
C      1  0.5689650000000  0.4407920000000  0.5337880000000 1.0
C      1  0.4548940000000  0.5864730000000  0.4607020000000 1.0
C      1  0.4589680000000  0.4914730000000  0.3994310000000 1.0
C      1  0.4579140000000  0.4066420000000  0.4729420000000 1.0
C      1  0.4590880000000  0.4535130000000  0.5842520000000 1.0
C      1  0.4620390000000  0.5638200000000  0.5748250000000 1.0
C      1  0.5270310000000  0.5012320000000  0.4651610000000 1.0
C      1  0.5281100000000  0.4700270000000  0.4943330000000 1.0
C      1  0.5244970000000  0.4882020000000  0.5294420000000 1.0
C      1  0.5255620000000  0.5270380000000  0.5239490000000 1.0
C      1  0.5250040000000  0.5348660000000  0.4855700000000 1.0
C      1  0.4409080000000  0.4738940000000  0.5266620000000 1.0
C      1  0.4392090000000  0.5179490000000  0.5332220000000 1.0
C      1  0.4446530000000  0.5313680000000  0.4890570000000 1.0
C      1  0.4421210000000  0.5021970000000  0.4619550000000 1.0
C      1  0.4435700000000  0.4712300000000  0.4868620000000 1.0
C      1  0.4916200000000  0.4622650000000  0.5628800000000 1.0
C      1  0.4885120000000  0.5382620000000  0.5501220000000 1.0
C      1  0.4878210000000  0.5673590000000  0.4724530000000 1.0
C      1  0.4881440000000  0.4986730000000  0.4301630000000 1.0
C      1  0.4900170000000  0.4347050000000  0.4812080000000 1.0
C      1  0.3991060000000  0.4852950000000  0.5675330000000 1.0
C      1  0.4004880000000  0.5612750000000  0.5362710000000 1.0
C      1  0.3991440000000  0.5437630000000  0.4579450000000 1.0
C      1  0.4028950000000  0.4683290000000  0.4367190000000 1.0
C      1  0.4029300000000  0.4321170000000  0.5053770000000 1.0
C      1  0.4920610000000  0.4175870000000  0.5812750000000 1.0
C      1  0.4823270000000  0.5486570000000  0.5996430000000 1.0
C      1  0.4921200000000  0.6109790000000  0.4836390000000 1.0
C      1  0.4823010000000  0.5148470000000  0.3867570000000 1.0
C      1  0.4817440000000  0.3956770000000  0.4511120000000 1.0
C      1  0.5187240000000  0.5169990000000  0.6092260000000 1.0
C      1  0.5254670000000  0.6093020000000  0.5174290000000 1.0
C      1  0.5191120000000  0.5490410000000  0.3958310000000 1.0
C      1  0.5167700000000  0.4242230000000  0.4231110000000 1.0
C      1  0.5194860000000  0.4025310000000  0.5444140000000 1.0
C      1  0.5223320000000  0.5585100000000  0.4283300000000 1.0
C      1  0.5289030000000  0.4541010000000  0.4200560000000 1.0
C      1  0.5245950000000  0.4099000000000  0.5152270000000 1.0
C      1  0.5289840000000  0.4907970000000  0.5938720000000 1.0
C      1  0.5307760000000  0.5891190000000  0.5407560000000 1.0
C      1  0.4634620000000  0.4561060000000  0.5448560000000 1.0
C      1  0.4592480000000  0.5275090000000  0.5585270000000 1.0
C      1  0.4605630000000  0.5613800000000  0.4911590000000 1.0
C      1  0.4597830000000  0.5124550000000  0.4379620000000 1.0
C      1  0.4599130000000  0.4465150000000  0.4710680000000 1.0
C      1  0.4476870000000  0.4477480000000  0.5091270000000 1.0
C      1  0.4440160000000  0.4913880000000  0.5518970000000 1.0
C      1  0.4471580000000  0.5464570000000  0.5256670000000 1.0
C      1  0.4448290000000  0.5419260000000  0.4600860000000 1.0
C      1  0.4467470000000  0.4758270000000  0.4473580000000 1.0
C      1  0.4867590000000  0.4992310000000  0.4972210000000 1.0
C      1  0.4573970000000  0.5005690000000  0.4894550000000 1.0
C      1  0.5264600000000  0.5036860000000  0.4991550000000 1.0
C      1  0.5941960000000  0.4948770000000  0.5010020000000 1.0
END
