TITL C-2622958-629-314 0.000391005382326215 125000 -940.610359623721 0 0 167 (C1) n - 1
REM
REM in /nfs/bkarasulu/CARBON/AIRSS/Generating-Clusters/AIREBO/with-SteepDescent/Higher-Symm/SD-CG/HFTN-CG
REM
REM
REM
REM
REM
REM ./C.cell (b20cbc046b6831c77cfcea5457e17084)
REM
REM compiler GCC version 9.2.1 20190827 (Red Hat 9.2.1-1)
REM options -cpp -mtune=generic -march=x86-64 -g -O0 -fpre-include=/usr/include/finclude/math-vector-fortran.h
REM seed -1902257427 1695142686 1584790292 1960830816 -1448661939 -1713260619 -322118136 -1108089423 -1080982531 -2048005488 -2124573854 1524924931 1247816059 1104933777 969747577 464838017 857701632 -403226349 -1953221696 -2546000 -1094428551 1911792726 -511838957 887987898 -1519661076 -605514473 -951362721 59946766 -934038599 -1815076790 -869209655 2040782301 1848695811
REM
CELL 1.54180   50.00000   50.00000   50.00000   90.00000   90.00000   90.00000
LATT -1
SFAC C  
C      1  0.5326930000000  0.5942240000000  0.5440940000000 1.0
C      1  0.4663590000000  0.4036980000000  0.5433380000000 1.0
C      1  0.4640640000000  0.4599930000000  0.4187880000000 1.0
C      1  0.5360100000000  0.5459490000000  0.4174200000000 1.0
C      1  0.4767450000000  0.5852100000000  0.4497920000000 1.0
C      1  0.5260120000000  0.4084290000000  0.4491470000000 1.0
C      1  0.4580310000000  0.4958120000000  0.5801600000000 1.0
C      1  0.5389410000000  0.4934710000000  0.5806860000000 1.0
C      1  0.5031370000000  0.4449890000000  0.5484880000000 1.0
C      1  0.4896470000000  0.5571640000000  0.5448020000000 1.0
C      1  0.4897610000000  0.4565910000000  0.5924320000000 1.0
C      1  0.5048120000000  0.5313220000000  0.5908600000000 1.0
C      1  0.4424530000000  0.4175700000000  0.5272720000000 1.0
C      1  0.5603260000000  0.5889100000000  0.5402680000000 1.0
C      1  0.3897720000000  0.5173000000000  0.5513670000000 1.0
C      1  0.6106540000000  0.4824930000000  0.5552000000000 1.0
C      1  0.4099450000000  0.4562670000000  0.5392850000000 1.0
C      1  0.5875830000000  0.5443610000000  0.5392140000000 1.0
C      1  0.4919780000000  0.4522850000000  0.5107140000000 1.0
C      1  0.5149600000000  0.5550400000000  0.4996950000000 1.0
C      1  0.5267580000000  0.3965140000000  0.5024480000000 1.0
C      1  0.4766330000000  0.6026100000000  0.4978940000000 1.0
C      1  0.4260980000000  0.5942050000000  0.5015270000000 1.0
C      1  0.5768930000000  0.4082370000000  0.5018150000000 1.0
C      1  0.5159530000000  0.5015610000000  0.6030150000000 1.0
C      1  0.4900020000000  0.4841650000000  0.6123350000000 1.0
C      1  0.4756960000000  0.4350340000000  0.4028660000000 1.0
C      1  0.5193150000000  0.5624680000000  0.3973110000000 1.0
C      1  0.4533470000000  0.5761430000000  0.4652260000000 1.0
C      1  0.5476230000000  0.4265570000000  0.4667250000000 1.0
C      1  0.4505680000000  0.4465460000000  0.5129150000000 1.0
C      1  0.5577560000000  0.5475670000000  0.5069010000000 1.0
C      1  0.4503960000000  0.4696770000000  0.4586730000000 1.0
C      1  0.5465230000000  0.5197130000000  0.4510230000000 1.0
C      1  0.4223890000000  0.5501740000000  0.5700110000000 1.0
C      1  0.5735660000000  0.4476980000000  0.5594060000000 1.0
C      1  0.5694090000000  0.4517160000000  0.4737450000000 1.0
C      1  0.4409730000000  0.5447800000000  0.4671080000000 1.0
C      1  0.5571850000000  0.4799960000000  0.5392690000000 1.0
C      1  0.4420100000000  0.5174440000000  0.5380930000000 1.0
C      1  0.4691220000000  0.5275150000000  0.5106210000000 1.0
C      1  0.5330120000000  0.4762470000000  0.5076560000000 1.0
C      1  0.4673660000000  0.5761750000000  0.5716670000000 1.0
C      1  0.5319970000000  0.4226100000000  0.5731360000000 1.0
C      1  0.4807660000000  0.4057910000000  0.4746660000000 1.0
C      1  0.5275500000000  0.5988280000000  0.4639320000000 1.0
C      1  0.4662310000000  0.5115880000000  0.4691940000000 1.0
C      1  0.5459590000000  0.4822020000000  0.4644280000000 1.0
C      1  0.5597910000000  0.4912420000000  0.4380040000000 1.0
C      1  0.4678050000000  0.4906230000000  0.4441410000000 1.0
C      1  0.5885190000000  0.4796120000000  0.4354590000000 1.0
C      1  0.4113300000000  0.5105530000000  0.4416690000000 1.0
C      1  0.4493380000000  0.4403510000000  0.4415000000000 1.0
C      1  0.5418400000000  0.5653000000000  0.4413160000000 1.0
C      1  0.4968800000000  0.5161920000000  0.5120740000000 1.0
C      1  0.5009450000000  0.4829040000000  0.5123480000000 1.0
C      1  0.4321260000000  0.4969510000000  0.4021500000000 1.0
C      1  0.5624670000000  0.5045420000000  0.3975590000000 1.0
C      1  0.3846640000000  0.4696360000000  0.4521780000000 1.0
C      1  0.5929830000000  0.5457290000000  0.4586510000000 1.0
C      1  0.4572700000000  0.5091010000000  0.3977260000000 1.0
C      1  0.5352230000000  0.4907420000000  0.3953650000000 1.0
C      1  0.4380470000000  0.5170660000000  0.4866690000000 1.0
C      1  0.5728410000000  0.4836430000000  0.4851950000000 1.0
C      1  0.4844860000000  0.3912620000000  0.5234450000000 1.0
C      1  0.5185270000000  0.5991080000000  0.5199490000000 1.0
C      1  0.5840790000000  0.4333150000000  0.5108250000000 1.0
C      1  0.4097100000000  0.5749350000000  0.5112730000000 1.0
C      1  0.4418520000000  0.5702020000000  0.5813920000000 1.0
C      1  0.5585780000000  0.4299270000000  0.5754440000000 1.0
C      1  0.4872950000000  0.4889850000000  0.4809740000000 1.0
C      1  0.5121730000000  0.5119180000000  0.4843380000000 1.0
C      1  0.5623360000000  0.5310750000000  0.4064140000000 1.0
C      1  0.4345210000000  0.4737540000000  0.4183430000000 1.0
C      1  0.4664170000000  0.4109400000000  0.5040660000000 1.0
C      1  0.5287950000000  0.5841330000000  0.4945680000000 1.0
C      1  0.4067460000000  0.5476210000000  0.5072840000000 1.0
C      1  0.5964610000000  0.4586020000000  0.5055530000000 1.0
C      1  0.5197170000000  0.5235050000000  0.4310230000000 1.0
C      1  0.4917380000000  0.4775270000000  0.4262390000000 1.0
C      1  0.5303870000000  0.4557390000000  0.4636850000000 1.0
C      1  0.4796570000000  0.5385430000000  0.4589450000000 1.0
C      1  0.5126040000000  0.4127910000000  0.4800900000000 1.0
C      1  0.4955980000000  0.5945790000000  0.4752510000000 1.0
C      1  0.6087620000000  0.5009670000000  0.5270010000000 1.0
C      1  0.3950600000000  0.5023280000000  0.5216960000000 1.0
C      1  0.6102600000000  0.4708540000000  0.4815820000000 1.0
C      1  0.3947730000000  0.5367950000000  0.4819620000000 1.0
C      1  0.4686450000000  0.4963840000000  0.5361130000000 1.0
C      1  0.5465340000000  0.5083200000000  0.5271120000000 1.0
C      1  0.4383060000000  0.4540720000000  0.5848040000000 1.0
C      1  0.5436720000000  0.5331250000000  0.5789460000000 1.0
C      1  0.4201210000000  0.4467530000000  0.5019030000000 1.0
C      1  0.5738100000000  0.5600030000000  0.4825310000000 1.0
C      1  0.4117050000000  0.5134440000000  0.4132140000000 1.0
C      1  0.5844630000000  0.4883340000000  0.4067130000000 1.0
C      1  0.4968360000000  0.4843560000000  0.5461300000000 1.0
C      1  0.5168450000000  0.5168090000000  0.5360730000000 1.0
C      1  0.5170360000000  0.4416720000000  0.4901920000000 1.0
C      1  0.4921920000000  0.5628480000000  0.4790750000000 1.0
C      1  0.4033580000000  0.4777490000000  0.4785200000000 1.0
C      1  0.5961150000000  0.5345940000000  0.4899800000000 1.0
C      1  0.5173980000000  0.4141690000000  0.5468330000000 1.0
C      1  0.4798830000000  0.5892420000000  0.5452360000000 1.0
C      1  0.5166680000000  0.5830530000000  0.5653020000000 1.0
C      1  0.4772520000000  0.4098370000000  0.5673270000000 1.0
C      1  0.5742340000000  0.5701650000000  0.4442430000000 1.0
C      1  0.4199550000000  0.4442780000000  0.4537420000000 1.0
C      1  0.5501100000000  0.5016190000000  0.4971710000000 1.0
C      1  0.4562250000000  0.4965840000000  0.5048580000000 1.0
C      1  0.5255850000000  0.4674030000000  0.5396380000000 1.0
C      1  0.4646590000000  0.5421030000000  0.5376650000000 1.0
C      1  0.5195220000000  0.5162020000000  0.5650050000000 1.0
C      1  0.4665410000000  0.4656000000000  0.5697670000000 1.0
C      1  0.4509720000000  0.5927600000000  0.4892560000000 1.0
C      1  0.5516100000000  0.4062050000000  0.4902230000000 1.0
C      1  0.5153070000000  0.5476880000000  0.5284380000000 1.0
C      1  0.4720240000000  0.4541260000000  0.5382070000000 1.0
C      1  0.4660640000000  0.5464370000000  0.4886300000000 1.0
C      1  0.5488490000000  0.4489930000000  0.4997030000000 1.0
C      1  0.5867550000000  0.4724160000000  0.5651080000000 1.0
C      1  0.4106450000000  0.5242250000000  0.5682530000000 1.0
C      1  0.5622470000000  0.4476300000000  0.5301260000000 1.0
C      1  0.4365840000000  0.5565640000000  0.5442250000000 1.0
C      1  0.5949180000000  0.4647960000000  0.4577010000000 1.0
C      1  0.4132970000000  0.5319860000000  0.4591590000000 1.0
C      1  0.4902470000000  0.6016670000000  0.5223630000000 1.0
C      1  0.5119480000000  0.3965160000000  0.5260690000000 1.0
C      1  0.6032150000000  0.5304720000000  0.5206780000000 1.0
C      1  0.4067880000000  0.4743640000000  0.5121870000000 1.0
C      1  0.4777780000000  0.4372420000000  0.4853150000000 1.0
C      1  0.5310160000000  0.5596430000000  0.4700710000000 1.0
C      1  0.4886320000000  0.4159440000000  0.4127230000000 1.0
C      1  0.5070980000000  0.5829310000000  0.4058390000000 1.0
C      1  0.5335120000000  0.5442860000000  0.6046440000000 1.0
C      1  0.4591600000000  0.4489940000000  0.6056220000000 1.0
C      1  0.5593000000000  0.5877670000000  0.4692460000000 1.0
C      1  0.4130190000000  0.4360630000000  0.4783660000000 1.0
C      1  0.4778420000000  0.5096190000000  0.5959060000000 1.0
C      1  0.5081550000000  0.4797440000000  0.5762340000000 1.0
C      1  0.5695990000000  0.5269620000000  0.5599160000000 1.0
C      1  0.4251760000000  0.4717380000000  0.5622170000000 1.0
C      1  0.4451090000000  0.4749410000000  0.5377790000000 1.0
C      1  0.5478430000000  0.5406330000000  0.5376370000000 1.0
C      1  0.5410190000000  0.5298810000000  0.4831220000000 1.0
C      1  0.4622290000000  0.4673050000000  0.4886300000000 1.0
C      1  0.5076090000000  0.5898060000000  0.4378130000000 1.0
C      1  0.4946110000000  0.4098460000000  0.4446340000000 1.0
C      1  0.5654210000000  0.4949510000000  0.5679340000000 1.0
C      1  0.4328980000000  0.5035570000000  0.5652260000000 1.0
C      1  0.4608700000000  0.4119820000000  0.4409860000000 1.0
C      1  0.5393690000000  0.5940830000000  0.4264330000000 1.0
C      1  0.5697350000000  0.5370390000000  0.4368690000000 1.0
C      1  0.4190750000000  0.4779700000000  0.4483540000000 1.0
C      1  0.4953850000000  0.5598540000000  0.5782120000000 1.0
C      1  0.4998030000000  0.4296990000000  0.5789170000000 1.0
C      1  0.5410570000000  0.4747790000000  0.4204800000000 1.0
C      1  0.4729280000000  0.5123460000000  0.4205790000000 1.0
C      1  0.5746680000000  0.5681630000000  0.5281480000000 1.0
C      1  0.4147590000000  0.4288640000000  0.5372230000000 1.0
C      1  0.6007080000000  0.5011020000000  0.4938390000000 1.0
C      1  0.4072370000000  0.5074580000000  0.4901440000000 1.0
C      1  0.4904650000000  0.5311970000000  0.4328350000000 1.0
C      1  0.5193750000000  0.4643040000000  0.4354410000000 1.0
C      1  0.4167440000000  0.5267640000000  0.5235210000000 1.0
C      1  0.5871910000000  0.4781200000000  0.5233810000000 1.0
C      1  0.5111600000000  0.4997940000000  0.4124810000000 1.0
END
