TITL C-2622959-7779-116 -0.000775315689321983 125000 -136.379918560216 0 0 25 (C1) n - 1
REM
REM in /nfs/bkarasulu/CARBON/AIRSS/Generating-Clusters/AIREBO/with-SteepDescent/Higher-Symm/SD-CG/HFTN-CG
REM
REM
REM
REM
REM
REM ./C.cell (b20cbc046b6831c77cfcea5457e17084)
REM
REM compiler GCC version 9.2.1 20190827 (Red Hat 9.2.1-1)
REM options -cpp -mtune=generic -march=x86-64 -g -O0 -fpre-include=/usr/include/finclude/math-vector-fortran.h
REM seed 248707382 1399156445 1177760171 1210975084 -289075311 1924407209 -1994098644 519134400 -427849589 1636310528 14759907 1233408683 2105998358 77757107 1659934086 183453164 443917122 293450269 -1848742997 919334521 -576366050 1685599163 -589873923 1876740351 1744114078 1129591322 1554444037 1528227931 898120883 1647185140 1905181116 -1865740007 794580011
REM
CELL 1.54180   50.00000   50.00000   50.00000   90.00000   90.00000   90.00000
LATT -1
SFAC C  
C      1  0.4742140000000  0.4589270000000  0.4434420000000 1.0
C      1  0.4556410000000  0.4703150000000  0.4937700000000 1.0
C      1  0.5378560000000  0.5305340000000  0.5381930000000 1.0
C      1  0.5075960000000  0.4640490000000  0.5202440000000 1.0
C      1  0.5365160000000  0.4583860000000  0.4751600000000 1.0
C      1  0.4916000000000  0.4822720000000  0.4545930000000 1.0
C      1  0.5027330000000  0.5586020000000  0.5151750000000 1.0
C      1  0.5091150000000  0.5150690000000  0.5357080000000 1.0
C      1  0.5144930000000  0.5302270000000  0.5057440000000 1.0
C      1  0.4889670000000  0.4810650000000  0.5411440000000 1.0
C      1  0.4769850000000  0.5085310000000  0.5391060000000 1.0
C      1  0.4609810000000  0.5382410000000  0.5052140000000 1.0
C      1  0.4715050000000  0.5336270000000  0.4790690000000 1.0
C      1  0.5071190000000  0.5017170000000  0.4645740000000 1.0
C      1  0.5085240000000  0.4646220000000  0.4911590000000 1.0
C      1  0.5214010000000  0.4841570000000  0.5407100000000 1.0
C      1  0.4460800000000  0.4917390000000  0.5073000000000 1.0
C      1  0.4573060000000  0.5141980000000  0.5201950000000 1.0
C      1  0.5517310000000  0.4404550000000  0.4653990000000 1.0
C      1  0.4978260000000  0.5235460000000  0.4785380000000 1.0
C      1  0.5410790000000  0.5135730000000  0.4943710000000 1.0
C      1  0.5311980000000  0.4901670000000  0.4792040000000 1.0
C      1  0.5545780000000  0.5249770000000  0.5168530000000 1.0
C      1  0.4799020000000  0.4613720000000  0.4771800000000 1.0
C      1  0.4750540000000  0.5596320000000  0.5179560000000 1.0
END
