TITL C-2622964-2985-176 -921.989521683844 125000 -972.972554117001 0 0 181 (C1) n - 1
REM
REM in /nfs/bkarasulu/CARBON/AIRSS/Generating-Clusters/AIREBO/with-SteepDescent/Higher-Symm/SD-CG/HFTN-CG
REM
REM
REM
REM
REM
REM ./C.cell (b20cbc046b6831c77cfcea5457e17084)
REM
REM compiler GCC version 9.2.1 20190827 (Red Hat 9.2.1-1)
REM options -cpp -mtune=generic -march=x86-64 -g -O0 -fpre-include=/usr/include/finclude/math-vector-fortran.h
REM seed 316656477 -25757751 -667363133 -1549969250 -1600721027 -1233745415 1247560858 -1034681674 -1884567918 763068604 -1718108337 1032949868 822240551 717517298 -353012260 1722180114 -279872190 1741042607 980147887 -123570439 -1621445734 913498420 479005657 1121423177 -262696323 145121983 -713983448 633946968 -1922113616 -1283720062 1386737829 -1131193126 665451053
REM
CELL 1.54180   50.00000   50.00000   50.00000   90.00000   90.00000   90.00000
LATT -1
SFAC C  
C      1  0.5054450000000  0.5218510000000  0.5621030000000 1.0
C      1  0.4953850000000  0.5290550000000  0.4416180000000 1.0
C      1  0.4721910000000  0.5267320000000  0.5636190000000 1.0
C      1  0.4683900000000  0.5104120000000  0.4409370000000 1.0
C      1  0.4656560000000  0.4934350000000  0.5658150000000 1.0
C      1  0.4788630000000  0.4801390000000  0.4507480000000 1.0
C      1  0.4838900000000  0.4677950000000  0.5638840000000 1.0
C      1  0.5053880000000  0.4756150000000  0.4359150000000 1.0
C      1  0.5149750000000  0.4725950000000  0.5569940000000 1.0
C      1  0.5327700000000  0.4940650000000  0.4317330000000 1.0
C      1  0.5250900000000  0.5008960000000  0.5481440000000 1.0
C      1  0.5282300000000  0.5214740000000  0.4442940000000 1.0
C      1  0.4780360000000  0.5343460000000  0.5204310000000 1.0
C      1  0.4713870000000  0.5072410000000  0.4906960000000 1.0
C      1  0.4588740000000  0.5079630000000  0.5197650000000 1.0
C      1  0.4746620000000  0.4755920000000  0.4900770000000 1.0
C      1  0.4859280000000  0.4664350000000  0.5164730000000 1.0
C      1  0.5025470000000  0.4630160000000  0.4779620000000 1.0
C      1  0.5171040000000  0.4706410000000  0.5147660000000 1.0
C      1  0.5289540000000  0.4825720000000  0.4852020000000 1.0
C      1  0.5360890000000  0.5119940000000  0.5118110000000 1.0
C      1  0.5426380000000  0.5337540000000  0.4791700000000 1.0
C      1  0.5083990000000  0.5304730000000  0.5188180000000 1.0
C      1  0.4916580000000  0.5269980000000  0.4813840000000 1.0
C      1  0.4140150000000  0.5104770000000  0.5440170000000 1.0
C      1  0.4265160000000  0.4666550000000  0.4606800000000 1.0
C      1  0.4494840000000  0.4336840000000  0.5468230000000 1.0
C      1  0.4855470000000  0.4191500000000  0.4494970000000 1.0
C      1  0.5328390000000  0.4213640000000  0.5403030000000 1.0
C      1  0.5592770000000  0.4541000000000  0.4565160000000 1.0
C      1  0.5798010000000  0.4908330000000  0.5390510000000 1.0
C      1  0.5788920000000  0.5346280000000  0.4584260000000 1.0
C      1  0.5462130000000  0.5605980000000  0.5422090000000 1.0
C      1  0.5115450000000  0.5831250000000  0.4630660000000 1.0
C      1  0.4592640000000  0.5845340000000  0.5547210000000 1.0
C      1  0.4301560000000  0.5515530000000  0.4534250000000 1.0
C      1  0.4544340000000  0.4106900000000  0.4727200000000 1.0
C      1  0.5029500000000  0.3966540000000  0.5316010000000 1.0
C      1  0.5495940000000  0.4175320000000  0.4685140000000 1.0
C      1  0.5877600000000  0.4534610000000  0.5283210000000 1.0
C      1  0.6011730000000  0.5031840000000  0.4677550000000 1.0
C      1  0.5904430000000  0.5543420000000  0.5332610000000 1.0
C      1  0.5591250000000  0.5964010000000  0.4654130000000 1.0
C      1  0.4955320000000  0.5964120000000  0.5277130000000 1.0
C      1  0.4459060000000  0.5860190000000  0.4658620000000 1.0
C      1  0.4098880000000  0.5471830000000  0.5293620000000 1.0
C      1  0.4002590000000  0.4941730000000  0.4716790000000 1.0
C      1  0.4142890000000  0.4459580000000  0.5328660000000 1.0
C      1  0.5478660000000  0.5609780000000  0.4868450000000 1.0
C      1  0.5139550000000  0.5616990000000  0.5187650000000 1.0
C      1  0.4756220000000  0.5569840000000  0.4805160000000 1.0
C      1  0.4530580000000  0.5563020000000  0.5133530000000 1.0
C      1  0.4391130000000  0.5132090000000  0.4855000000000 1.0
C      1  0.4401600000000  0.4816570000000  0.5208970000000 1.0
C      1  0.4547500000000  0.4482830000000  0.4862210000000 1.0
C      1  0.4848020000000  0.4345380000000  0.5206640000000 1.0
C      1  0.5075410000000  0.4325270000000  0.4828130000000 1.0
C      1  0.5474120000000  0.4586760000000  0.5146880000000 1.0
C      1  0.5627630000000  0.4845360000000  0.4820700000000 1.0
C      1  0.5660850000000  0.5209580000000  0.5155190000000 1.0
C      1  0.4686200000000  0.5482270000000  0.4184590000000 1.0
C      1  0.4404150000000  0.5288850000000  0.5878010000000 1.0
C      1  0.4391480000000  0.4932610000000  0.4147450000000 1.0
C      1  0.4476870000000  0.4654130000000  0.5876820000000 1.0
C      1  0.4734340000000  0.4443240000000  0.4119150000000 1.0
C      1  0.5053780000000  0.4374650000000  0.5886600000000 1.0
C      1  0.5353700000000  0.4470490000000  0.4087440000000 1.0
C      1  0.5549040000000  0.4736220000000  0.5839030000000 1.0
C      1  0.5651580000000  0.5041780000000  0.4106410000000 1.0
C      1  0.5510830000000  0.5337280000000  0.5893160000000 1.0
C      1  0.5305790000000  0.5562180000000  0.4151070000000 1.0
C      1  0.4951540000000  0.5628800000000  0.5856040000000 1.0
C      1  0.4570540000000  0.4411590000000  0.5785550000000 1.0
C      1  0.4926220000000  0.4252290000000  0.4202160000000 1.0
C      1  0.5335010000000  0.4311500000000  0.5865700000000 1.0
C      1  0.5632870000000  0.4557070000000  0.4103420000000 1.0
C      1  0.5756690000000  0.4929580000000  0.5848800000000 1.0
C      1  0.5715950000000  0.5325420000000  0.4141820000000 1.0
C      1  0.5432460000000  0.5620680000000  0.5877040000000 1.0
C      1  0.5086340000000  0.5747160000000  0.4146360000000 1.0
C      1  0.4683080000000  0.5706990000000  0.5833710000000 1.0
C      1  0.4424150000000  0.5411920000000  0.4234470000000 1.0
C      1  0.4208660000000  0.5066780000000  0.5905710000000 1.0
C      1  0.4308620000000  0.4658170000000  0.4150160000000 1.0
C      1  0.5490740000000  0.4880680000000  0.5306000000000 1.0
C      1  0.5551270000000  0.5106240000000  0.4620850000000 1.0
C      1  0.5298610000000  0.5348470000000  0.5436950000000 1.0
C      1  0.5095520000000  0.5491840000000  0.4628240000000 1.0
C      1  0.4730620000000  0.5542970000000  0.5475130000000 1.0
C      1  0.4604080000000  0.5370330000000  0.4589020000000 1.0
C      1  0.4460190000000  0.5112800000000  0.5469550000000 1.0
C      1  0.4489320000000  0.4880450000000  0.4648510000000 1.0
C      1  0.4628310000000  0.4639890000000  0.5391020000000 1.0
C      1  0.4774470000000  0.4478730000000  0.4614200000000 1.0
C      1  0.5124250000000  0.4456640000000  0.5373590000000 1.0
C      1  0.5334750000000  0.4704650000000  0.4537930000000 1.0
C      1  0.5746430000000  0.4801940000000  0.4225920000000 1.0
C      1  0.5734800000000  0.5203040000000  0.5753070000000 1.0
C      1  0.5567820000000  0.5554420000000  0.4263340000000 1.0
C      1  0.5192440000000  0.5741010000000  0.5753400000000 1.0
C      1  0.4825650000000  0.5709230000000  0.4268180000000 1.0
C      1  0.4420590000000  0.5542290000000  0.5739710000000 1.0
C      1  0.4288850000000  0.5146330000000  0.4296960000000 1.0
C      1  0.4256270000000  0.4801330000000  0.5775490000000 1.0
C      1  0.4474240000000  0.4443910000000  0.4258360000000 1.0
C      1  0.4835100000000  0.4257070000000  0.5756750000000 1.0
C      1  0.5226090000000  0.4263560000000  0.4228710000000 1.0
C      1  0.5534200000000  0.4476020000000  0.5728170000000 1.0
C      1  0.5231920000000  0.5837770000000  0.5429250000000 1.0
C      1  0.4785830000000  0.5817990000000  0.4574580000000 1.0
C      1  0.4352910000000  0.5645980000000  0.5411510000000 1.0
C      1  0.4168170000000  0.5212350000000  0.4611160000000 1.0
C      1  0.4163720000000  0.4777020000000  0.5448770000000 1.0
C      1  0.4390720000000  0.4372780000000  0.4581120000000 1.0
C      1  0.4760020000000  0.4124780000000  0.5449980000000 1.0
C      1  0.5188270000000  0.4156520000000  0.4555240000000 1.0
C      1  0.5591240000000  0.4395330000000  0.5402420000000 1.0
C      1  0.5827790000000  0.4773380000000  0.4555200000000 1.0
C      1  0.5854290000000  0.5222970000000  0.5434600000000 1.0
C      1  0.5658320000000  0.5638760000000  0.4581040000000 1.0
C      1  0.4186750000000  0.4255220000000  0.4841870000000 1.0
C      1  0.4652760000000  0.3929000000000  0.5187010000000 1.0
C      1  0.5213180000000  0.3913610000000  0.4807780000000 1.0
C      1  0.5717900000000  0.4191090000000  0.5147040000000 1.0
C      1  0.6045190000000  0.4653680000000  0.4799920000000 1.0
C      1  0.6094320000000  0.5217810000000  0.5174360000000 1.0
C      1  0.5870240000000  0.5749170000000  0.4841610000000 1.0
C      1  0.5351970000000  0.6021330000000  0.5155920000000 1.0
C      1  0.4788710000000  0.6066770000000  0.4817630000000 1.0
C      1  0.4256520000000  0.5853720000000  0.5148390000000 1.0
C      1  0.3958460000000  0.5332670000000  0.4850380000000 1.0
C      1  0.3928600000000  0.4762590000000  0.5189960000000 1.0
C      1  0.3937600000000  0.5036720000000  0.5026350000000 1.0
C      1  0.4055780000000  0.4500900000000  0.5013720000000 1.0
C      1  0.4409590000000  0.4069430000000  0.5019520000000 1.0
C      1  0.4934850000000  0.3887110000000  0.5001540000000 1.0
C      1  0.5472830000000  0.4049340000000  0.4980720000000 1.0
C      1  0.5890940000000  0.4424500000000  0.4970190000000 1.0
C      1  0.6092320000000  0.4934810000000  0.4985620000000 1.0
C      1  0.5979950000000  0.5492280000000  0.5009130000000 1.0
C      1  0.5641320000000  0.5952140000000  0.4990280000000 1.0
C      1  0.5065310000000  0.6031770000000  0.4973100000000 1.0
C      1  0.4514990000000  0.5944560000000  0.4978380000000 1.0
C      1  0.4066560000000  0.5614080000000  0.4999320000000 1.0
C      1  0.4717550000000  0.4844590000000  0.5980370000000 1.0
C      1  0.4841160000000  0.4692740000000  0.4027660000000 1.0
C      1  0.5004220000000  0.4684710000000  0.5937360000000 1.0
C      1  0.5162250000000  0.4711260000000  0.4039970000000 1.0
C      1  0.5268490000000  0.4868220000000  0.5855140000000 1.0
C      1  0.5348320000000  0.4991170000000  0.3982880000000 1.0
C      1  0.5280900000000  0.5167030000000  0.5944230000000 1.0
C      1  0.5205200000000  0.5260410000000  0.4111920000000 1.0
C      1  0.4991390000000  0.5327050000000  0.5924280000000 1.0
C      1  0.4874650000000  0.5243950000000  0.4088770000000 1.0
C      1  0.4699610000000  0.5183690000000  0.5966170000000 1.0
C      1  0.4705040000000  0.4954330000000  0.4104560000000 1.0
C      1  0.4174920000000  0.4245030000000  0.5550630000000 1.0
C      1  0.4652510000000  0.3928600000000  0.4507190000000 1.0
C      1  0.5258710000000  0.3936590000000  0.5529300000000 1.0
C      1  0.5698300000000  0.4256980000000  0.4462390000000 1.0
C      1  0.6007160000000  0.4704470000000  0.5513620000000 1.0
C      1  0.6061380000000  0.5252980000000  0.4457410000000 1.0
C      1  0.5735310000000  0.5712260000000  0.5528310000000 1.0
C      1  0.5338120000000  0.6033510000000  0.4557080000000 1.0
C      1  0.4764830000000  0.6075940000000  0.5457220000000 1.0
C      1  0.4255440000000  0.5834450000000  0.4425570000000 1.0
C      1  0.3936420000000  0.5326420000000  0.5516700000000 1.0
C      1  0.3972880000000  0.4731340000000  0.4488920000000 1.0
C      1  0.5211710000000  0.5734860000000  0.4918770000000 1.0
C      1  0.4785700000000  0.5767780000000  0.5080300000000 1.0
C      1  0.4357030000000  0.5599560000000  0.4859060000000 1.0
C      1  0.4214880000000  0.5200320000000  0.5122530000000 1.0
C      1  0.4220650000000  0.4774040000000  0.4924070000000 1.0
C      1  0.4414310000000  0.4378470000000  0.5140510000000 1.0
C      1  0.4803070000000  0.4181960000000  0.4921440000000 1.0
C      1  0.5193570000000  0.4177770000000  0.5098050000000 1.0
C      1  0.5576550000000  0.4446580000000  0.4878230000000 1.0
C      1  0.5805420000000  0.4799720000000  0.5077290000000 1.0
C      1  0.5823280000000  0.5225010000000  0.4887780000000 1.0
C      1  0.5639400000000  0.5650270000000  0.5146820000000 1.0
C      1  0.5189580000000  0.5138370000000  0.4841950000000 1.0
END
