TITL C-2622953-3516-254 0.00103366334907765 125000 -214.903546045363 0 0 39 (C1) n - 1
REM
REM in /nfs/bkarasulu/CARBON/AIRSS/Generating-Clusters/AIREBO/with-SteepDescent/Higher-Symm/SD-CG/HFTN-CG
REM
REM
REM
REM
REM
REM ./C.cell (b20cbc046b6831c77cfcea5457e17084)
REM
REM compiler GCC version 9.2.1 20190827 (Red Hat 9.2.1-1)
REM options -cpp -mtune=generic -march=x86-64 -g -O0 -fpre-include=/usr/include/finclude/math-vector-fortran.h
REM seed 24517671 -2037325788 1147198860 319549636 503102537 1272474529 -1590346957 -2043174399 494891211 1267898803 -911335286 634489952 637615713 398619581 721004640 -658305531 284791429 776423953 -568530072 475288929 651684819 -277617009 721932440 -161015267 -951832343 2053897052 1582770621 933199715 -1962392049 -1776223239 -623931241 2014820152 15343217
REM
CELL 1.54180   50.00000   50.00000   50.00000   90.00000   90.00000   90.00000
LATT -1
SFAC C  
C      1  0.5282960000000  0.4811130000000  0.4643570000000 1.0
C      1  0.5016070000000  0.4913940000000  0.5711570000000 1.0
C      1  0.5468010000000  0.4648480000000  0.5093680000000 1.0
C      1  0.5659350000000  0.4901880000000  0.4999460000000 1.0
C      1  0.4805050000000  0.4728780000000  0.5671950000000 1.0
C      1  0.5277060000000  0.5257270000000  0.5322420000000 1.0
C      1  0.4811350000000  0.5419250000000  0.5069160000000 1.0
C      1  0.5208550000000  0.5170970000000  0.5595710000000 1.0
C      1  0.5441330000000  0.5349390000000  0.5047070000000 1.0
C      1  0.5075220000000  0.5467460000000  0.5146410000000 1.0
C      1  0.5000630000000  0.4365400000000  0.5160970000000 1.0
C      1  0.4707530000000  0.4892000000000  0.4484420000000 1.0
C      1  0.4632630000000  0.5331900000000  0.5251470000000 1.0
C      1  0.4527880000000  0.4876220000000  0.5558630000000 1.0
C      1  0.4906630000000  0.5212380000000  0.5661870000000 1.0
C      1  0.4729800000000  0.4845600000000  0.4978250000000 1.0
C      1  0.4556050000000  0.4579310000000  0.5073530000000 1.0
C      1  0.5296290000000  0.5466950000000  0.4222680000000 1.0
C      1  0.4920190000000  0.4869130000000  0.4308070000000 1.0
C      1  0.5593690000000  0.5182970000000  0.4882680000000 1.0
C      1  0.5274800000000  0.5307040000000  0.4451880000000 1.0
C      1  0.5287780000000  0.4497630000000  0.5226310000000 1.0
C      1  0.5559520000000  0.5249940000000  0.4607100000000 1.0
C      1  0.5165960000000  0.5049150000000  0.5106660000000 1.0
C      1  0.4911330000000  0.4924960000000  0.5208100000000 1.0
C      1  0.5089730000000  0.5420130000000  0.4673500000000 1.0
C      1  0.4345070000000  0.5052960000000  0.4878310000000 1.0
C      1  0.5333340000000  0.4882160000000  0.4918830000000 1.0
C      1  0.4788530000000  0.5317360000000  0.4767790000000 1.0
C      1  0.4731480000000  0.5096970000000  0.5423940000000 1.0
C      1  0.4757250000000  0.4327590000000  0.5047330000000 1.0
C      1  0.4453820000000  0.5269820000000  0.4749180000000 1.0
C      1  0.5012870000000  0.4646280000000  0.5342220000000 1.0
C      1  0.4335650000000  0.4790640000000  0.4948600000000 1.0
C      1  0.5199630000000  0.5025870000000  0.4407890000000 1.0
C      1  0.4675330000000  0.4645810000000  0.5366730000000 1.0
C      1  0.5235920000000  0.5522650000000  0.4898140000000 1.0
C      1  0.5186130000000  0.4690080000000  0.4349650000000 1.0
C      1  0.4739580000000  0.4992540000000  0.4744290000000 1.0
END
