TITL C-2622968-4806-56 -0.000536306215414795 125000 -930.303690697182 0 0 168 (C1) n - 1
REM
REM in /nfs/bkarasulu/CARBON/AIRSS/Generating-Clusters/AIREBO/with-SteepDescent/Higher-Symm/SD-CG/HFTN-CG
REM
REM
REM
REM
REM
REM ./C.cell (b20cbc046b6831c77cfcea5457e17084)
REM
REM compiler GCC version 9.2.1 20190827 (Red Hat 9.2.1-1)
REM options -cpp -mtune=generic -march=x86-64 -g -O0 -fpre-include=/usr/include/finclude/math-vector-fortran.h
REM seed -1223895293 -353687229 1959416741 -1159047342 1353449279 2049459916 1204403739 -124401124 -556720288 1149550322 -753446106 -1808916262 610778450 2069879649 -1821000942 1896452111 173056634 1263720044 -1284489935 177306887 -1369720975 469046847 -550011291 598466466 -556386754 514265265 540572882 725273040 1725507837 1390862744 -302058242 -1488856099 -1527650756
REM
CELL 1.54180   50.00000   50.00000   50.00000   90.00000   90.00000   90.00000
LATT -1
SFAC C  
C      1  0.4483690000000  0.5400430000000  0.5649540000000 1.0
C      1  0.5545880000000  0.4574380000000  0.5576150000000 1.0
C      1  0.5557280000000  0.5406090000000  0.5568740000000 1.0
C      1  0.4421760000000  0.4561120000000  0.5607860000000 1.0
C      1  0.4575790000000  0.5116970000000  0.5914330000000 1.0
C      1  0.5599490000000  0.4846090000000  0.5866720000000 1.0
C      1  0.5496460000000  0.5161950000000  0.5873610000000 1.0
C      1  0.4459800000000  0.4820150000000  0.5904170000000 1.0
C      1  0.4845010000000  0.4017780000000  0.5250240000000 1.0
C      1  0.5170810000000  0.6024880000000  0.5278180000000 1.0
C      1  0.5185990000000  0.4078570000000  0.5276790000000 1.0
C      1  0.4880270000000  0.6001920000000  0.5418730000000 1.0
C      1  0.4056640000000  0.5192230000000  0.5044400000000 1.0
C      1  0.5880190000000  0.4860450000000  0.5112610000000 1.0
C      1  0.5949000000000  0.5165860000000  0.5129340000000 1.0
C      1  0.4168140000000  0.4871140000000  0.5057100000000 1.0
C      1  0.5611840000000  0.4698200000000  0.4387090000000 1.0
C      1  0.4354880000000  0.5248730000000  0.4347170000000 1.0
C      1  0.4369130000000  0.4707020000000  0.4380110000000 1.0
C      1  0.5656790000000  0.5254340000000  0.4394610000000 1.0
C      1  0.5585890000000  0.4837090000000  0.4956440000000 1.0
C      1  0.4413910000000  0.5156740000000  0.4872490000000 1.0
C      1  0.4490040000000  0.4828350000000  0.4824100000000 1.0
C      1  0.5538510000000  0.5157120000000  0.4852840000000 1.0
C      1  0.5196830000000  0.4222350000000  0.3958910000000 1.0
C      1  0.4758900000000  0.5766520000000  0.4034410000000 1.0
C      1  0.4885880000000  0.4280690000000  0.4072350000000 1.0
C      1  0.5062750000000  0.5780250000000  0.4156390000000 1.0
C      1  0.4391740000000  0.5918780000000  0.5069660000000 1.0
C      1  0.5621700000000  0.4013530000000  0.5067890000000 1.0
C      1  0.5651340000000  0.5950800000000  0.5036480000000 1.0
C      1  0.4301170000000  0.3986660000000  0.5130920000000 1.0
C      1  0.5288560000000  0.4466050000000  0.4408030000000 1.0
C      1  0.4704400000000  0.5429630000000  0.4412450000000 1.0
C      1  0.4726330000000  0.4488220000000  0.4391450000000 1.0
C      1  0.5294770000000  0.5420230000000  0.4425850000000 1.0
C      1  0.4808980000000  0.4906000000000  0.4003420000000 1.0
C      1  0.5271910000000  0.5187510000000  0.4038850000000 1.0
C      1  0.5146340000000  0.4870420000000  0.4035930000000 1.0
C      1  0.4730970000000  0.5226480000000  0.3978070000000 1.0
C      1  0.4900350000000  0.4611920000000  0.6013310000000 1.0
C      1  0.4893700000000  0.5460010000000  0.6226100000000 1.0
C      1  0.5140030000000  0.4670580000000  0.6068740000000 1.0
C      1  0.4873140000000  0.5375760000000  0.5982050000000 1.0
C      1  0.4498650000000  0.4813960000000  0.4110180000000 1.0
C      1  0.5567690000000  0.5148150000000  0.4113810000000 1.0
C      1  0.5476780000000  0.4857180000000  0.4120030000000 1.0
C      1  0.4477800000000  0.5112160000000  0.4088710000000 1.0
C      1  0.3948330000000  0.4902810000000  0.5294660000000 1.0
C      1  0.6238460000000  0.5117390000000  0.5488200000000 1.0
C      1  0.6241180000000  0.4864950000000  0.5450870000000 1.0
C      1  0.3938020000000  0.5185960000000  0.5363010000000 1.0
C      1  0.5941290000000  0.5553420000000  0.5036120000000 1.0
C      1  0.4100780000000  0.4489940000000  0.4966290000000 1.0
C      1  0.4134250000000  0.5594380000000  0.5117900000000 1.0
C      1  0.5982260000000  0.4360520000000  0.5031740000000 1.0
C      1  0.5595880000000  0.5727850000000  0.4825420000000 1.0
C      1  0.4391260000000  0.4218960000000  0.4925070000000 1.0
C      1  0.4433440000000  0.5743600000000  0.4835660000000 1.0
C      1  0.5552660000000  0.4197300000000  0.4846330000000 1.0
C      1  0.5305560000000  0.4798650000000  0.4472230000000 1.0
C      1  0.4636580000000  0.5119410000000  0.4468380000000 1.0
C      1  0.4672650000000  0.4827810000000  0.4469190000000 1.0
C      1  0.5359190000000  0.5110010000000  0.4466960000000 1.0
C      1  0.4784920000000  0.5852570000000  0.5668790000000 1.0
C      1  0.5183020000000  0.4166320000000  0.5600920000000 1.0
C      1  0.5216720000000  0.5802310000000  0.5531350000000 1.0
C      1  0.4851610000000  0.4205110000000  0.5534090000000 1.0
C      1  0.5143250000000  0.4470030000000  0.5466380000000 1.0
C      1  0.4790290000000  0.5519450000000  0.5736720000000 1.0
C      1  0.4823370000000  0.4534530000000  0.5545030000000 1.0
C      1  0.5013020000000  0.5568990000000  0.5503840000000 1.0
C      1  0.5789250000000  0.4382080000000  0.4769160000000 1.0
C      1  0.4276140000000  0.5469950000000  0.4850110000000 1.0
C      1  0.4368250000000  0.4516730000000  0.4762330000000 1.0
C      1  0.5688290000000  0.5429580000000  0.4752390000000 1.0
C      1  0.4044220000000  0.4745470000000  0.4767850000000 1.0
C      1  0.5987090000000  0.5296860000000  0.4817680000000 1.0
C      1  0.5858180000000  0.4683090000000  0.4831270000000 1.0
C      1  0.4051820000000  0.5263990000000  0.4729350000000 1.0
C      1  0.5153650000000  0.5459040000000  0.4155750000000 1.0
C      1  0.4857000000000  0.4603350000000  0.4097210000000 1.0
C      1  0.4832180000000  0.5458070000000  0.4135210000000 1.0
C      1  0.5188680000000  0.4537570000000  0.4090970000000 1.0
C      1  0.5776730000000  0.4805900000000  0.5598110000000 1.0
C      1  0.4288130000000  0.5134990000000  0.5733390000000 1.0
C      1  0.4203160000000  0.4800980000000  0.5709680000000 1.0
C      1  0.5754440000000  0.5141950000000  0.5652850000000 1.0
C      1  0.5972290000000  0.4724280000000  0.5370810000000 1.0
C      1  0.4108730000000  0.5325400000000  0.5532180000000 1.0
C      1  0.4091320000000  0.4689720000000  0.5424950000000 1.0
C      1  0.5961880000000  0.5275920000000  0.5450820000000 1.0
C      1  0.4362030000000  0.5259850000000  0.5177760000000 1.0
C      1  0.5351280000000  0.4743430000000  0.5126890000000 1.0
C      1  0.5634230000000  0.5184900000000  0.5145180000000 1.0
C      1  0.4478660000000  0.4765670000000  0.5148220000000 1.0
C      1  0.4508650000000  0.5557750000000  0.5251490000000 1.0
C      1  0.5671720000000  0.4331880000000  0.5406200000000 1.0
C      1  0.5489710000000  0.5597420000000  0.5296870000000 1.0
C      1  0.4504360000000  0.4438320000000  0.5236460000000 1.0
C      1  0.5108090000000  0.4876760000000  0.4697410000000 1.0
C      1  0.4696530000000  0.5241710000000  0.4765310000000 1.0
C      1  0.4810820000000  0.4776400000000  0.4775590000000 1.0
C      1  0.5228190000000  0.5186440000000  0.4774300000000 1.0
C      1  0.5481170000000  0.5906300000000  0.5252030000000 1.0
C      1  0.4537450000000  0.4124640000000  0.5305180000000 1.0
C      1  0.4582110000000  0.5880570000000  0.5328980000000 1.0
C      1  0.5523220000000  0.4108200000000  0.5313560000000 1.0
C      1  0.5155070000000  0.5267110000000  0.5437950000000 1.0
C      1  0.4834460000000  0.4921580000000  0.5457250000000 1.0
C      1  0.4829740000000  0.5228060000000  0.5347120000000 1.0
C      1  0.5128910000000  0.4790100000000  0.5566570000000 1.0
C      1  0.4474000000000  0.5868630000000  0.4533450000000 1.0
C      1  0.5412350000000  0.4102930000000  0.4518670000000 1.0
C      1  0.5478020000000  0.5864340000000  0.4560400000000 1.0
C      1  0.4493890000000  0.4159750000000  0.4638120000000 1.0
C      1  0.5224280000000  0.5978110000000  0.4607760000000 1.0
C      1  0.4744580000000  0.4048770000000  0.4618820000000 1.0
C      1  0.4711530000000  0.6110770000000  0.4587230000000 1.0
C      1  0.5329540000000  0.3893320000000  0.4715560000000 1.0
C      1  0.4501190000000  0.4853920000000  0.5454000000000 1.0
C      1  0.5464430000000  0.5137870000000  0.5381390000000 1.0
C      1  0.5406050000000  0.4830600000000  0.5413030000000 1.0
C      1  0.4532060000000  0.5180690000000  0.5421810000000 1.0
C      1  0.5169570000000  0.4479420000000  0.5141080000000 1.0
C      1  0.4827830000000  0.5618780000000  0.5152810000000 1.0
C      1  0.4837060000000  0.4450920000000  0.5215550000000 1.0
C      1  0.5163630000000  0.5587030000000  0.5199450000000 1.0
C      1  0.5809790000000  0.4845970000000  0.4574240000000 1.0
C      1  0.4117740000000  0.5126260000000  0.4493650000000 1.0
C      1  0.4111390000000  0.4842170000000  0.4508320000000 1.0
C      1  0.5850280000000  0.5110340000000  0.4577000000000 1.0
C      1  0.4482150000000  0.5728210000000  0.5616070000000 1.0
C      1  0.5416330000000  0.4313750000000  0.5713290000000 1.0
C      1  0.5438720000000  0.5706200000000  0.5676010000000 1.0
C      1  0.4526300000000  0.4279960000000  0.5602830000000 1.0
C      1  0.5193020000000  0.4160460000000  0.4293430000000 1.0
C      1  0.4726940000000  0.5924480000000  0.4313180000000 1.0
C      1  0.4872980000000  0.4181470000000  0.4382810000000 1.0
C      1  0.5052850000000  0.5971630000000  0.4398080000000 1.0
C      1  0.4414710000000  0.5577410000000  0.4405390000000 1.0
C      1  0.5611480000000  0.4377560000000  0.4494280000000 1.0
C      1  0.5576820000000  0.5568390000000  0.4461620000000 1.0
C      1  0.4403350000000  0.4396630000000  0.4445400000000 1.0
C      1  0.5908210000000  0.4430710000000  0.5284940000000 1.0
C      1  0.4203140000000  0.5549980000000  0.5399990000000 1.0
C      1  0.4189590000000  0.4505590000000  0.5239220000000 1.0
C      1  0.5817940000000  0.5510420000000  0.5284160000000 1.0
C      1  0.5281570000000  0.4831370000000  0.5854820000000 1.0
C      1  0.4902560000000  0.5077550000000  0.5881740000000 1.0
C      1  0.4764000000000  0.4789040000000  0.5762700000000 1.0
C      1  0.5184200000000  0.5140220000000  0.5751800000000 1.0
C      1  0.5178580000000  0.3995890000000  0.4947460000000 1.0
C      1  0.4871840000000  0.5991150000000  0.4806650000000 1.0
C      1  0.4867590000000  0.3985300000000  0.4912520000000 1.0
C      1  0.5155380000000  0.5982320000000  0.4941170000000 1.0
C      1  0.5106010000000  0.4893860000000  0.5018070000000 1.0
C      1  0.4856100000000  0.5320660000000  0.5029420000000 1.0
C      1  0.4810880000000  0.4835370000000  0.5127020000000 1.0
C      1  0.5142710000000  0.5195140000000  0.5103270000000 1.0
C      1  0.4839200000000  0.4468560000000  0.4711630000000 1.0
C      1  0.5143430000000  0.5487640000000  0.4693120000000 1.0
C      1  0.5129780000000  0.4409660000000  0.4674620000000 1.0
C      1  0.4852760000000  0.5511580000000  0.4678550000000 1.0
C      1  0.5272980000000  0.5678710000000  0.4891880000000 1.0
C      1  0.4724300000000  0.4288690000000  0.4938530000000 1.0
C      1  0.4749510000000  0.5721680000000  0.4861930000000 1.0
C      1  0.5259140000000  0.4306510000000  0.4915220000000 1.0
END
