TITL C-2622959-7779-414 1.50089014657358e-07 125000 -19.0187538188895 0 0 4 (D(inf)h) n - 1
REM
REM in /nfs/bkarasulu/CARBON/AIRSS/Generating-Clusters/AIREBO/with-SteepDescent/Higher-Symm/SD-CG/HFTN-CG
REM
REM
REM
REM
REM
REM ./C.cell (b20cbc046b6831c77cfcea5457e17084)
REM
REM compiler GCC version 9.2.1 20190827 (Red Hat 9.2.1-1)
REM options -cpp -mtune=generic -march=x86-64 -g -O0 -fpre-include=/usr/include/finclude/math-vector-fortran.h
REM seed -1541385462 -1131874198 -1779754245 -1646007220 -1881201040 1889575462 2026887696 -1369958003 -2011673615 -1113611644 69896653 -2011827358 629304050 -114457411 -1722779914 47313482 -1248290071 1306967370 139109505 -1579597871 -339203909 -1633805368 259562965 -64122585 -1381947004 -1972082898 1874462463 1741758874 1169956037 1928518645 1901408818 -1811575201 844415436
REM
CELL 1.54180   50.00000   50.00000   50.00000   90.00000   90.00000   90.00000
LATT -1
SFAC C  
C      1  0.5002690000000  0.5002790000000  0.5133150000000 1.0
C      1  0.5002690000000  0.5002790000000  0.4866850000000 1.0
C      1  0.5002690000000  0.5002790000000  0.4604770000000 1.0
C      1  0.5002690000000  0.5002790000000  0.5395230000000 1.0
END
