TITL C-2622965-4321-707 -0.00902298351233297 125000 -543.386001843486 0 0 99 (C1) n - 1
REM
REM in /nfs/bkarasulu/CARBON/AIRSS/Generating-Clusters/AIREBO/with-SteepDescent/Higher-Symm/SD-CG/HFTN-CG
REM
REM
REM
REM
REM
REM ./C.cell (b20cbc046b6831c77cfcea5457e17084)
REM
REM compiler GCC version 9.2.1 20190827 (Red Hat 9.2.1-1)
REM options -cpp -mtune=generic -march=x86-64 -g -O0 -fpre-include=/usr/include/finclude/math-vector-fortran.h
REM seed -1376682311 -1486410327 1830907047 156509034 -1461664563 2022689913 -1494712079 573573768 -1683767242 1676583909 -218745514 1494278091 1497862049 -1434780575 -1859826848 1696498654 751121161 1903062129 -2058805393 -1020628665 -1997036251 -2000288829 -1406125456 -1874284433 -1526070236 369510281 -1406142075 1442996661 696915729 1057087063 1771016891 1954186571 -368613276
REM
CELL 1.54180   50.00000   50.00000   50.00000   90.00000   90.00000   90.00000
LATT -1
SFAC C  
C      1  0.4924560000000  0.5480320000000  0.4339520000000 1.0
C      1  0.5442040000000  0.4798430000000  0.4376990000000 1.0
C      1  0.4644220000000  0.4664620000000  0.4316360000000 1.0
C      1  0.5112820000000  0.4765730000000  0.4596580000000 1.0
C      1  0.4756420000000  0.5005750000000  0.4490530000000 1.0
C      1  0.5151200000000  0.5225910000000  0.4609430000000 1.0
C      1  0.4565990000000  0.4585890000000  0.5510490000000 1.0
C      1  0.4849860000000  0.5562110000000  0.5552570000000 1.0
C      1  0.5585460000000  0.4830880000000  0.5514800000000 1.0
C      1  0.4350910000000  0.4749050000000  0.5529550000000 1.0
C      1  0.5096730000000  0.5680140000000  0.5546730000000 1.0
C      1  0.5554440000000  0.4562130000000  0.5532420000000 1.0
C      1  0.4382090000000  0.4588230000000  0.4880410000000 1.0
C      1  0.4829500000000  0.5855300000000  0.5028210000000 1.0
C      1  0.5745880000000  0.4677360000000  0.4964780000000 1.0
C      1  0.4834770000000  0.5295730000000  0.5635200000000 1.0
C      1  0.5375290000000  0.4995130000000  0.5604740000000 1.0
C      1  0.4813980000000  0.4671220000000  0.5611070000000 1.0
C      1  0.5195640000000  0.4924200000000  0.5255980000000 1.0
C      1  0.4854830000000  0.4882610000000  0.5235020000000 1.0
C      1  0.4936340000000  0.5273250000000  0.5235940000000 1.0
C      1  0.4360810000000  0.5639450000000  0.5442390000000 1.0
C      1  0.5833790000000  0.5229590000000  0.5405830000000 1.0
C      1  0.4764350000000  0.4172950000000  0.5416550000000 1.0
C      1  0.5561040000000  0.4367220000000  0.4669810000000 1.0
C      1  0.4125500000000  0.4936100000000  0.4689700000000 1.0
C      1  0.5199880000000  0.5772960000000  0.4756320000000 1.0
C      1  0.5155640000000  0.4865050000000  0.4865670000000 1.0
C      1  0.4707910000000  0.4867540000000  0.4719970000000 1.0
C      1  0.5062650000000  0.5187950000000  0.4931950000000 1.0
C      1  0.5083570000000  0.4590670000000  0.5053240000000 1.0
C      1  0.4607220000000  0.5037580000000  0.4915920000000 1.0
C      1  0.5364570000000  0.5281840000000  0.5057060000000 1.0
C      1  0.5287620000000  0.4724030000000  0.3871650000000 1.0
C      1  0.4441860000000  0.4809460000000  0.3904560000000 1.0
C      1  0.5328870000000  0.5146890000000  0.4167660000000 1.0
C      1  0.4827090000000  0.4594950000000  0.4830050000000 1.0
C      1  0.4739100000000  0.5285410000000  0.4894210000000 1.0
C      1  0.5426040000000  0.5052050000000  0.4842110000000 1.0
C      1  0.4381680000000  0.5104480000000  0.5774620000000 1.0
C      1  0.5416010000000  0.5511570000000  0.5736370000000 1.0
C      1  0.5250570000000  0.4373460000000  0.5771820000000 1.0
C      1  0.4366090000000  0.4960460000000  0.5117980000000 1.0
C      1  0.5265940000000  0.5680830000000  0.5108090000000 1.0
C      1  0.5393830000000  0.4460030000000  0.5123130000000 1.0
C      1  0.4563030000000  0.4994800000000  0.5911890000000 1.0
C      1  0.5257210000000  0.5393610000000  0.5891130000000 1.0
C      1  0.5254330000000  0.4587270000000  0.5906150000000 1.0
C      1  0.5285120000000  0.5210340000000  0.5378320000000 1.0
C      1  0.5047810000000  0.4647330000000  0.5386720000000 1.0
C      1  0.4716580000000  0.5111840000000  0.5416810000000 1.0
C      1  0.5161030000000  0.4106140000000  0.4845240000000 1.0
C      1  0.4194760000000  0.5349020000000  0.4892340000000 1.0
C      1  0.5702300000000  0.5602980000000  0.4849030000000 1.0
C      1  0.4770290000000  0.4252280000000  0.4638560000000 1.0
C      1  0.4486660000000  0.5493830000000  0.4564070000000 1.0
C      1  0.5746070000000  0.5177400000000  0.4644890000000 1.0
C      1  0.4971160000000  0.5949600000000  0.4837060000000 1.0
C      1  0.5789520000000  0.4493170000000  0.4776540000000 1.0
C      1  0.4174030000000  0.4661680000000  0.4732680000000 1.0
C      1  0.5403720000000  0.4266440000000  0.4877170000000 1.0
C      1  0.4148920000000  0.5076630000000  0.4939090000000 1.0
C      1  0.5482370000000  0.5791660000000  0.4889360000000 1.0
C      1  0.4255760000000  0.5368610000000  0.5368860000000 1.0
C      1  0.5696630000000  0.5459000000000  0.5352760000000 1.0
C      1  0.5028330000000  0.4177350000000  0.5350290000000 1.0
C      1  0.5145970000000  0.4449380000000  0.4311140000000 1.0
C      1  0.4423470000000  0.5096650000000  0.4292120000000 1.0
C      1  0.5414450000000  0.5449720000000  0.4408210000000 1.0
C      1  0.4604130000000  0.5533260000000  0.4815800000000 1.0
C      1  0.5735920000000  0.4992520000000  0.4919360000000 1.0
C      1  0.4614340000000  0.4362570000000  0.4919900000000 1.0
C      1  0.4876640000000  0.4542410000000  0.4496640000000 1.0
C      1  0.4672370000000  0.5313120000000  0.4375080000000 1.0
C      1  0.5450450000000  0.5120730000000  0.4486700000000 1.0
C      1  0.5290140000000  0.4672570000000  0.4132050000000 1.0
C      1  0.4502880000000  0.4854600000000  0.4163630000000 1.0
C      1  0.5175270000000  0.5413540000000  0.4169260000000 1.0
C      1  0.4430010000000  0.5460390000000  0.5092620000000 1.0
C      1  0.5599090000000  0.5462640000000  0.5082440000000 1.0
C      1  0.5056570000000  0.4252380000000  0.5075000000000 1.0
C      1  0.4957090000000  0.4055200000000  0.4660080000000 1.0
C      1  0.4229290000000  0.5385950000000  0.4607680000000 1.0
C      1  0.5834030000000  0.5434980000000  0.4667790000000 1.0
C      1  0.4586580000000  0.4701860000000  0.5129120000000 1.0
C      1  0.4963460000000  0.5593630000000  0.5173030000000 1.0
C      1  0.5472430000000  0.4785560000000  0.5135590000000 1.0
C      1  0.4650640000000  0.5621390000000  0.5296630000000 1.0
C      1  0.5738170000000  0.4960040000000  0.5257850000000 1.0
C      1  0.4588160000000  0.4387170000000  0.5258050000000 1.0
C      1  0.4843220000000  0.4908680000000  0.5818570000000 1.0
C      1  0.5050930000000  0.5178270000000  0.5828760000000 1.0
C      1  0.5178300000000  0.4871620000000  0.5823530000000 1.0
C      1  0.4388580000000  0.5073790000000  0.5436070000000 1.0
C      1  0.5369520000000  0.5539020000000  0.5400600000000 1.0
C      1  0.5273320000000  0.4397470000000  0.5434950000000 1.0
C      1  0.4204170000000  0.5123480000000  0.4475190000000 1.0
C      1  0.5165350000000  0.5612780000000  0.4512720000000 1.0
C      1  0.5424850000000  0.4495100000000  0.4460910000000 1.0
END
