TITL C-2622956-4641-165 0.0030660077274672 125000 -956.429140894316 0 0 183 (C1) n - 1
REM
REM in /nfs/bkarasulu/CARBON/AIRSS/Generating-Clusters/AIREBO/with-SteepDescent/Higher-Symm/SD-CG/HFTN-CG
REM
REM
REM
REM
REM
REM ./C.cell (b20cbc046b6831c77cfcea5457e17084)
REM
REM compiler GCC version 9.2.1 20190827 (Red Hat 9.2.1-1)
REM options -cpp -mtune=generic -march=x86-64 -g -O0 -fpre-include=/usr/include/finclude/math-vector-fortran.h
REM seed 202242985 -1769301847 429140715 -2129465779 -521963823 2139632934 1813029577 1131872331 -1216090949 1158584244 598913830 577456378 -39667592 -1701838130 -75215845 -107946699 239923415 -784557647 612622187 311221114 460589655 257357470 861472416 -740930210 70818943 2100455453 474004827 -287005913 1543819034 1546603715 -1532328356 -1054355688 -1772999200
REM
CELL 1.54180   50.00000   50.00000   50.00000   90.00000   90.00000   90.00000
LATT -1
SFAC C  
C      1  0.4561170000000  0.5269030000000  0.5960230000000 1.0
C      1  0.4531560000000  0.4009190000000  0.4580110000000 1.0
C      1  0.4516440000000  0.5740120000000  0.4379620000000 1.0
C      1  0.5388720000000  0.5120080000000  0.5992380000000 1.0
C      1  0.5328320000000  0.3971180000000  0.4621540000000 1.0
C      1  0.5420400000000  0.5767670000000  0.4329480000000 1.0
C      1  0.4821920000000  0.4158400000000  0.5378130000000 1.0
C      1  0.4907740000000  0.4970980000000  0.4121630000000 1.0
C      1  0.4881030000000  0.5820770000000  0.5405440000000 1.0
C      1  0.5128270000000  0.4104180000000  0.5515820000000 1.0
C      1  0.5362460000000  0.5090120000000  0.4164640000000 1.0
C      1  0.5211500000000  0.5769410000000  0.5467340000000 1.0
C      1  0.4572260000000  0.4535440000000  0.4832030000000 1.0
C      1  0.4531770000000  0.5308450000000  0.4749870000000 1.0
C      1  0.4586420000000  0.5090080000000  0.5457120000000 1.0
C      1  0.5323940000000  0.4462780000000  0.4701780000000 1.0
C      1  0.5354460000000  0.5364500000000  0.4673010000000 1.0
C      1  0.5442730000000  0.5004700000000  0.5426510000000 1.0
C      1  0.4428860000000  0.5429800000000  0.5691410000000 1.0
C      1  0.4570000000000  0.4125980000000  0.4897120000000 1.0
C      1  0.4492760000000  0.5411760000000  0.4294640000000 1.0
C      1  0.5472330000000  0.5381770000000  0.5841810000000 1.0
C      1  0.5399700000000  0.4130920000000  0.4913140000000 1.0
C      1  0.5557410000000  0.5458860000000  0.4288650000000 1.0
C      1  0.4081960000000  0.4926060000000  0.4829950000000 1.0
C      1  0.3888990000000  0.5243410000000  0.5052280000000 1.0
C      1  0.3945810000000  0.4920830000000  0.5133160000000 1.0
C      1  0.6140940000000  0.4870270000000  0.4820170000000 1.0
C      1  0.6065260000000  0.5146740000000  0.5000270000000 1.0
C      1  0.5876040000000  0.4905300000000  0.5146930000000 1.0
C      1  0.5684970000000  0.4707200000000  0.4607380000000 1.0
C      1  0.5658970000000  0.5544250000000  0.4999090000000 1.0
C      1  0.5645820000000  0.4771940000000  0.5449550000000 1.0
C      1  0.4299400000000  0.4684000000000  0.4527790000000 1.0
C      1  0.4277400000000  0.5551760000000  0.5027520000000 1.0
C      1  0.4294150000000  0.4663580000000  0.5527200000000 1.0
C      1  0.4428900000000  0.4731390000000  0.5037180000000 1.0
C      1  0.4414070000000  0.4998870000000  0.4827300000000 1.0
C      1  0.4455700000000  0.5118360000000  0.5143010000000 1.0
C      1  0.5591930000000  0.4822680000000  0.5015130000000 1.0
C      1  0.5544650000000  0.5104270000000  0.4830520000000 1.0
C      1  0.5555300000000  0.5191940000000  0.5159250000000 1.0
C      1  0.4389810000000  0.5714110000000  0.5609720000000 1.0
C      1  0.4468900000000  0.4221140000000  0.5360500000000 1.0
C      1  0.4427490000000  0.5095420000000  0.4188310000000 1.0
C      1  0.5630750000000  0.5776040000000  0.5411390000000 1.0
C      1  0.5499830000000  0.4296890000000  0.5357330000000 1.0
C      1  0.5683440000000  0.5147110000000  0.4238330000000 1.0
C      1  0.4486530000000  0.4337620000000  0.4568630000000 1.0
C      1  0.4440140000000  0.5627520000000  0.4670740000000 1.0
C      1  0.4475540000000  0.5026960000000  0.5754710000000 1.0
C      1  0.5490440000000  0.4236800000000  0.4539940000000 1.0
C      1  0.5443300000000  0.5681590000000  0.4636130000000 1.0
C      1  0.5548060000000  0.4889750000000  0.5974950000000 1.0
C      1  0.4858510000000  0.5100500000000  0.4417600000000 1.0
C      1  0.4859060000000  0.5487590000000  0.5386850000000 1.0
C      1  0.4861580000000  0.4422340000000  0.5186000000000 1.0
C      1  0.5167150000000  0.5107530000000  0.4410650000000 1.0
C      1  0.5168530000000  0.5447010000000  0.5410230000000 1.0
C      1  0.5177960000000  0.4496030000000  0.5197290000000 1.0
C      1  0.4110460000000  0.5570710000000  0.4731790000000 1.0
C      1  0.4161910000000  0.4954870000000  0.5644580000000 1.0
C      1  0.4181510000000  0.4414320000000  0.4698050000000 1.0
C      1  0.5872880000000  0.5538000000000  0.4744360000000 1.0
C      1  0.5804590000000  0.5016410000000  0.5625910000000 1.0
C      1  0.5830360000000  0.4498270000000  0.4798860000000 1.0
C      1  0.5247190000000  0.5414890000000  0.4367070000000 1.0
C      1  0.5250970000000  0.5278810000000  0.5642920000000 1.0
C      1  0.5152770000000  0.4324370000000  0.4932630000000 1.0
C      1  0.4749870000000  0.5381670000000  0.4511750000000 1.0
C      1  0.4728590000000  0.5340250000000  0.5612910000000 1.0
C      1  0.4836630000000  0.4333360000000  0.4857740000000 1.0
C      1  0.5628290000000  0.4547220000000  0.5194870000000 1.0
C      1  0.5738440000000  0.5039490000000  0.4558460000000 1.0
C      1  0.5695900000000  0.5453690000000  0.5324800000000 1.0
C      1  0.4298170000000  0.4488160000000  0.5235820000000 1.0
C      1  0.4296850000000  0.5083380000000  0.4517400000000 1.0
C      1  0.4241710000000  0.5300950000000  0.5229190000000 1.0
C      1  0.4838660000000  0.5207430000000  0.4856030000000 1.0
C      1  0.4861710000000  0.5010890000000  0.5292340000000 1.0
C      1  0.4859680000000  0.4729810000000  0.4883430000000 1.0
C      1  0.5129590000000  0.5217820000000  0.4859100000000 1.0
C      1  0.5145100000000  0.5011970000000  0.5285340000000 1.0
C      1  0.5156850000000  0.4716880000000  0.4864740000000 1.0
C      1  0.4235100000000  0.5274030000000  0.5552740000000 1.0
C      1  0.4310310000000  0.4271090000000  0.4974300000000 1.0
C      1  0.4197070000000  0.5401410000000  0.4450070000000 1.0
C      1  0.5692400000000  0.5320220000000  0.5621250000000 1.0
C      1  0.5641940000000  0.4284140000000  0.4983940000000 1.0
C      1  0.5767720000000  0.5377170000000  0.4531170000000 1.0
C      1  0.6065120000000  0.4619570000000  0.4945620000000 1.0
C      1  0.6141570000000  0.5416620000000  0.4829470000000 1.0
C      1  0.5924270000000  0.5128970000000  0.5362600000000 1.0
C      1  0.4022880000000  0.4621890000000  0.4883270000000 1.0
C      1  0.3938780000000  0.5296750000000  0.4790180000000 1.0
C      1  0.3954560000000  0.5083170000000  0.5407430000000 1.0
C      1  0.5871900000000  0.4524400000000  0.5506280000000 1.0
C      1  0.5847050000000  0.4735280000000  0.4322610000000 1.0
C      1  0.5902580000000  0.5736350000000  0.5133910000000 1.0
C      1  0.4245070000000  0.4429720000000  0.5736780000000 1.0
C      1  0.4129420000000  0.4864670000000  0.4317840000000 1.0
C      1  0.4200110000000  0.5684510000000  0.5328710000000 1.0
C      1  0.4892620000000  0.5320320000000  0.5899150000000 1.0
C      1  0.4842840000000  0.4118400000000  0.4521790000000 1.0
C      1  0.4831390000000  0.5800100000000  0.4362240000000 1.0
C      1  0.5081590000000  0.5075510000000  0.5954860000000 1.0
C      1  0.5113210000000  0.4017100000000  0.4392180000000 1.0
C      1  0.5107290000000  0.5691940000000  0.4249590000000 1.0
C      1  0.3975870000000  0.4587240000000  0.5191720000000 1.0
C      1  0.3961120000000  0.5049050000000  0.4559380000000 1.0
C      1  0.3953920000000  0.5438630000000  0.5323080000000 1.0
C      1  0.6013490000000  0.4633750000000  0.5250760000000 1.0
C      1  0.6042430000000  0.4893360000000  0.4553450000000 1.0
C      1  0.6011250000000  0.5416330000000  0.5202930000000 1.0
C      1  0.5574820000000  0.4438690000000  0.5657150000000 1.0
C      1  0.5590030000000  0.4619280000000  0.4181080000000 1.0
C      1  0.5611800000000  0.5924070000000  0.5105740000000 1.0
C      1  0.4401310000000  0.4215180000000  0.5675880000000 1.0
C      1  0.4408700000000  0.4757160000000  0.4155810000000 1.0
C      1  0.4418140000000  0.5894970000000  0.5171420000000 1.0
C      1  0.4822330000000  0.3907200000000  0.5148750000000 1.0
C      1  0.4837900000000  0.5248390000000  0.3970920000000 1.0
C      1  0.4915000000000  0.5849970000000  0.5745190000000 1.0
C      1  0.5151450000000  0.3974860000000  0.5214350000000 1.0
C      1  0.5327770000000  0.5344390000000  0.3959390000000 1.0
C      1  0.5253780000000  0.5859740000000  0.5774110000000 1.0
C      1  0.5380160000000  0.4726040000000  0.4533560000000 1.0
C      1  0.5350760000000  0.5556810000000  0.5022360000000 1.0
C      1  0.5213110000000  0.4411450000000  0.5488930000000 1.0
C      1  0.4635480000000  0.4698800000000  0.4478520000000 1.0
C      1  0.4613900000000  0.5579660000000  0.5025990000000 1.0
C      1  0.4610700000000  0.4695020000000  0.5509360000000 1.0
C      1  0.4958120000000  0.4889630000000  0.6170170000000 1.0
C      1  0.5069740000000  0.4268550000000  0.4198650000000 1.0
C      1  0.5096030000000  0.6077140000000  0.4745050000000 1.0
C      1  0.4749600000000  0.4758810000000  0.6111450000000 1.0
C      1  0.4773100000000  0.4333970000000  0.4121470000000 1.0
C      1  0.4848570000000  0.5923690000000  0.4679140000000 1.0
C      1  0.4613140000000  0.5985220000000  0.5347570000000 1.0
C      1  0.4674760000000  0.4106200000000  0.5680220000000 1.0
C      1  0.4649210000000  0.4840790000000  0.3978360000000 1.0
C      1  0.5332710000000  0.5991300000000  0.5256650000000 1.0
C      1  0.5401460000000  0.4148110000000  0.5713560000000 1.0
C      1  0.5416870000000  0.4802600000000  0.4050090000000 1.0
C      1  0.3987980000000  0.4250910000000  0.4556390000000 1.0
C      1  0.3947310000000  0.5802130000000  0.4695170000000 1.0
C      1  0.3992100000000  0.4900630000000  0.5875020000000 1.0
C      1  0.5769410000000  0.4242620000000  0.4608340000000 1.0
C      1  0.5723810000000  0.5829460000000  0.4753330000000 1.0
C      1  0.5830300000000  0.4930070000000  0.5924480000000 1.0
C      1  0.5434570000000  0.4705100000000  0.5781450000000 1.0
C      1  0.5411920000000  0.4376370000000  0.4273100000000 1.0
C      1  0.5370570000000  0.5922110000000  0.4865210000000 1.0
C      1  0.4658230000000  0.4785170000000  0.5826750000000 1.0
C      1  0.4546880000000  0.4462350000000  0.4260610000000 1.0
C      1  0.4557620000000  0.5872210000000  0.4862060000000 1.0
C      1  0.5104890000000  0.5713080000000  0.4902580000000 1.0
C      1  0.5215720000000  0.4941870000000  0.5672120000000 1.0
C      1  0.5138930000000  0.4558870000000  0.4361620000000 1.0
C      1  0.4827450000000  0.5598690000000  0.4762040000000 1.0
C      1  0.4917960000000  0.4783110000000  0.5626870000000 1.0
C      1  0.4866070000000  0.4456170000000  0.4541750000000 1.0
C      1  0.5624550000000  0.5268090000000  0.3925580000000 1.0
C      1  0.5543630000000  0.5918090000000  0.5630570000000 1.0
C      1  0.5447830000000  0.4017290000000  0.5293410000000 1.0
C      1  0.4542890000000  0.5224850000000  0.3944590000000 1.0
C      1  0.4582470000000  0.5876060000000  0.5729550000000 1.0
C      1  0.4528850000000  0.3926110000000  0.5240620000000 1.0
C      1  0.4839410000000  0.3937150000000  0.4811120000000 1.0
C      1  0.4759390000000  0.5543390000000  0.4129390000000 1.0
C      1  0.5015290000000  0.5594290000000  0.5945620000000 1.0
C      1  0.5139880000000  0.3911810000000  0.4896760000000 1.0
C      1  0.5063180000000  0.5482200000000  0.3989320000000 1.0
C      1  0.5327260000000  0.5616190000000  0.5967050000000 1.0
C      1  0.5248430000000  0.5280370000000  0.5140590000000 1.0
C      1  0.5293040000000  0.4772010000000  0.5138510000000 1.0
C      1  0.5261800000000  0.4976000000000  0.4691760000000 1.0
C      1  0.4734380000000  0.5289480000000  0.5144640000000 1.0
C      1  0.4728840000000  0.4727790000000  0.5197270000000 1.0
C      1  0.4722360000000  0.4938400000000  0.4683670000000 1.0
C      1  0.5058010000000  0.5921450000000  0.5133110000000 1.0
C      1  0.5125870000000  0.4770900000000  0.4120200000000 1.0
C      1  0.5081980000000  0.4553140000000  0.5681090000000 1.0
END
