TITL C-2622960-5345-664 -0.00195024140707785 125000 -757.605820754834 0 0 148 (C1) n - 1
REM
REM in /nfs/bkarasulu/CARBON/AIRSS/Generating-Clusters/AIREBO/with-SteepDescent/Higher-Symm/SD-CG/HFTN-CG
REM
REM
REM
REM
REM
REM ./C.cell (b20cbc046b6831c77cfcea5457e17084)
REM
REM compiler GCC version 9.2.1 20190827 (Red Hat 9.2.1-1)
REM options -cpp -mtune=generic -march=x86-64 -g -O0 -fpre-include=/usr/include/finclude/math-vector-fortran.h
REM seed -702790077 197033017 59434774 202940511 -2031197150 -1037703228 -930894466 -1233880846 23073653 2078344960 2087177484 2061261032 -514448419 454631468 -1582312865 76910139 606073249 546407983 1591448663 -1778517445 -1682354587 -785176143 1489160201 -1892986469 -1253564405 -1690473299 625870244 59527925 1210599891 512343895 -2046039496 -1723445618 -1199206834
REM
CELL 1.54180   50.00000   50.00000   50.00000   90.00000   90.00000   90.00000
LATT -1
SFAC C  
C      1  0.5363140000000  0.4419140000000  0.5725950000000 1.0
C      1  0.5400460000000  0.5994790000000  0.5061730000000 1.0
C      1  0.5582710000000  0.4488180000000  0.4173980000000 1.0
C      1  0.4682090000000  0.4600540000000  0.5706520000000 1.0
C      1  0.4633240000000  0.5898610000000  0.5105560000000 1.0
C      1  0.4608310000000  0.4604530000000  0.4284880000000 1.0
C      1  0.4588810000000  0.4896160000000  0.4167190000000 1.0
C      1  0.4478930000000  0.4374190000000  0.5635930000000 1.0
C      1  0.4430100000000  0.5909520000000  0.5291040000000 1.0
C      1  0.5646090000000  0.4684550000000  0.4025570000000 1.0
C      1  0.5605660000000  0.4255410000000  0.5658680000000 1.0
C      1  0.5517560000000  0.5978640000000  0.5332730000000 1.0
C      1  0.4424910000000  0.4110800000000  0.4627320000000 1.0
C      1  0.4376820000000  0.5125470000000  0.5899510000000 1.0
C      1  0.4472190000000  0.5699620000000  0.4501320000000 1.0
C      1  0.5532430000000  0.4246910000000  0.4596270000000 1.0
C      1  0.5507540000000  0.5015760000000  0.5883980000000 1.0
C      1  0.5537210000000  0.5692650000000  0.4532930000000 1.0
C      1  0.5540510000000  0.5684690000000  0.5969540000000 1.0
C      1  0.5266720000000  0.5116360000000  0.3825770000000 1.0
C      1  0.5380960000000  0.3761600000000  0.5125800000000 1.0
C      1  0.4528270000000  0.5945420000000  0.5834690000000 1.0
C      1  0.4522820000000  0.5354060000000  0.3820320000000 1.0
C      1  0.4709110000000  0.3803990000000  0.5364770000000 1.0
C      1  0.4153470000000  0.4654780000000  0.5504270000000 1.0
C      1  0.4303900000000  0.5570770000000  0.5122760000000 1.0
C      1  0.4113070000000  0.4764340000000  0.4522860000000 1.0
C      1  0.5866560000000  0.4706870000000  0.5446890000000 1.0
C      1  0.5903610000000  0.5541730000000  0.5053600000000 1.0
C      1  0.5873600000000  0.4823620000000  0.4515880000000 1.0
C      1  0.4384620000000  0.4559520000000  0.4528250000000 1.0
C      1  0.4434090000000  0.4794610000000  0.5636330000000 1.0
C      1  0.4584550000000  0.5613480000000  0.4935330000000 1.0
C      1  0.5378870000000  0.4564630000000  0.4409610000000 1.0
C      1  0.5379740000000  0.4714210000000  0.5654380000000 1.0
C      1  0.5381530000000  0.5718330000000  0.4900240000000 1.0
C      1  0.5221210000000  0.4583990000000  0.5153390000000 1.0
C      1  0.5212030000000  0.5304360000000  0.5333130000000 1.0
C      1  0.5199970000000  0.5097140000000  0.4543920000000 1.0
C      1  0.4814040000000  0.4574100000000  0.5024030000000 1.0
C      1  0.4832220000000  0.5503160000000  0.5407280000000 1.0
C      1  0.4879580000000  0.5141970000000  0.4431700000000 1.0
C      1  0.4681420000000  0.4977060000000  0.4731360000000 1.0
C      1  0.4710670000000  0.4789020000000  0.5209040000000 1.0
C      1  0.4764450000000  0.5191410000000  0.5065060000000 1.0
C      1  0.5285560000000  0.4923960000000  0.4825820000000 1.0
C      1  0.5474650000000  0.4735090000000  0.5040010000000 1.0
C      1  0.5349680000000  0.5168180000000  0.5053640000000 1.0
C      1  0.5154530000000  0.5436650000000  0.5632790000000 1.0
C      1  0.5199410000000  0.5338760000000  0.4304410000000 1.0
C      1  0.5163840000000  0.4279170000000  0.5063910000000 1.0
C      1  0.4834710000000  0.5535460000000  0.5693650000000 1.0
C      1  0.4871190000000  0.5349400000000  0.4213020000000 1.0
C      1  0.4851930000000  0.4267840000000  0.5082620000000 1.0
C      1  0.4659160000000  0.5049630000000  0.5632650000000 1.0
C      1  0.4810040000000  0.5595230000000  0.4681300000000 1.0
C      1  0.4675020000000  0.4416320000000  0.4632580000000 1.0
C      1  0.5143400000000  0.4944540000000  0.5741650000000 1.0
C      1  0.5137640000000  0.5685840000000  0.4691340000000 1.0
C      1  0.5173210000000  0.4419210000000  0.4566330000000 1.0
C      1  0.5253030000000  0.4853110000000  0.6050390000000 1.0
C      1  0.5350230000000  0.5979630000000  0.4525820000000 1.0
C      1  0.5311220000000  0.4092880000000  0.4386700000000 1.0
C      1  0.4650980000000  0.4918680000000  0.5946440000000 1.0
C      1  0.4746100000000  0.5921210000000  0.4604900000000 1.0
C      1  0.4706800000000  0.4155950000000  0.4424770000000 1.0
C      1  0.4838210000000  0.5495580000000  0.5128700000000 1.0
C      1  0.4867470000000  0.4825930000000  0.4490770000000 1.0
C      1  0.4867100000000  0.4662770000000  0.5448120000000 1.0
C      1  0.5165540000000  0.5520790000000  0.5073310000000 1.0
C      1  0.5223950000000  0.4821890000000  0.4353370000000 1.0
C      1  0.5167450000000  0.4720750000000  0.5412280000000 1.0
C      1  0.4376460000000  0.5464470000000  0.5947500000000 1.0
C      1  0.4387610000000  0.5628750000000  0.4214390000000 1.0
C      1  0.4426500000000  0.3986290000000  0.4949160000000 1.0
C      1  0.5585440000000  0.5245470000000  0.5653620000000 1.0
C      1  0.5589350000000  0.5416850000000  0.4340990000000 1.0
C      1  0.5627200000000  0.4182290000000  0.4896570000000 1.0
C      1  0.4117040000000  0.4577530000000  0.5237220000000 1.0
C      1  0.4091570000000  0.5310850000000  0.5178450000000 1.0
C      1  0.4086970000000  0.5053320000000  0.4607020000000 1.0
C      1  0.5840470000000  0.4625370000000  0.5148260000000 1.0
C      1  0.5925750000000  0.5394060000000  0.5323560000000 1.0
C      1  0.5866730000000  0.5159190000000  0.4572100000000 1.0
C      1  0.5095250000000  0.5312480000000  0.6127030000000 1.0
C      1  0.5151010000000  0.5820200000000  0.4179280000000 1.0
C      1  0.5132260000000  0.3896380000000  0.4738490000000 1.0
C      1  0.4842830000000  0.5317450000000  0.6129160000000 1.0
C      1  0.4896560000000  0.5823690000000  0.4154410000000 1.0
C      1  0.4884270000000  0.3865500000000  0.4779920000000 1.0
C      1  0.5086390000000  0.5031780000000  0.5424490000000 1.0
C      1  0.5166240000000  0.5306580000000  0.4809650000000 1.0
C      1  0.5160140000000  0.4607880000000  0.4828580000000 1.0
C      1  0.4797760000000  0.5048920000000  0.5372020000000 1.0
C      1  0.4857950000000  0.5267420000000  0.4746980000000 1.0
C      1  0.4865290000000  0.4623610000000  0.4716810000000 1.0
C      1  0.5140870000000  0.4268320000000  0.5563660000000 1.0
C      1  0.5164550000000  0.5821270000000  0.5234510000000 1.0
C      1  0.5167010000000  0.4893890000000  0.4039740000000 1.0
C      1  0.4854750000000  0.4349740000000  0.5508560000000 1.0
C      1  0.4889570000000  0.5958420000000  0.5169760000000 1.0
C      1  0.4894460000000  0.4764150000000  0.4170990000000 1.0
C      1  0.4763100000000  0.5618270000000  0.4345220000000 1.0
C      1  0.4704440000000  0.4133720000000  0.4819680000000 1.0
C      1  0.4663310000000  0.5304320000000  0.5858190000000 1.0
C      1  0.5249350000000  0.5617410000000  0.4394430000000 1.0
C      1  0.5249090000000  0.4179300000000  0.4771760000000 1.0
C      1  0.5250160000000  0.5237820000000  0.5870880000000 1.0
C      1  0.5414870000000  0.4058640000000  0.5113550000000 1.0
C      1  0.5459900000000  0.5542390000000  0.5719560000000 1.0
C      1  0.5412740000000  0.5267040000000  0.4090770000000 1.0
C      1  0.4626630000000  0.4041570000000  0.5199600000000 1.0
C      1  0.4525130000000  0.5656740000000  0.5730930000000 1.0
C      1  0.4553140000000  0.5386030000000  0.4097810000000 1.0
C      1  0.5820800000000  0.5318710000000  0.4811410000000 1.0
C      1  0.5811620000000  0.4700230000000  0.4830380000000 1.0
C      1  0.5792550000000  0.5099340000000  0.5429100000000 1.0
C      1  0.4188250000000  0.5236400000000  0.4875910000000 1.0
C      1  0.4137670000000  0.4650770000000  0.4905530000000 1.0
C      1  0.4141940000000  0.4986960000000  0.5286360000000 1.0
C      1  0.4378010000000  0.4869060000000  0.4801660000000 1.0
C      1  0.4405670000000  0.4831700000000  0.5137800000000 1.0
C      1  0.4447530000000  0.5165190000000  0.5085960000000 1.0
C      1  0.5583890000000  0.4906670000000  0.4684960000000 1.0
C      1  0.5696810000000  0.4931440000000  0.5164280000000 1.0
C      1  0.5646980000000  0.5239040000000  0.5084830000000 1.0
C      1  0.5424360000000  0.4252840000000  0.5370980000000 1.0
C      1  0.5409880000000  0.5694230000000  0.5436110000000 1.0
C      1  0.5499690000000  0.4941610000000  0.4095440000000 1.0
C      1  0.4556540000000  0.4309310000000  0.5346250000000 1.0
C      1  0.4387280000000  0.5630330000000  0.5453770000000 1.0
C      1  0.4492420000000  0.5130430000000  0.4269440000000 1.0
C      1  0.4418130000000  0.5122890000000  0.4573130000000 1.0
C      1  0.4418920000000  0.4492080000000  0.5121920000000 1.0
C      1  0.4359870000000  0.5298030000000  0.5386980000000 1.0
C      1  0.5593500000000  0.5079600000000  0.4391740000000 1.0
C      1  0.5581310000000  0.4420580000000  0.5118290000000 1.0
C      1  0.5589760000000  0.5432750000000  0.5358850000000 1.0
C      1  0.5667170000000  0.5612700000000  0.4816460000000 1.0
C      1  0.5684850000000  0.4543680000000  0.4556430000000 1.0
C      1  0.5670170000000  0.4855310000000  0.5631920000000 1.0
C      1  0.4400920000000  0.5441150000000  0.4706680000000 1.0
C      1  0.4321300000000  0.4380730000000  0.4810540000000 1.0
C      1  0.4263540000000  0.5072630000000  0.5592310000000 1.0
C      1  0.5012180000000  0.4174700000000  0.4393440000000 1.0
C      1  0.5054780000000  0.5995690000000  0.4617950000000 1.0
C      1  0.4922200000000  0.4817020000000  0.5966490000000 1.0
C      1  0.4992980000000  0.4966080000000  0.4988380000000 1.0
END
