TITL C-2622960-5345-646 -0.000478075053976852 125000 -939.23088224141 0 0 174 (C1) n - 1
REM
REM in /nfs/bkarasulu/CARBON/AIRSS/Generating-Clusters/AIREBO/with-SteepDescent/Higher-Symm/SD-CG/HFTN-CG
REM
REM
REM
REM
REM
REM ./C.cell (b20cbc046b6831c77cfcea5457e17084)
REM
REM compiler GCC version 9.2.1 20190827 (Red Hat 9.2.1-1)
REM options -cpp -mtune=generic -march=x86-64 -g -O0 -fpre-include=/usr/include/finclude/math-vector-fortran.h
REM seed 769347338 1498183345 -275205501 -1313659492 -820896256 -1430002598 -331897129 1045711945 -984864386 -1504614251 596265251 1760248729 1013217962 1509800112 377593676 2089984094 -925827987 511804489 -1160738012 -869422272 1748357563 -387549128 1084816225 -1416747549 -811605632 -1151561978 -978993478 1492692160 -2089632903 984866355 -1473981487 309729780 2049216393
REM
CELL 1.54180   50.00000   50.00000   50.00000   90.00000   90.00000   90.00000
LATT -1
SFAC C  
C      1  0.4412340000000  0.5074840000000  0.4947050000000 1.0
C      1  0.4591750000000  0.4946700000000  0.4537520000000 1.0
C      1  0.5152170000000  0.5023340000000  0.4323000000000 1.0
C      1  0.5615270000000  0.5057480000000  0.4697500000000 1.0
C      1  0.5632640000000  0.5038780000000  0.5270030000000 1.0
C      1  0.5113200000000  0.5033810000000  0.5576820000000 1.0
C      1  0.4623880000000  0.4982140000000  0.5429640000000 1.0
C      1  0.5273080000000  0.5641720000000  0.5248730000000 1.0
C      1  0.5133880000000  0.5595360000000  0.5555510000000 1.0
C      1  0.4850080000000  0.5584420000000  0.5368280000000 1.0
C      1  0.4726130000000  0.5594520000000  0.5099520000000 1.0
C      1  0.4832260000000  0.5548590000000  0.4779770000000 1.0
C      1  0.5017580000000  0.5544160000000  0.4493960000000 1.0
C      1  0.5297760000000  0.5458580000000  0.4762460000000 1.0
C      1  0.5448790000000  0.5745170000000  0.4225560000000 1.0
C      1  0.5961000000000  0.5722370000000  0.5003330000000 1.0
C      1  0.5562170000000  0.5762400000000  0.5620210000000 1.0
C      1  0.4934300000000  0.5852720000000  0.5802820000000 1.0
C      1  0.4308440000000  0.5974460000000  0.5729530000000 1.0
C      1  0.4152210000000  0.5601150000000  0.4746690000000 1.0
C      1  0.4728640000000  0.5689510000000  0.4095290000000 1.0
C      1  0.4460300000000  0.4704330000000  0.4198990000000 1.0
C      1  0.5326200000000  0.4762310000000  0.3964300000000 1.0
C      1  0.5880460000000  0.4666310000000  0.4550400000000 1.0
C      1  0.5892270000000  0.4752110000000  0.5522170000000 1.0
C      1  0.5055350000000  0.4671250000000  0.6096990000000 1.0
C      1  0.4339100000000  0.4825700000000  0.5844520000000 1.0
C      1  0.3962460000000  0.4760170000000  0.5082520000000 1.0
C      1  0.4974600000000  0.5668140000000  0.4043860000000 1.0
C      1  0.5595370000000  0.5786050000000  0.4423500000000 1.0
C      1  0.5941530000000  0.5714400000000  0.5258590000000 1.0
C      1  0.5467560000000  0.5935750000000  0.5864780000000 1.0
C      1  0.4533440000000  0.5527700000000  0.5757660000000 1.0
C      1  0.3698960000000  0.5413460000000  0.5084790000000 1.0
C      1  0.4336860000000  0.5578380000000  0.4531930000000 1.0
C      1  0.5345390000000  0.6101260000000  0.5188140000000 1.0
C      1  0.5064940000000  0.6004180000000  0.5351540000000 1.0
C      1  0.4584250000000  0.6005660000000  0.5249120000000 1.0
C      1  0.4703210000000  0.5953200000000  0.4934950000000 1.0
C      1  0.4905950000000  0.5926610000000  0.4672240000000 1.0
C      1  0.5241510000000  0.5928650000000  0.4737420000000 1.0
C      1  0.5319140000000  0.6162830000000  0.4924560000000 1.0
C      1  0.5662540000000  0.4497180000000  0.4493830000000 1.0
C      1  0.5696490000000  0.4475080000000  0.5497530000000 1.0
C      1  0.4815430000000  0.4407490000000  0.5785560000000 1.0
C      1  0.4289620000000  0.4416940000000  0.5398060000000 1.0
C      1  0.4301640000000  0.4475190000000  0.4641320000000 1.0
C      1  0.4720390000000  0.4511630000000  0.4278190000000 1.0
C      1  0.5176940000000  0.4534590000000  0.4131250000000 1.0
C      1  0.4048210000000  0.5062590000000  0.4562520000000 1.0
C      1  0.4904620000000  0.5114060000000  0.3988200000000 1.0
C      1  0.5699010000000  0.5104350000000  0.4212510000000 1.0
C      1  0.5983850000000  0.5122750000000  0.5102250000000 1.0
C      1  0.5649780000000  0.5079280000000  0.5801550000000 1.0
C      1  0.4757920000000  0.5071320000000  0.5960550000000 1.0
C      1  0.4063170000000  0.5033680000000  0.5483350000000 1.0
C      1  0.4410620000000  0.5315910000000  0.5265890000000 1.0
C      1  0.4512140000000  0.5285560000000  0.4563490000000 1.0
C      1  0.4922290000000  0.5271820000000  0.4355300000000 1.0
C      1  0.5494040000000  0.5333590000000  0.4545900000000 1.0
C      1  0.5620110000000  0.5339500000000  0.5109540000000 1.0
C      1  0.5366600000000  0.5352880000000  0.5503890000000 1.0
C      1  0.4790110000000  0.5426580000000  0.5729350000000 1.0
C      1  0.5219300000000  0.5242880000000  0.3948220000000 1.0
C      1  0.5906290000000  0.5203300000000  0.4470720000000 1.0
C      1  0.5925130000000  0.5288460000000  0.5377420000000 1.0
C      1  0.5236540000000  0.5142920000000  0.6106740000000 1.0
C      1  0.4349520000000  0.5313630000000  0.5758300000000 1.0
C      1  0.3888880000000  0.5218050000000  0.5072650000000 1.0
C      1  0.4374480000000  0.5114640000000  0.4116090000000 1.0
C      1  0.5900000000000  0.4897850000000  0.4393190000000 1.0
C      1  0.5999180000000  0.4828430000000  0.5273480000000 1.0
C      1  0.5421360000000  0.4958770000000  0.5993830000000 1.0
C      1  0.4441840000000  0.5083970000000  0.5909910000000 1.0
C      1  0.3917500000000  0.4991190000000  0.5243500000000 1.0
C      1  0.4207150000000  0.4915350000000  0.4300490000000 1.0
C      1  0.5166670000000  0.4952660000000  0.3843630000000 1.0
C      1  0.5411580000000  0.4630070000000  0.4590740000000 1.0
C      1  0.5545900000000  0.4726550000000  0.5325210000000 1.0
C      1  0.5106220000000  0.4438980000000  0.5653330000000 1.0
C      1  0.4772610000000  0.4638640000000  0.5566730000000 1.0
C      1  0.4468790000000  0.4577510000000  0.5157810000000 1.0
C      1  0.4603370000000  0.4609540000000  0.4582040000000 1.0
C      1  0.5017430000000  0.4615780000000  0.4407250000000 1.0
C      1  0.4506260000000  0.5794450000000  0.5676100000000 1.0
C      1  0.4290780000000  0.5466500000000  0.5021430000000 1.0
C      1  0.4614170000000  0.5523520000000  0.4342850000000 1.0
C      1  0.5213320000000  0.5539950000000  0.4215850000000 1.0
C      1  0.5741900000000  0.5547560000000  0.4868820000000 1.0
C      1  0.5655420000000  0.5581150000000  0.5348080000000 1.0
C      1  0.5036750000000  0.5543700000000  0.5877380000000 1.0
C      1  0.4853080000000  0.4099120000000  0.5349910000000 1.0
C      1  0.4597500000000  0.4019130000000  0.5132400000000 1.0
C      1  0.4532990000000  0.4059220000000  0.4799290000000 1.0
C      1  0.5116470000000  0.4108440000000  0.4394600000000 1.0
C      1  0.5398670000000  0.4133450000000  0.4805630000000 1.0
C      1  0.5421450000000  0.4137420000000  0.5144920000000 1.0
C      1  0.5196700000000  0.4067590000000  0.5392040000000 1.0
C      1  0.5238120000000  0.4425790000000  0.4730290000000 1.0
C      1  0.5426570000000  0.4469940000000  0.5205480000000 1.0
C      1  0.5128740000000  0.4385990000000  0.5319910000000 1.0
C      1  0.4801140000000  0.4434370000000  0.5325510000000 1.0
C      1  0.4655660000000  0.4335580000000  0.5053870000000 1.0
C      1  0.4724850000000  0.4333580000000  0.4739270000000 1.0
C      1  0.4978610000000  0.4320320000000  0.4571070000000 1.0
C      1  0.5582370000000  0.4786470000000  0.4180200000000 1.0
C      1  0.5926890000000  0.4687840000000  0.4824400000000 1.0
C      1  0.5887720000000  0.4886480000000  0.5757130000000 1.0
C      1  0.4804900000000  0.4746230000000  0.6027010000000 1.0
C      1  0.4220850000000  0.4814260000000  0.5584390000000 1.0
C      1  0.3987620000000  0.4840340000000  0.4815210000000 1.0
C      1  0.4715020000000  0.4833840000000  0.4022350000000 1.0
C      1  0.5748250000000  0.4151850000000  0.5136340000000 1.0
C      1  0.5437220000000  0.4259090000000  0.5542790000000 1.0
C      1  0.4689550000000  0.4158140000000  0.5623000000000 1.0
C      1  0.4301100000000  0.4184900000000  0.5149790000000 1.0
C      1  0.4324790000000  0.4143060000000  0.4607170000000 1.0
C      1  0.5006560000000  0.4094460000000  0.4133110000000 1.0
C      1  0.5387210000000  0.4099160000000  0.4482370000000 1.0
C      1  0.5442010000000  0.4910790000000  0.4445300000000 1.0
C      1  0.5748150000000  0.4913480000000  0.4975450000000 1.0
C      1  0.5450040000000  0.5035620000000  0.5557610000000 1.0
C      1  0.4809320000000  0.4942020000000  0.5680440000000 1.0
C      1  0.4429590000000  0.4789470000000  0.5393360000000 1.0
C      1  0.4299270000000  0.4900320000000  0.4704600000000 1.0
C      1  0.4839440000000  0.4889250000000  0.4311680000000 1.0
C      1  0.5018430000000  0.4762490000000  0.5394930000000 1.0
C      1  0.4882800000000  0.4910150000000  0.5138440000000 1.0
C      1  0.4591680000000  0.4828060000000  0.5018040000000 1.0
C      1  0.4822450000000  0.4728620000000  0.4796890000000 1.0
C      1  0.5129980000000  0.4805170000000  0.4666520000000 1.0
C      1  0.5325410000000  0.4795370000000  0.4944620000000 1.0
C      1  0.5267150000000  0.4882520000000  0.5241180000000 1.0
C      1  0.5504580000000  0.5713550000000  0.4710950000000 1.0
C      1  0.5476420000000  0.5850120000000  0.5241700000000 1.0
C      1  0.5265130000000  0.5907140000000  0.5589990000000 1.0
C      1  0.4781770000000  0.5889860000000  0.5501190000000 1.0
C      1  0.4447990000000  0.5758720000000  0.5059200000000 1.0
C      1  0.4630170000000  0.5738650000000  0.4605900000000 1.0
C      1  0.5124520000000  0.5856680000000  0.4436650000000 1.0
C      1  0.5179310000000  0.5142170000000  0.4701400000000 1.0
C      1  0.5404660000000  0.5126010000000  0.4955490000000 1.0
C      1  0.5260130000000  0.5191930000000  0.5243990000000 1.0
C      1  0.4892140000000  0.5274990000000  0.5482260000000 1.0
C      1  0.4724540000000  0.5206090000000  0.5194320000000 1.0
C      1  0.4672960000000  0.5259520000000  0.4862020000000 1.0
C      1  0.4870740000000  0.5106710000000  0.4648010000000 1.0
C      1  0.5696180000000  0.5343610000000  0.5588100000000 1.0
C      1  0.5002490000000  0.5261910000000  0.6029500000000 1.0
C      1  0.4241740000000  0.5262300000000  0.5495670000000 1.0
C      1  0.4118540000000  0.5221850000000  0.4859360000000 1.0
C      1  0.4641260000000  0.5233470000000  0.4167290000000 1.0
C      1  0.5391160000000  0.5251190000000  0.4241530000000 1.0
C      1  0.5870880000000  0.5254180000000  0.4805200000000 1.0
C      1  0.4186740000000  0.4354390000000  0.4915820000000 1.0
C      1  0.4169880000000  0.4237920000000  0.4356220000000 1.0
C      1  0.4978700000000  0.4346140000000  0.4003720000000 1.0
C      1  0.5576330000000  0.4260340000000  0.4340980000000 1.0
C      1  0.5856370000000  0.4384090000000  0.5228960000000 1.0
C      1  0.5369650000000  0.4490300000000  0.5782950000000 1.0
C      1  0.4443900000000  0.4357880000000  0.5652290000000 1.0
C      1  0.5985220000000  0.4603590000000  0.5100040000000 1.0
C      1  0.5321510000000  0.4690710000000  0.5984720000000 1.0
C      1  0.4543120000000  0.4582870000000  0.5889290000000 1.0
C      1  0.4075020000000  0.4511400000000  0.5150950000000 1.0
C      1  0.4198640000000  0.4577860000000  0.4341530000000 1.0
C      1  0.4727060000000  0.4503430000000  0.3939790000000 1.0
C      1  0.5495100000000  0.4460850000000  0.4132800000000 1.0
C      1  0.5027840000000  0.5319130000000  0.5111820000000 1.0
C      1  0.5124770000000  0.3981350000000  0.4931300000000 1.0
C      1  0.5087570000000  0.4296130000000  0.4994610000000 1.0
C      1  0.5106690000000  0.5586880000000  0.4976820000000 1.0
C      1  0.5051750000000  0.4633530000000  0.5016690000000 1.0
C      1  0.4991910000000  0.5890020000000  0.5059350000000 1.0
END
