TITL C-2622958-629-204 -0.0014490286451163 125000 -656.062900114316 0 0 120 (C1) n - 1
REM
REM in /nfs/bkarasulu/CARBON/AIRSS/Generating-Clusters/AIREBO/with-SteepDescent/Higher-Symm/SD-CG/HFTN-CG
REM
REM
REM
REM
REM
REM ./C.cell (b20cbc046b6831c77cfcea5457e17084)
REM
REM compiler GCC version 9.2.1 20190827 (Red Hat 9.2.1-1)
REM options -cpp -mtune=generic -march=x86-64 -g -O0 -fpre-include=/usr/include/finclude/math-vector-fortran.h
REM seed -1466360112 738257372 1785038774 1507336485 1731377660 -1705565829 -1267024709 -741469478 1673232893 -1567361934 833283019 -1530341124 410992357 1088566015 1082330552 -2018630708 -55839102 1254162140 1669668367 -1909315590 1136639846 810460985 -797618248 1268163959 -1932083695 1287757134 -526242699 -1433886438 971401864 -934890071 -1163070029 -1404927890 -954164196
REM
CELL 1.54180   50.00000   50.00000   50.00000   90.00000   90.00000   90.00000
LATT -1
SFAC C  
C      1  0.4896150000000  0.4086240000000  0.5267790000000 1.0
C      1  0.4298860000000  0.4565520000000  0.5124010000000 1.0
C      1  0.4110170000000  0.5046140000000  0.5129420000000 1.0
C      1  0.4635650000000  0.5926430000000  0.5231450000000 1.0
C      1  0.5431410000000  0.5778330000000  0.5202880000000 1.0
C      1  0.5817390000000  0.5055220000000  0.5201200000000 1.0
C      1  0.5831340000000  0.4313150000000  0.5145140000000 1.0
C      1  0.4391720000000  0.4886590000000  0.5146200000000 1.0
C      1  0.4252350000000  0.5514340000000  0.5109240000000 1.0
C      1  0.5068800000000  0.5690290000000  0.5117450000000 1.0
C      1  0.5461500000000  0.5467000000000  0.5129390000000 1.0
C      1  0.5529940000000  0.4924610000000  0.5074820000000 1.0
C      1  0.5346770000000  0.4323670000000  0.5184250000000 1.0
C      1  0.4854760000000  0.4392290000000  0.5158350000000 1.0
C      1  0.4833970000000  0.4689760000000  0.4721200000000 1.0
C      1  0.4666430000000  0.4935660000000  0.4823140000000 1.0
C      1  0.4738240000000  0.5210330000000  0.4701260000000 1.0
C      1  0.5004180000000  0.5307560000000  0.4675130000000 1.0
C      1  0.5228240000000  0.5174460000000  0.4813000000000 1.0
C      1  0.5286370000000  0.4893430000000  0.4707110000000 1.0
C      1  0.5127440000000  0.4682270000000  0.4838110000000 1.0
C      1  0.5003450000000  0.5652370000000  0.4202250000000 1.0
C      1  0.5505400000000  0.5424710000000  0.4224880000000 1.0
C      1  0.5677300000000  0.4906840000000  0.4231430000000 1.0
C      1  0.5304430000000  0.4418540000000  0.4242950000000 1.0
C      1  0.4756680000000  0.4430960000000  0.4286750000000 1.0
C      1  0.4424300000000  0.4861340000000  0.4207410000000 1.0
C      1  0.4522290000000  0.5385600000000  0.4302220000000 1.0
C      1  0.4134290000000  0.4535920000000  0.4676070000000 1.0
C      1  0.4321760000000  0.5282640000000  0.4886340000000 1.0
C      1  0.4717760000000  0.5668850000000  0.4937480000000 1.0
C      1  0.5497060000000  0.5635370000000  0.4837010000000 1.0
C      1  0.5723770000000  0.5041000000000  0.4814800000000 1.0
C      1  0.5498080000000  0.4504960000000  0.4862660000000 1.0
C      1  0.4820480000000  0.4210660000000  0.4886470000000 1.0
C      1  0.4113420000000  0.4859350000000  0.4677260000000 1.0
C      1  0.4366330000000  0.5654360000000  0.4753210000000 1.0
C      1  0.4979960000000  0.5795830000000  0.4761270000000 1.0
C      1  0.5753210000000  0.5434660000000  0.4757120000000 1.0
C      1  0.5817670000000  0.4722260000000  0.4742760000000 1.0
C      1  0.5352830000000  0.4206800000000  0.4802220000000 1.0
C      1  0.4524130000000  0.4238010000000  0.4758070000000 1.0
C      1  0.5208510000000  0.4532060000000  0.5662060000000 1.0
C      1  0.4663940000000  0.4590320000000  0.5690080000000 1.0
C      1  0.4460170000000  0.5048200000000  0.5760120000000 1.0
C      1  0.4736200000000  0.5443860000000  0.5740420000000 1.0
C      1  0.5155640000000  0.5533210000000  0.5762550000000 1.0
C      1  0.5533380000000  0.5222880000000  0.5720480000000 1.0
C      1  0.5532490000000  0.4751820000000  0.5727650000000 1.0
C      1  0.5001700000000  0.4686660000000  0.5215800000000 1.0
C      1  0.4687150000000  0.4727380000000  0.5091280000000 1.0
C      1  0.4500040000000  0.5208500000000  0.5166700000000 1.0
C      1  0.4777380000000  0.5409020000000  0.5138990000000 1.0
C      1  0.5098610000000  0.5371090000000  0.5058440000000 1.0
C      1  0.5327460000000  0.5162320000000  0.5198850000000 1.0
C      1  0.5324910000000  0.4655740000000  0.5113930000000 1.0
C      1  0.5592460000000  0.4238850000000  0.5270120000000 1.0
C      1  0.4797090000000  0.3904500000000  0.5419970000000 1.0
C      1  0.4194060000000  0.4445070000000  0.5348700000000 1.0
C      1  0.4086660000000  0.5311370000000  0.5222470000000 1.0
C      1  0.4874370000000  0.5837180000000  0.5264690000000 1.0
C      1  0.5535010000000  0.5931760000000  0.5401800000000 1.0
C      1  0.5976060000000  0.4974850000000  0.5407180000000 1.0
C      1  0.4770030000000  0.5205140000000  0.4153350000000 1.0
C      1  0.5015530000000  0.5333070000000  0.4126670000000 1.0
C      1  0.5268830000000  0.5215280000000  0.4136440000000 1.0
C      1  0.5347150000000  0.4945660000000  0.4149240000000 1.0
C      1  0.5175750000000  0.4721600000000  0.4158080000000 1.0
C      1  0.4896350000000  0.4718530000000  0.4167750000000 1.0
C      1  0.4720870000000  0.4932790000000  0.4141270000000 1.0
C      1  0.5268400000000  0.5855450000000  0.4914520000000 1.0
C      1  0.5910900000000  0.5266550000000  0.4987290000000 1.0
C      1  0.5803850000000  0.4484970000000  0.4939350000000 1.0
C      1  0.5116060000000  0.4151460000000  0.5021450000000 1.0
C      1  0.4294170000000  0.4427220000000  0.4877330000000 1.0
C      1  0.3955400000000  0.4960660000000  0.4920590000000 1.0
C      1  0.4417950000000  0.5768980000000  0.5057300000000 1.0
C      1  0.5773970000000  0.5343110000000  0.5721180000000 1.0
C      1  0.5794380000000  0.4679510000000  0.5742210000000 1.0
C      1  0.5331770000000  0.4270590000000  0.5738110000000 1.0
C      1  0.4458790000000  0.4390290000000  0.5761230000000 1.0
C      1  0.4198680000000  0.5030100000000  0.5835430000000 1.0
C      1  0.4583530000000  0.5665500000000  0.5790330000000 1.0
C      1  0.5227070000000  0.5787170000000  0.5770760000000 1.0
C      1  0.5351210000000  0.4750510000000  0.5439710000000 1.0
C      1  0.4954080000000  0.4654200000000  0.5538140000000 1.0
C      1  0.4670750000000  0.4788890000000  0.5414160000000 1.0
C      1  0.4553200000000  0.5060120000000  0.5468340000000 1.0
C      1  0.4757580000000  0.5319830000000  0.5449170000000 1.0
C      1  0.5069770000000  0.5302250000000  0.5571140000000 1.0
C      1  0.5320500000000  0.5082970000000  0.5514340000000 1.0
C      1  0.4792100000000  0.4206560000000  0.4547610000000 1.0
C      1  0.4175890000000  0.4701820000000  0.4383050000000 1.0
C      1  0.4294270000000  0.5383560000000  0.4560580000000 1.0
C      1  0.4913940000000  0.5884670000000  0.4439610000000 1.0
C      1  0.5582140000000  0.5600830000000  0.4512210000000 1.0
C      1  0.5863890000000  0.4979250000000  0.4510820000000 1.0
C      1  0.5479050000000  0.4390690000000  0.4542810000000 1.0
C      1  0.4724010000000  0.5619990000000  0.4377320000000 1.0
C      1  0.5284650000000  0.5616200000000  0.4367020000000 1.0
C      1  0.5627770000000  0.5194250000000  0.4394050000000 1.0
C      1  0.5534480000000  0.4630680000000  0.4308410000000 1.0
C      1  0.5052400000000  0.4356040000000  0.4405770000000 1.0
C      1  0.4475700000000  0.4572840000000  0.4347000000000 1.0
C      1  0.4378040000000  0.5102250000000  0.4391960000000 1.0
C      1  0.5088500000000  0.4713650000000  0.5909810000000 1.0
C      1  0.4822790000000  0.4772050000000  0.5896910000000 1.0
C      1  0.4692280000000  0.5018250000000  0.5930980000000 1.0
C      1  0.4842500000000  0.5258070000000  0.5932850000000 1.0
C      1  0.5126220000000  0.5300010000000  0.5966300000000 1.0
C      1  0.5346850000000  0.5127770000000  0.5934020000000 1.0
C      1  0.5346800000000  0.4846990000000  0.5929630000000 1.0
C      1  0.4589700000000  0.4536140000000  0.4633760000000 1.0
C      1  0.4385320000000  0.5023860000000  0.4705650000000 1.0
C      1  0.4658310000000  0.5507740000000  0.4659120000000 1.0
C      1  0.5072420000000  0.5554810000000  0.4582580000000 1.0
C      1  0.5494140000000  0.5233540000000  0.4682850000000 1.0
C      1  0.5531400000000  0.4783030000000  0.4580500000000 1.0
C      1  0.5114460000000  0.4405710000000  0.4700130000000 1.0
C      1  0.5039700000000  0.4990990000000  0.5163730000000 1.0
END
