TITL C-2622954-8726-314 0.00336502126008007 125000 -818.71581446566 0 0 154 (C1) n - 1
REM
REM in /nfs/bkarasulu/CARBON/AIRSS/Generating-Clusters/AIREBO/with-SteepDescent/Higher-Symm/SD-CG/HFTN-CG
REM
REM
REM
REM
REM
REM ./C.cell (b20cbc046b6831c77cfcea5457e17084)
REM
REM compiler GCC version 9.2.1 20190827 (Red Hat 9.2.1-1)
REM options -cpp -mtune=generic -march=x86-64 -g -O0 -fpre-include=/usr/include/finclude/math-vector-fortran.h
REM seed 1990005823 -778047698 -1359756923 1265805934 -1324754856 -1704648575 -956514245 863671842 -1697605664 1109079835 -989113302 -1506008967 -1989618975 87097270 -852397242 -967784028 -2058016333 1665716520 -1397877400 -1765173283 -1751190244 106112416 567135890 -1603620109 709541213 2001578222 39579648 341658600 -1151346597 604262324 721661402 -245921183 1455153608
REM
CELL 1.54180   50.00000   50.00000   50.00000   90.00000   90.00000   90.00000
LATT -1
SFAC C  
C      1  0.5049230000000  0.5633010000000  0.4449860000000 1.0
C      1  0.5224770000000  0.4198610000000  0.4707290000000 1.0
C      1  0.5216010000000  0.5128400000000  0.5858310000000 1.0
C      1  0.4772940000000  0.5552900000000  0.4411940000000 1.0
C      1  0.4934370000000  0.4252410000000  0.4790800000000 1.0
C      1  0.4933850000000  0.5166420000000  0.5751690000000 1.0
C      1  0.4312160000000  0.5442350000000  0.4209320000000 1.0
C      1  0.4351030000000  0.4303210000000  0.4894290000000 1.0
C      1  0.4348240000000  0.5314820000000  0.5697950000000 1.0
C      1  0.5505360000000  0.5452710000000  0.4331960000000 1.0
C      1  0.5560930000000  0.4234540000000  0.4949470000000 1.0
C      1  0.5660210000000  0.5312510000000  0.5695100000000 1.0
C      1  0.4623030000000  0.4165730000000  0.4896900000000 1.0
C      1  0.4650370000000  0.5345680000000  0.5807770000000 1.0
C      1  0.4487170000000  0.5647460000000  0.4272810000000 1.0
C      1  0.5537750000000  0.4060910000000  0.4696980000000 1.0
C      1  0.5517510000000  0.5227240000000  0.5953870000000 1.0
C      1  0.5344980000000  0.5675920000000  0.4304200000000 1.0
C      1  0.4744660000000  0.4927350000000  0.4395990000000 1.0
C      1  0.4769620000000  0.4554350000000  0.5333120000000 1.0
C      1  0.4761950000000  0.5534010000000  0.5266600000000 1.0
C      1  0.5237710000000  0.4893460000000  0.4382870000000 1.0
C      1  0.5188630000000  0.4491970000000  0.5405100000000 1.0
C      1  0.5230280000000  0.5580950000000  0.5291190000000 1.0
C      1  0.4495290000000  0.4657000000000  0.5390070000000 1.0
C      1  0.4487390000000  0.5530900000000  0.5150770000000 1.0
C      1  0.4482630000000  0.4808620000000  0.4467750000000 1.0
C      1  0.5471700000000  0.4613420000000  0.5396820000000 1.0
C      1  0.5499970000000  0.5509120000000  0.5134370000000 1.0
C      1  0.5476790000000  0.4874360000000  0.4576610000000 1.0
C      1  0.4721950000000  0.4326200000000  0.5777940000000 1.0
C      1  0.4771990000000  0.6045040000000  0.5272030000000 1.0
C      1  0.4780020000000  0.4609170000000  0.3997990000000 1.0
C      1  0.5292160000000  0.4185350000000  0.5790600000000 1.0
C      1  0.5335880000000  0.6064630000000  0.5264300000000 1.0
C      1  0.5310510000000  0.4705250000000  0.3932270000000 1.0
C      1  0.4833610000000  0.4197440000000  0.5169970000000 1.0
C      1  0.4877030000000  0.5544840000000  0.5647570000000 1.0
C      1  0.4910640000000  0.5219670000000  0.4184500000000 1.0
C      1  0.5151770000000  0.4313020000000  0.5135810000000 1.0
C      1  0.5177350000000  0.5415870000000  0.5553140000000 1.0
C      1  0.5198940000000  0.5196840000000  0.4309920000000 1.0
C      1  0.4739180000000  0.4762900000000  0.4854860000000 1.0
C      1  0.4747450000000  0.5026220000000  0.5282210000000 1.0
C      1  0.4734450000000  0.5282640000000  0.4812280000000 1.0
C      1  0.5122490000000  0.4778360000000  0.4966720000000 1.0
C      1  0.5187810000000  0.4980540000000  0.5206370000000 1.0
C      1  0.5159910000000  0.5237070000000  0.4886500000000 1.0
C      1  0.5427950000000  0.4920330000000  0.5997880000000 1.0
C      1  0.5285280000000  0.5842780000000  0.4562620000000 1.0
C      1  0.5424090000000  0.4213780000000  0.4440450000000 1.0
C      1  0.4715530000000  0.5062760000000  0.5971200000000 1.0
C      1  0.4553210000000  0.5731850000000  0.4579360000000 1.0
C      1  0.4721140000000  0.4136140000000  0.4581240000000 1.0
C      1  0.5562330000000  0.4909780000000  0.4868710000000 1.0
C      1  0.5513410000000  0.4870230000000  0.5202950000000 1.0
C      1  0.5490820000000  0.5228160000000  0.4964520000000 1.0
C      1  0.4404920000000  0.4783620000000  0.4788300000000 1.0
C      1  0.4412960000000  0.4955650000000  0.5275350000000 1.0
C      1  0.4408220000000  0.5331600000000  0.4895620000000 1.0
C      1  0.5285410000000  0.3798540000000  0.5197020000000 1.0
C      1  0.5374940000000  0.5714160000000  0.5961710000000 1.0
C      1  0.5480780000000  0.5286250000000  0.3854230000000 1.0
C      1  0.4724070000000  0.3894700000000  0.5279670000000 1.0
C      1  0.4638240000000  0.5744470000000  0.5784560000000 1.0
C      1  0.4681200000000  0.5238370000000  0.3951760000000 1.0
C      1  0.4813360000000  0.5273660000000  0.5452250000000 1.0
C      1  0.4773430000000  0.5240850000000  0.4495930000000 1.0
C      1  0.4822170000000  0.4493610000000  0.5002720000000 1.0
C      1  0.5250380000000  0.5084560000000  0.5522840000000 1.0
C      1  0.5199950000000  0.5363720000000  0.4573360000000 1.0
C      1  0.5237360000000  0.4500560000000  0.4863270000000 1.0
C      1  0.4271100000000  0.4228790000000  0.5345070000000 1.0
C      1  0.4140540000000  0.5634900000000  0.5586830000000 1.0
C      1  0.4179410000000  0.5077180000000  0.4145910000000 1.0
C      1  0.5680030000000  0.4143660000000  0.5315990000000 1.0
C      1  0.5676290000000  0.5663770000000  0.5511250000000 1.0
C      1  0.5730450000000  0.5045690000000  0.4223810000000 1.0
C      1  0.4239630000000  0.6099360000000  0.4956320000000 1.0
C      1  0.4239790000000  0.4353320000000  0.4195630000000 1.0
C      1  0.4198710000000  0.4657210000000  0.5917320000000 1.0
C      1  0.5864440000000  0.5925470000000  0.4843550000000 1.0
C      1  0.5945910000000  0.4539820000000  0.4237390000000 1.0
C      1  0.5895860000000  0.4498190000000  0.5846930000000 1.0
C      1  0.4848310000000  0.4289870000000  0.5496850000000 1.0
C      1  0.4893650000000  0.5791970000000  0.5414610000000 1.0
C      1  0.4842820000000  0.4901810000000  0.4084580000000 1.0
C      1  0.5149650000000  0.4210570000000  0.5563770000000 1.0
C      1  0.5199950000000  0.5875830000000  0.5395140000000 1.0
C      1  0.5156940000000  0.4878340000000  0.4074870000000 1.0
C      1  0.4364300000000  0.4793680000000  0.5770300000000 1.0
C      1  0.4371360000000  0.5886570000000  0.4896890000000 1.0
C      1  0.4384290000000  0.4427220000000  0.4399100000000 1.0
C      1  0.5734920000000  0.4662280000000  0.5693780000000 1.0
C      1  0.5696920000000  0.5721910000000  0.4871570000000 1.0
C      1  0.5760650000000  0.4644010000000  0.4415740000000 1.0
C      1  0.4234610000000  0.5218760000000  0.5165340000000 1.0
C      1  0.4293180000000  0.5093620000000  0.4704300000000 1.0
C      1  0.4247380000000  0.4727890000000  0.5084620000000 1.0
C      1  0.5784220000000  0.5229320000000  0.5136720000000 1.0
C      1  0.5838250000000  0.5080790000000  0.4767530000000 1.0
C      1  0.5804680000000  0.4694730000000  0.5196350000000 1.0
C      1  0.5482690000000  0.4518250000000  0.4395550000000 1.0
C      1  0.5446070000000  0.4696870000000  0.5791550000000 1.0
C      1  0.5365540000000  0.5798190000000  0.4849870000000 1.0
C      1  0.4678980000000  0.4391040000000  0.4420670000000 1.0
C      1  0.4658050000000  0.4806880000000  0.5809510000000 1.0
C      1  0.4695960000000  0.5827670000000  0.4852460000000 1.0
C      1  0.4841520000000  0.4805350000000  0.5523230000000 1.0
C      1  0.4833090000000  0.5561240000000  0.4953680000000 1.0
C      1  0.4849080000000  0.4655030000000  0.4551910000000 1.0
C      1  0.5168670000000  0.4765130000000  0.5606870000000 1.0
C      1  0.5145270000000  0.5567090000000  0.4967830000000 1.0
C      1  0.5185500000000  0.4597020000000  0.4541100000000 1.0
C      1  0.5796820000000  0.4370680000000  0.5153090000000 1.0
C      1  0.5807150000000  0.5416450000000  0.5406610000000 1.0
C      1  0.5882970000000  0.5122140000000  0.4432900000000 1.0
C      1  0.4254760000000  0.4419320000000  0.5137080000000 1.0
C      1  0.4125660000000  0.5344300000000  0.5442130000000 1.0
C      1  0.4158590000000  0.5251130000000  0.4438060000000 1.0
C      1  0.4072210000000  0.5423950000000  0.4693280000000 1.0
C      1  0.4022610000000  0.4672200000000  0.4715490000000 1.0
C      1  0.4003250000000  0.5027400000000  0.5427480000000 1.0
C      1  0.5831470000000  0.5404830000000  0.4540650000000 1.0
C      1  0.5903920000000  0.4567430000000  0.4897250000000 1.0
C      1  0.5923250000000  0.5101880000000  0.5425250000000 1.0
C      1  0.4387940000000  0.5657750000000  0.5742860000000 1.0
C      1  0.4405830000000  0.5242600000000  0.3999700000000 1.0
C      1  0.4488040000000  0.4063800000000  0.5319100000000 1.0
C      1  0.5426290000000  0.5559460000000  0.5708050000000 1.0
C      1  0.5483800000000  0.5222530000000  0.4125450000000 1.0
C      1  0.5375300000000  0.4086450000000  0.5185030000000 1.0
C      1  0.5560600000000  0.4571580000000  0.4904500000000 1.0
C      1  0.5582980000000  0.5090460000000  0.5452500000000 1.0
C      1  0.5519930000000  0.5351850000000  0.4648000000000 1.0
C      1  0.4281240000000  0.4490450000000  0.4668260000000 1.0
C      1  0.4291490000000  0.5013450000000  0.5587660000000 1.0
C      1  0.4303690000000  0.5617670000000  0.4744490000000 1.0
C      1  0.5854920000000  0.4799730000000  0.5475840000000 1.0
C      1  0.5839550000000  0.5412140000000  0.4874530000000 1.0
C      1  0.5868060000000  0.4761080000000  0.4658320000000 1.0
C      1  0.3982390000000  0.4868140000000  0.5204590000000 1.0
C      1  0.4012770000000  0.5275210000000  0.4923210000000 1.0
C      1  0.4027850000000  0.4915770000000  0.4778730000000 1.0
C      1  0.5297420000000  0.6065360000000  0.4987410000000 1.0
C      1  0.5362640000000  0.4471790000000  0.4080840000000 1.0
C      1  0.5316770000000  0.4423980000000  0.5934770000000 1.0
C      1  0.4814050000000  0.6061860000000  0.5001430000000 1.0
C      1  0.4859150000000  0.4417650000000  0.4176470000000 1.0
C      1  0.4802290000000  0.4555570000000  0.5903960000000 1.0
C      1  0.5074850000000  0.4600250000000  0.5903280000000 1.0
C      1  0.5126050000000  0.4409480000000  0.4252660000000 1.0
C      1  0.5051610000000  0.6178310000000  0.4906630000000 1.0
C      1  0.4900760000000  0.5036080000000  0.4977360000000 1.0
END
