TITL C-2622968-4806-790 0.00414669507541361 125000 -777.177993484214 0 0 149 (C1) n - 1
REM
REM in /nfs/bkarasulu/CARBON/AIRSS/Generating-Clusters/AIREBO/with-SteepDescent/Higher-Symm/SD-CG/HFTN-CG
REM
REM
REM
REM
REM
REM ./C.cell (b20cbc046b6831c77cfcea5457e17084)
REM
REM compiler GCC version 9.2.1 20190827 (Red Hat 9.2.1-1)
REM options -cpp -mtune=generic -march=x86-64 -g -O0 -fpre-include=/usr/include/finclude/math-vector-fortran.h
REM seed -1293129467 -430240603 -1131427111 -1313613673 667644503 564587171 90740544 220813609 491652500 -329607696 -710101795 -2140626492 -2072099544 884493105 865852711 147361263 1616376281 2108400418 -2106526524 -50301708 -681733113 323651116 -1340046512 -576792956 624018730 1584077123 -1067858343 -1134570236 191825273 1819118725 1214439493 442383396 -1327064930
REM
CELL 1.54180   50.00000   50.00000   50.00000   90.00000   90.00000   90.00000
LATT -1
SFAC C  
C      1  0.5814020000000  0.4138170000000  0.4616210000000 1.0
C      1  0.5890050000000  0.5092570000000  0.4142370000000 1.0
C      1  0.5801000000000  0.5760260000000  0.4946600000000 1.0
C      1  0.5838610000000  0.5392370000000  0.5715570000000 1.0
C      1  0.5865970000000  0.4415150000000  0.5409640000000 1.0
C      1  0.4207990000000  0.4248450000000  0.4645280000000 1.0
C      1  0.4253650000000  0.5093660000000  0.4231720000000 1.0
C      1  0.4201960000000  0.5728370000000  0.4802560000000 1.0
C      1  0.4185790000000  0.5456760000000  0.5737430000000 1.0
C      1  0.4237550000000  0.4422110000000  0.5588650000000 1.0
C      1  0.5261790000000  0.5048110000000  0.4374990000000 1.0
C      1  0.5267460000000  0.5572420000000  0.4953350000000 1.0
C      1  0.5316820000000  0.5319210000000  0.5595330000000 1.0
C      1  0.5203590000000  0.4683130000000  0.5444620000000 1.0
C      1  0.5308810000000  0.4488270000000  0.4636690000000 1.0
C      1  0.4794860000000  0.5178670000000  0.4439790000000 1.0
C      1  0.4784910000000  0.5671330000000  0.4980280000000 1.0
C      1  0.4668470000000  0.5200490000000  0.5654490000000 1.0
C      1  0.4803870000000  0.4500670000000  0.5400300000000 1.0
C      1  0.4759780000000  0.4407870000000  0.4763600000000 1.0
C      1  0.5456250000000  0.5620200000000  0.5519820000000 1.0
C      1  0.5481000000000  0.4713150000000  0.5639190000000 1.0
C      1  0.5302450000000  0.4392830000000  0.4964490000000 1.0
C      1  0.5464340000000  0.4819490000000  0.4225130000000 1.0
C      1  0.5438940000000  0.5506040000000  0.4666900000000 1.0
C      1  0.4655340000000  0.5445250000000  0.5456000000000 1.0
C      1  0.4659940000000  0.4732740000000  0.5555600000000 1.0
C      1  0.4547230000000  0.4290690000000  0.5001760000000 1.0
C      1  0.4701120000000  0.4865950000000  0.4391770000000 1.0
C      1  0.4648960000000  0.5628500000000  0.4703730000000 1.0
C      1  0.4262640000000  0.5509890000000  0.5466270000000 1.0
C      1  0.4292750000000  0.4693160000000  0.5702870000000 1.0
C      1  0.4307490000000  0.4125630000000  0.4864530000000 1.0
C      1  0.4301730000000  0.4869140000000  0.4377960000000 1.0
C      1  0.4285840000000  0.5621480000000  0.4532220000000 1.0
C      1  0.5755660000000  0.5512420000000  0.5485120000000 1.0
C      1  0.5797900000000  0.4676620000000  0.5521520000000 1.0
C      1  0.5788320000000  0.4296220000000  0.4834230000000 1.0
C      1  0.5729070000000  0.4883350000000  0.4296230000000 1.0
C      1  0.5761760000000  0.5574310000000  0.4756530000000 1.0
C      1  0.5152990000000  0.4750860000000  0.5055500000000 1.0
C      1  0.5189500000000  0.4886270000000  0.4667460000000 1.0
C      1  0.5130060000000  0.5280930000000  0.4886500000000 1.0
C      1  0.5190860000000  0.5281360000000  0.5284590000000 1.0
C      1  0.5091680000000  0.4967030000000  0.5294360000000 1.0
C      1  0.4829400000000  0.4634620000000  0.5007360000000 1.0
C      1  0.4863660000000  0.4833750000000  0.4752270000000 1.0
C      1  0.4794950000000  0.5269650000000  0.4829130000000 1.0
C      1  0.4866960000000  0.5278070000000  0.5161640000000 1.0
C      1  0.4772880000000  0.4979200000000  0.5240310000000 1.0
C      1  0.5952810000000  0.4748910000000  0.4958510000000 1.0
C      1  0.5986470000000  0.4924030000000  0.4743250000000 1.0
C      1  0.6091790000000  0.5183570000000  0.4853010000000 1.0
C      1  0.6008490000000  0.5165820000000  0.5144630000000 1.0
C      1  0.5942210000000  0.4896020000000  0.5196190000000 1.0
C      1  0.4092420000000  0.4711510000000  0.4955140000000 1.0
C      1  0.3955180000000  0.4889460000000  0.4746830000000 1.0
C      1  0.3998260000000  0.5165010000000  0.4877840000000 1.0
C      1  0.4046940000000  0.5117260000000  0.5162550000000 1.0
C      1  0.4070900000000  0.4835470000000  0.5208270000000 1.0
C      1  0.5094660000000  0.4483370000000  0.4042300000000 1.0
C      1  0.5158840000000  0.5646630000000  0.4246770000000 1.0
C      1  0.5061680000000  0.5993490000000  0.5421730000000 1.0
C      1  0.5129330000000  0.4884650000000  0.6014550000000 1.0
C      1  0.5091230000000  0.3899720000000  0.5169880000000 1.0
C      1  0.4811640000000  0.4549050000000  0.4137340000000 1.0
C      1  0.4833520000000  0.5680510000000  0.4214710000000 1.0
C      1  0.4722930000000  0.5975770000000  0.5445490000000 1.0
C      1  0.4792760000000  0.4834050000000  0.6043790000000 1.0
C      1  0.4790530000000  0.3941030000000  0.5147900000000 1.0
C      1  0.4829950000000  0.4559560000000  0.4467120000000 1.0
C      1  0.4889950000000  0.5502480000000  0.4499550000000 1.0
C      1  0.4836200000000  0.5689060000000  0.5302850000000 1.0
C      1  0.4862060000000  0.4942390000000  0.5725280000000 1.0
C      1  0.4895550000000  0.4247280000000  0.5192970000000 1.0
C      1  0.5136020000000  0.4579520000000  0.4366060000000 1.0
C      1  0.5202040000000  0.5372360000000  0.4462730000000 1.0
C      1  0.5159140000000  0.5723250000000  0.5238590000000 1.0
C      1  0.5135450000000  0.5114300000000  0.5797140000000 1.0
C      1  0.5176230000000  0.4405100000000  0.5281050000000 1.0
C      1  0.4224650000000  0.5340730000000  0.4714720000000 1.0
C      1  0.4331330000000  0.5248190000000  0.5255710000000 1.0
C      1  0.4310390000000  0.4746710000000  0.5367360000000 1.0
C      1  0.4357750000000  0.4631210000000  0.4918270000000 1.0
C      1  0.4273750000000  0.4946740000000  0.4687400000000 1.0
C      1  0.5774070000000  0.5259240000000  0.4834560000000 1.0
C      1  0.5772200000000  0.5342850000000  0.5223950000000 1.0
C      1  0.5626720000000  0.4882330000000  0.5308100000000 1.0
C      1  0.5713630000000  0.4578280000000  0.4913690000000 1.0
C      1  0.5724730000000  0.4941210000000  0.4597600000000 1.0
C      1  0.4546090000000  0.5327730000000  0.4604590000000 1.0
C      1  0.4574090000000  0.5447370000000  0.5125220000000 1.0
C      1  0.4513990000000  0.5013050000000  0.5424150000000 1.0
C      1  0.4544530000000  0.4572300000000  0.5192330000000 1.0
C      1  0.4545570000000  0.4745080000000  0.4669680000000 1.0
C      1  0.5630820000000  0.5256830000000  0.4537460000000 1.0
C      1  0.5464100000000  0.5470570000000  0.5211480000000 1.0
C      1  0.5518660000000  0.5045750000000  0.5586080000000 1.0
C      1  0.5463730000000  0.4637930000000  0.5136470000000 1.0
C      1  0.5495310000000  0.4747900000000  0.4723340000000 1.0
C      1  0.5570000000000  0.5781240000000  0.5106010000000 1.0
C      1  0.5634940000000  0.5227700000000  0.5819450000000 1.0
C      1  0.5567580000000  0.4397750000000  0.5354050000000 1.0
C      1  0.5599890000000  0.4113070000000  0.4445790000000 1.0
C      1  0.5663760000000  0.5273060000000  0.4234940000000 1.0
C      1  0.4392140000000  0.5718250000000  0.5010330000000 1.0
C      1  0.4387370000000  0.5474850000000  0.5932430000000 1.0
C      1  0.4443000000000  0.4332490000000  0.5417230000000 1.0
C      1  0.4420280000000  0.4471880000000  0.4510510000000 1.0
C      1  0.4449430000000  0.5289560000000  0.4278670000000 1.0
C      1  0.5422370000000  0.4381470000000  0.5611940000000 1.0
C      1  0.5348490000000  0.4191390000000  0.4534620000000 1.0
C      1  0.5424070000000  0.5201280000000  0.4118130000000 1.0
C      1  0.5345340000000  0.5902970000000  0.4935530000000 1.0
C      1  0.5442970000000  0.5348440000000  0.5973590000000 1.0
C      1  0.4687680000000  0.4222130000000  0.5556890000000 1.0
C      1  0.4591000000000  0.4199860000000  0.4550790000000 1.0
C      1  0.4704760000000  0.5217420000000  0.4125400000000 1.0
C      1  0.4599060000000  0.5953350000000  0.4974340000000 1.0
C      1  0.4657010000000  0.5432970000000  0.5855520000000 1.0
C      1  0.4501100000000  0.4630960000000  0.4248990000000 1.0
C      1  0.4553270000000  0.5684470000000  0.4388200000000 1.0
C      1  0.4483440000000  0.5735900000000  0.5479820000000 1.0
C      1  0.4539990000000  0.4759220000000  0.5872640000000 1.0
C      1  0.4519530000000  0.3957210000000  0.5048390000000 1.0
C      1  0.5361210000000  0.4629730000000  0.4040790000000 1.0
C      1  0.5424610000000  0.5693830000000  0.4383700000000 1.0
C      1  0.5326270000000  0.5913100000000  0.5545750000000 1.0
C      1  0.5362690000000  0.4724320000000  0.5958010000000 1.0
C      1  0.5265420000000  0.4106750000000  0.5144480000000 1.0
C      1  0.4829280000000  0.4048390000000  0.4602500000000 1.0
C      1  0.4879140000000  0.5064340000000  0.3982470000000 1.0
C      1  0.4819080000000  0.6019330000000  0.4786530000000 1.0
C      1  0.4890800000000  0.5581310000000  0.5843820000000 1.0
C      1  0.4873860000000  0.4330920000000  0.5754480000000 1.0
C      1  0.5138810000000  0.4041850000000  0.4612830000000 1.0
C      1  0.5181410000000  0.5119930000000  0.3990510000000 1.0
C      1  0.5144810000000  0.6019590000000  0.4789960000000 1.0
C      1  0.5215570000000  0.5534900000000  0.5838010000000 1.0
C      1  0.5180290000000  0.4342210000000  0.5725300000000 1.0
C      1  0.5014890000000  0.4638920000000  0.5710340000000 1.0
C      1  0.4975430000000  0.4171300000000  0.4878250000000 1.0
C      1  0.5057300000000  0.4855630000000  0.4183280000000 1.0
C      1  0.4986130000000  0.5811990000000  0.4602810000000 1.0
C      1  0.5058010000000  0.5617870000000  0.5548340000000 1.0
C      1  0.5303460000000  0.5034350000000  0.4942530000000 1.0
C      1  0.4674840000000  0.4998930000000  0.4950480000000 1.0
C      1  0.5575240000000  0.5115180000000  0.5065670000000 1.0
C      1  0.4392000000000  0.5145320000000  0.4937110000000 1.0
END
