TITL C-2622964-2985-72 -983.045072118134 125000 -974.789693110381 0 0 184 (C1) n - 1
REM
REM in /nfs/bkarasulu/CARBON/AIRSS/Generating-Clusters/AIREBO/with-SteepDescent/Higher-Symm/SD-CG/HFTN-CG
REM
REM
REM
REM
REM
REM ./C.cell (b20cbc046b6831c77cfcea5457e17084)
REM
REM compiler GCC version 9.2.1 20190827 (Red Hat 9.2.1-1)
REM options -cpp -mtune=generic -march=x86-64 -g -O0 -fpre-include=/usr/include/finclude/math-vector-fortran.h
REM seed -1577393054 762058876 -544938167 2000066047 -1422159824 -505117209 -527417097 -1919481298 855135195 1587947005 2114117531 828197225 1091083961 -902062718 1572529139 1683937579 -642917102 439567073 1868150230 -1620222326 2091007738 205816763 -1245098707 -398275892 -89183586 50132877 -553530261 -79824431 -587036395 851061009 -1010513995 -858546849 396084863
REM
CELL 1.54180   50.00000   50.00000   50.00000   90.00000   90.00000   90.00000
LATT -1
SFAC C  
C      1  0.4507280000000  0.4017800000000  0.5008680000000 1.0
C      1  0.5511980000000  0.5916160000000  0.4975420000000 1.0
C      1  0.5580690000000  0.4716710000000  0.4195400000000 1.0
C      1  0.4487970000000  0.5343160000000  0.5801040000000 1.0
C      1  0.4717590000000  0.5069730000000  0.5430290000000 1.0
C      1  0.5282840000000  0.5078470000000  0.4457090000000 1.0
C      1  0.5211000000000  0.4543140000000  0.5150160000000 1.0
C      1  0.4678140000000  0.5461970000000  0.4898090000000 1.0
C      1  0.4755830000000  0.4543270000000  0.5559350000000 1.0
C      1  0.5127710000000  0.5380960000000  0.4465820000000 1.0
C      1  0.4601200000000  0.5765560000000  0.5585790000000 1.0
C      1  0.5351600000000  0.4282430000000  0.4413220000000 1.0
C      1  0.5783090000000  0.4850900000000  0.4638060000000 1.0
C      1  0.4150590000000  0.5070960000000  0.5483740000000 1.0
C      1  0.5270400000000  0.5488780000000  0.4955850000000 1.0
C      1  0.4717240000000  0.4465340000000  0.4988040000000 1.0
C      1  0.5487060000000  0.5253960000000  0.4849690000000 1.0
C      1  0.4509160000000  0.4673140000000  0.5157920000000 1.0
C      1  0.5314600000000  0.5183880000000  0.5678570000000 1.0
C      1  0.4760580000000  0.4832740000000  0.4299290000000 1.0
C      1  0.5366360000000  0.4621000000000  0.4441430000000 1.0
C      1  0.4622520000000  0.5445780000000  0.5503450000000 1.0
C      1  0.5249950000000  0.4774850000000  0.4926290000000 1.0
C      1  0.4671360000000  0.5205200000000  0.5121570000000 1.0
C      1  0.5153560000000  0.3958090000000  0.5347750000000 1.0
C      1  0.4790180000000  0.6102120000000  0.4677170000000 1.0
C      1  0.4617470000000  0.4976410000000  0.5718040000000 1.0
C      1  0.5491630000000  0.5044540000000  0.4211500000000 1.0
C      1  0.4575860000000  0.6002960000000  0.4843110000000 1.0
C      1  0.5390990000000  0.4086530000000  0.5285980000000 1.0
C      1  0.5236130000000  0.4510000000000  0.5633720000000 1.0
C      1  0.4679350000000  0.5630760000000  0.4374290000000 1.0
C      1  0.5622650000000  0.5094440000000  0.5228630000000 1.0
C      1  0.4364040000000  0.4908060000000  0.4752140000000 1.0
C      1  0.4054380000000  0.4814200000000  0.5014350000000 1.0
C      1  0.5950550000000  0.5177290000000  0.5015960000000 1.0
C      1  0.5087300000000  0.4871230000000  0.4306460000000 1.0
C      1  0.4986690000000  0.5104340000000  0.5636510000000 1.0
C      1  0.4489020000000  0.4761550000000  0.4121950000000 1.0
C      1  0.5575970000000  0.5293740000000  0.5850580000000 1.0
C      1  0.6125990000000  0.4758540000000  0.5250880000000 1.0
C      1  0.3884020000000  0.5271410000000  0.4860020000000 1.0
C      1  0.5405920000000  0.5339810000000  0.5231190000000 1.0
C      1  0.4611390000000  0.4674780000000  0.4741820000000 1.0
C      1  0.4297750000000  0.4360930000000  0.4746680000000 1.0
C      1  0.5723040000000  0.5636090000000  0.5242450000000 1.0
C      1  0.5132820000000  0.5769880000000  0.4978000000000 1.0
C      1  0.4805070000000  0.4151720000000  0.4907050000000 1.0
C      1  0.4224710000000  0.4647360000000  0.4604680000000 1.0
C      1  0.5805050000000  0.5340640000000  0.5359290000000 1.0
C      1  0.4925010000000  0.5705280000000  0.5197820000000 1.0
C      1  0.5066410000000  0.4239020000000  0.4747380000000 1.0
C      1  0.4300040000000  0.5062300000000  0.5760170000000 1.0
C      1  0.5861060000000  0.4868750000000  0.4313450000000 1.0
C      1  0.4888350000000  0.4586810000000  0.5248660000000 1.0
C      1  0.4994430000000  0.5427450000000  0.4776380000000 1.0
C      1  0.3944730000000  0.5423860000000  0.5129880000000 1.0
C      1  0.6011870000000  0.4558620000000  0.5029800000000 1.0
C      1  0.5662850000000  0.5727580000000  0.4734090000000 1.0
C      1  0.4364760000000  0.4207910000000  0.5250130000000 1.0
C      1  0.5531710000000  0.4057060000000  0.5002080000000 1.0
C      1  0.4341460000000  0.5890740000000  0.5040540000000 1.0
C      1  0.5030180000000  0.4895870000000  0.5237020000000 1.0
C      1  0.4881900000000  0.5123220000000  0.4792090000000 1.0
C      1  0.4921160000000  0.5422830000000  0.5345050000000 1.0
C      1  0.5094100000000  0.4515650000000  0.4610450000000 1.0
C      1  0.5179620000000  0.3965940000000  0.4579370000000 1.0
C      1  0.4812760000000  0.5988750000000  0.5335930000000 1.0
C      1  0.4202000000000  0.5467000000000  0.5475390000000 1.0
C      1  0.5705020000000  0.4463950000000  0.4583910000000 1.0
C      1  0.4961510000000  0.5714730000000  0.4218100000000 1.0
C      1  0.5058660000000  0.4287150000000  0.5769730000000 1.0
C      1  0.5895800000000  0.4311510000000  0.5156730000000 1.0
C      1  0.4350010000000  0.5518740000000  0.4804850000000 1.0
C      1  0.4295770000000  0.4302700000000  0.5513610000000 1.0
C      1  0.5808320000000  0.5643210000000  0.4507160000000 1.0
C      1  0.5658860000000  0.5052980000000  0.6066960000000 1.0
C      1  0.4396700000000  0.5033050000000  0.3954240000000 1.0
C      1  0.4345340000000  0.5794290000000  0.4605690000000 1.0
C      1  0.5715870000000  0.4344560000000  0.5395680000000 1.0
C      1  0.4622100000000  0.5718570000000  0.5114080000000 1.0
C      1  0.5292140000000  0.4295170000000  0.4962070000000 1.0
C      1  0.4654820000000  0.5123380000000  0.4157970000000 1.0
C      1  0.5400400000000  0.4941400000000  0.5903530000000 1.0
C      1  0.5559090000000  0.4518920000000  0.5717780000000 1.0
C      1  0.4385640000000  0.5565690000000  0.4282110000000 1.0
C      1  0.4873890000000  0.4879690000000  0.6058380000000 1.0
C      1  0.5155230000000  0.5128450000000  0.3950690000000 1.0
C      1  0.5191760000000  0.5099910000000  0.4918080000000 1.0
C      1  0.4784360000000  0.4900040000000  0.5022740000000 1.0
C      1  0.4098630000000  0.5333490000000  0.4666790000000 1.0
C      1  0.5976140000000  0.4758290000000  0.5486390000000 1.0
C      1  0.5055110000000  0.4001660000000  0.5609160000000 1.0
C      1  0.4903340000000  0.5959480000000  0.4416050000000 1.0
C      1  0.5738890000000  0.4961890000000  0.5504550000000 1.0
C      1  0.4219570000000  0.5097240000000  0.4515970000000 1.0
C      1  0.4242990000000  0.4683480000000  0.4304560000000 1.0
C      1  0.5822320000000  0.5320250000000  0.5657210000000 1.0
C      1  0.5675230000000  0.5502960000000  0.4944290000000 1.0
C      1  0.4308100000000  0.4443070000000  0.5062990000000 1.0
C      1  0.5546400000000  0.5857150000000  0.5320960000000 1.0
C      1  0.4470650000000  0.4137020000000  0.4689640000000 1.0
C      1  0.5885720000000  0.4516640000000  0.5623290000000 1.0
C      1  0.4110970000000  0.5580430000000  0.4490480000000 1.0
C      1  0.5000440000000  0.5182000000000  0.5967560000000 1.0
C      1  0.5058600000000  0.4803250000000  0.3974450000000 1.0
C      1  0.5568790000000  0.4877970000000  0.4984560000000 1.0
C      1  0.4368600000000  0.5113670000000  0.4996720000000 1.0
C      1  0.5731910000000  0.4226100000000  0.5716110000000 1.0
C      1  0.4204460000000  0.5852730000000  0.4301790000000 1.0
C      1  0.5027780000000  0.4543740000000  0.4279870000000 1.0
C      1  0.4981190000000  0.5443190000000  0.5665890000000 1.0
C      1  0.4648760000000  0.4239460000000  0.4034450000000 1.0
C      1  0.5325960000000  0.5785830000000  0.5924910000000 1.0
C      1  0.5384340000000  0.5477700000000  0.5521530000000 1.0
C      1  0.4637860000000  0.4548600000000  0.4440330000000 1.0
C      1  0.5480440000000  0.4614590000000  0.4745360000000 1.0
C      1  0.4405040000000  0.5318300000000  0.5300220000000 1.0
C      1  0.4482490000000  0.5943020000000  0.5338040000000 1.0
C      1  0.5443600000000  0.4127280000000  0.4697910000000 1.0
C      1  0.4944820000000  0.4285740000000  0.4080460000000 1.0
C      1  0.5040010000000  0.5708860000000  0.5869870000000 1.0
C      1  0.4738110000000  0.3931270000000  0.4656800000000 1.0
C      1  0.5261870000000  0.5963100000000  0.5194250000000 1.0
C      1  0.4123210000000  0.5654760000000  0.5018590000000 1.0
C      1  0.5833540000000  0.4080500000000  0.5022910000000 1.0
C      1  0.4891460000000  0.5493230000000  0.6050470000000 1.0
C      1  0.5103270000000  0.4489980000000  0.3893010000000 1.0
C      1  0.5015930000000  0.5498930000000  0.4004150000000 1.0
C      1  0.5022400000000  0.4523650000000  0.5970850000000 1.0
C      1  0.5649540000000  0.4390430000000  0.4289780000000 1.0
C      1  0.4323370000000  0.5611580000000  0.5701550000000 1.0
C      1  0.5898950000000  0.4864920000000  0.4939740000000 1.0
C      1  0.4087560000000  0.5116230000000  0.5166170000000 1.0
C      1  0.4676670000000  0.4122730000000  0.5284300000000 1.0
C      1  0.5372540000000  0.5861540000000  0.4671500000000 1.0
C      1  0.4408100000000  0.4755490000000  0.5869580000000 1.0
C      1  0.5581510000000  0.5345240000000  0.4140800000000 1.0
C      1  0.5061230000000  0.5926720000000  0.4713040000000 1.0
C      1  0.4948280000000  0.3977100000000  0.5161230000000 1.0
C      1  0.4739250000000  0.4827300000000  0.3901300000000 1.0
C      1  0.5307630000000  0.5296800000000  0.6059610000000 1.0
C      1  0.4129230000000  0.5065230000000  0.4028570000000 1.0
C      1  0.5918600000000  0.4981520000000  0.6002860000000 1.0
C      1  0.4087900000000  0.4943410000000  0.4285250000000 1.0
C      1  0.5971890000000  0.5061090000000  0.5732510000000 1.0
C      1  0.5111430000000  0.5224830000000  0.5208560000000 1.0
C      1  0.4945580000000  0.4722080000000  0.4783990000000 1.0
C      1  0.5227750000000  0.5704000000000  0.4430460000000 1.0
C      1  0.4792810000000  0.4207600000000  0.5570850000000 1.0
C      1  0.4494910000000  0.4368440000000  0.4189890000000 1.0
C      1  0.5496030000000  0.5683580000000  0.5767980000000 1.0
C      1  0.4935890000000  0.5832730000000  0.5601960000000 1.0
C      1  0.5036840000000  0.4157890000000  0.4357600000000 1.0
C      1  0.6053790000000  0.5139910000000  0.4694100000000 1.0
C      1  0.3976200000000  0.4749110000000  0.5323080000000 1.0
C      1  0.4831080000000  0.5356850000000  0.4337770000000 1.0
C      1  0.5007480000000  0.4765540000000  0.5613130000000 1.0
C      1  0.4708330000000  0.5154840000000  0.4552800000000 1.0
C      1  0.5265980000000  0.4861960000000  0.5450450000000 1.0
C      1  0.4419770000000  0.4615950000000  0.5559730000000 1.0
C      1  0.5748750000000  0.5362960000000  0.4395350000000 1.0
C      1  0.5247800000000  0.5785880000000  0.5472970000000 1.0
C      1  0.4725150000000  0.4222150000000  0.4480720000000 1.0
C      1  0.4669450000000  0.5720910000000  0.4677700000000 1.0
C      1  0.5395120000000  0.4397630000000  0.5365380000000 1.0
C      1  0.4444680000000  0.5264510000000  0.4384980000000 1.0
C      1  0.5499220000000  0.4822230000000  0.5626130000000 1.0
C      1  0.4663700000000  0.5149310000000  0.6001730000000 1.0
C      1  0.5390560000000  0.4869880000000  0.3942920000000 1.0
C      1  0.3932820000000  0.5331130000000  0.5457150000000 1.0
C      1  0.5961350000000  0.4565950000000  0.4693830000000 1.0
C      1  0.5593980000000  0.5129210000000  0.4587790000000 1.0
C      1  0.4426340000000  0.4902250000000  0.5376450000000 1.0
C      1  0.5265630000000  0.5367910000000  0.4155050000000 1.0
C      1  0.4724740000000  0.4632720000000  0.5886020000000 1.0
C      1  0.4084270000000  0.4662570000000  0.5529600000000 1.0
C      1  0.5962950000000  0.5141660000000  0.4435780000000 1.0
C      1  0.6202010000000  0.5003120000000  0.5158120000000 1.0
C      1  0.3820190000000  0.5006840000000  0.4890250000000 1.0
C      1  0.4849470000000  0.5246360000000  0.3913560000000 1.0
C      1  0.5198520000000  0.4780470000000  0.6072250000000 1.0
C      1  0.5984050000000  0.5476410000000  0.5096380000000 1.0
C      1  0.4040210000000  0.4538700000000  0.4872140000000 1.0
END
