TITL C-2622961-1971-329 -9.59826572523719e-06 125000 -23.7315403691255 0 0 7 (Cs) n - 1
REM
REM in /nfs/bkarasulu/CARBON/AIRSS/Generating-Clusters/AIREBO/with-SteepDescent/Higher-Symm/SD-CG/HFTN-CG
REM
REM
REM
REM
REM
REM ./C.cell (b20cbc046b6831c77cfcea5457e17084)
REM
REM compiler GCC version 9.2.1 20190827 (Red Hat 9.2.1-1)
REM options -cpp -mtune=generic -march=x86-64 -g -O0 -fpre-include=/usr/include/finclude/math-vector-fortran.h
REM seed 899385311 1421583066 -426549311 -53352247 -571913300 373069511 -1192690269 1713734122 1382147096 -2119900053 1547654637 -653723530 444518822 1365271249 -953160412 516931822 1849814910 -1564351936 -1260150018 -1491596632 270821467 -483828554 -1365128429 1697864979 -895229145 1380329202 725638336 -924454685 -1030511970 284994929 -845854322 -1811891389 1895237593
REM
CELL 1.54180   50.00000   50.00000   50.00000   90.00000   90.00000   90.00000
LATT -1
SFAC C  
C      1  0.4769500000000  0.5181350000000  0.4852330000000 1.0
C      1  0.5398720000000  0.5257090000000  0.4744280000000 1.0
C      1  0.5202550000000  0.5114890000000  0.4824410000000 1.0
C      1  0.5122750000000  0.4683290000000  0.4833300000000 1.0
C      1  0.4687320000000  0.4747280000000  0.4881810000000 1.0
C      1  0.4941180000000  0.4925440000000  0.4931180000000 1.0
C      1  0.4969020000000  0.4933790000000  0.5229290000000 1.0
END
