TITL C-2622960-5345-777 0.0019627881166578 125000 -596.501970574477 0 0 109 (C1) n - 1
REM
REM in /nfs/bkarasulu/CARBON/AIRSS/Generating-Clusters/AIREBO/with-SteepDescent/Higher-Symm/SD-CG/HFTN-CG
REM
REM
REM
REM
REM
REM ./C.cell (b20cbc046b6831c77cfcea5457e17084)
REM
REM compiler GCC version 9.2.1 20190827 (Red Hat 9.2.1-1)
REM options -cpp -mtune=generic -march=x86-64 -g -O0 -fpre-include=/usr/include/finclude/math-vector-fortran.h
REM seed -1621303922 -1471157454 839911424 2096033884 1241704784 198300909 909381083 -355465526 245307877 1105253313 367313776 -1612152860 -1856797558 -1037983112 886226744 -847634255 667385293 -1469938510 -1028208304 1586466300 -1977846091 -433282019 -678642942 740147660 -1431664420 458489497 1933247275 405060128 1519491017 2115981461 -2116095518 -1489034912 -943504784
REM
CELL 1.54180   50.00000   50.00000   50.00000   90.00000   90.00000   90.00000
LATT -1
SFAC C  
C      1  0.5153970000000  0.4948660000000  0.5832920000000 1.0
C      1  0.5135390000000  0.5058520000000  0.4168250000000 1.0
C      1  0.4830900000000  0.4979600000000  0.5916000000000 1.0
C      1  0.4812890000000  0.5018080000000  0.4073970000000 1.0
C      1  0.4765720000000  0.4829500000000  0.5131080000000 1.0
C      1  0.4756740000000  0.5172480000000  0.4859380000000 1.0
C      1  0.5255980000000  0.4831320000000  0.5089060000000 1.0
C      1  0.5256480000000  0.5208690000000  0.4887860000000 1.0
C      1  0.5647000000000  0.5276820000000  0.4553170000000 1.0
C      1  0.5528140000000  0.4740660000000  0.5493910000000 1.0
C      1  0.4336580000000  0.5248610000000  0.4427850000000 1.0
C      1  0.4361560000000  0.4745580000000  0.5578830000000 1.0
C      1  0.4694560000000  0.5593530000000  0.5536740000000 1.0
C      1  0.4695490000000  0.4410800000000  0.4463340000000 1.0
C      1  0.5264070000000  0.5599280000000  0.5537550000000 1.0
C      1  0.5271510000000  0.4405550000000  0.4459650000000 1.0
C      1  0.4824810000000  0.4572110000000  0.4261630000000 1.0
C      1  0.4828440000000  0.5432700000000  0.5735220000000 1.0
C      1  0.5147150000000  0.4580320000000  0.4272730000000 1.0
C      1  0.5139030000000  0.5434670000000  0.5729280000000 1.0
C      1  0.4457450000000  0.4930550000000  0.4417280000000 1.0
C      1  0.4475020000000  0.5066420000000  0.5583490000000 1.0
C      1  0.5525930000000  0.4976660000000  0.4447500000000 1.0
C      1  0.5510090000000  0.5074350000000  0.5557630000000 1.0
C      1  0.5325100000000  0.4815820000000  0.4224830000000 1.0
C      1  0.5315610000000  0.5212850000000  0.5790240000000 1.0
C      1  0.4665620000000  0.4805000000000  0.4179320000000 1.0
C      1  0.4681460000000  0.5192740000000  0.5814620000000 1.0
C      1  0.5530720000000  0.4325510000000  0.4861330000000 1.0
C      1  0.5548230000000  0.5689140000000  0.5156780000000 1.0
C      1  0.4461120000000  0.4253870000000  0.4923800000000 1.0
C      1  0.4482680000000  0.5743560000000  0.5061970000000 1.0
C      1  0.4758440000000  0.4426740000000  0.5303030000000 1.0
C      1  0.4726280000000  0.5570060000000  0.4691150000000 1.0
C      1  0.5197830000000  0.4397550000000  0.5273910000000 1.0
C      1  0.5247650000000  0.5581670000000  0.4721380000000 1.0
C      1  0.4453750000000  0.4476830000000  0.4675890000000 1.0
C      1  0.4460510000000  0.5525550000000  0.5323050000000 1.0
C      1  0.5480330000000  0.4590440000000  0.4654100000000 1.0
C      1  0.5479950000000  0.5416770000000  0.5348560000000 1.0
C      1  0.5312180000000  0.5850620000000  0.5152200000000 1.0
C      1  0.5310460000000  0.4148680000000  0.4847440000000 1.0
C      1  0.4721420000000  0.5924630000000  0.5066450000000 1.0
C      1  0.4694730000000  0.4093910000000  0.4892930000000 1.0
C      1  0.4791470000000  0.5055600000000  0.5458450000000 1.0
C      1  0.4776780000000  0.4940870000000  0.4534650000000 1.0
C      1  0.5117350000000  0.5018870000000  0.5507290000000 1.0
C      1  0.5101090000000  0.4999190000000  0.4493700000000 1.0
C      1  0.4310010000000  0.4815010000000  0.5293870000000 1.0
C      1  0.4296640000000  0.5181870000000  0.4715790000000 1.0
C      1  0.5832330000000  0.4669400000000  0.5385240000000 1.0
C      1  0.5938780000000  0.5250160000000  0.4604330000000 1.0
C      1  0.4914830000000  0.5964720000000  0.4855110000000 1.0
C      1  0.4851620000000  0.3990690000000  0.5097100000000 1.0
C      1  0.5188180000000  0.5863080000000  0.4902920000000 1.0
C      1  0.5169270000000  0.4102730000000  0.5106810000000 1.0
C      1  0.5836710000000  0.5332240000000  0.4900650000000 1.0
C      1  0.5850220000000  0.4655820000000  0.5061190000000 1.0
C      1  0.4234760000000  0.5384710000000  0.4954830000000 1.0
C      1  0.4248160000000  0.4611710000000  0.5057860000000 1.0
C      1  0.5133640000000  0.5481660000000  0.5027070000000 1.0
C      1  0.5141490000000  0.4535970000000  0.4966950000000 1.0
C      1  0.4824560000000  0.5547750000000  0.4994730000000 1.0
C      1  0.4830670000000  0.4453950000000  0.4997320000000 1.0
C      1  0.4270500000000  0.5249350000000  0.5381850000000 1.0
C      1  0.4258030000000  0.4750650000000  0.4626940000000 1.0
C      1  0.5764150000000  0.5236960000000  0.5399530000000 1.0
C      1  0.5755410000000  0.4785970000000  0.4610690000000 1.0
C      1  0.4822150000000  0.5299040000000  0.4213750000000 1.0
C      1  0.4851620000000  0.4698090000000  0.5771730000000 1.0
C      1  0.5085770000000  0.5386950000000  0.4088240000000 1.0
C      1  0.5111940000000  0.4618470000000  0.5909310000000 1.0
C      1  0.5548130000000  0.5510160000000  0.4689020000000 1.0
C      1  0.5508260000000  0.4443660000000  0.5329420000000 1.0
C      1  0.4435770000000  0.5516860000000  0.4549450000000 1.0
C      1  0.4472790000000  0.4486880000000  0.5452620000000 1.0
C      1  0.5145510000000  0.4218250000000  0.4629260000000 1.0
C      1  0.5140090000000  0.5784020000000  0.5367760000000 1.0
C      1  0.4862610000000  0.4286820000000  0.4702760000000 1.0
C      1  0.4853110000000  0.5716880000000  0.5288470000000 1.0
C      1  0.5539950000000  0.5279780000000  0.5043160000000 1.0
C      1  0.5543750000000  0.4749080000000  0.4947200000000 1.0
C      1  0.4534220000000  0.5292140000000  0.5087000000000 1.0
C      1  0.4537770000000  0.4709880000000  0.4908830000000 1.0
C      1  0.4821200000000  0.5279120000000  0.4542990000000 1.0
C      1  0.4859130000000  0.4721380000000  0.5439680000000 1.0
C      1  0.5143270000000  0.5292860000000  0.4599930000000 1.0
C      1  0.5195960000000  0.4715920000000  0.5393280000000 1.0
C      1  0.4138530000000  0.5114600000000  0.5096580000000 1.0
C      1  0.4138350000000  0.4879410000000  0.4919880000000 1.0
C      1  0.5895450000000  0.5138990000000  0.5155190000000 1.0
C      1  0.5891780000000  0.4929060000000  0.4887610000000 1.0
C      1  0.5108550000000  0.5766400000000  0.4472100000000 1.0
C      1  0.5143580000000  0.4123370000000  0.5467740000000 1.0
C      1  0.4862780000000  0.5826530000000  0.4601880000000 1.0
C      1  0.4861050000000  0.4145540000000  0.5354540000000 1.0
C      1  0.4841210000000  0.4693370000000  0.4756110000000 1.0
C      1  0.4840130000000  0.5307220000000  0.5234860000000 1.0
C      1  0.5172130000000  0.4730060000000  0.4689080000000 1.0
C      1  0.5169280000000  0.5285990000000  0.5302900000000 1.0
C      1  0.5466870000000  0.5034670000000  0.5230980000000 1.0
C      1  0.5457080000000  0.4995410000000  0.4763660000000 1.0
C      1  0.4503190000000  0.4985850000000  0.5195430000000 1.0
C      1  0.4496150000000  0.5013240000000  0.4804410000000 1.0
C      1  0.5695420000000  0.5627880000000  0.4925020000000 1.0
C      1  0.5663400000000  0.4400300000000  0.5098580000000 1.0
C      1  0.4356020000000  0.5637670000000  0.4823370000000 1.0
C      1  0.4382120000000  0.4360940000000  0.5184970000000 1.0
C      1  0.5003960000000  0.5016930000000  0.5005770000000 1.0
END
