TITL C-2622953-3516-553 -0.11232947781278 125000 -297.413858967222 0 0 55 (C1) n - 1
REM
REM in /nfs/bkarasulu/CARBON/AIRSS/Generating-Clusters/AIREBO/with-SteepDescent/Higher-Symm/SD-CG/HFTN-CG
REM
REM
REM
REM
REM
REM ./C.cell (b20cbc046b6831c77cfcea5457e17084)
REM
REM compiler GCC version 9.2.1 20190827 (Red Hat 9.2.1-1)
REM options -cpp -mtune=generic -march=x86-64 -g -O0 -fpre-include=/usr/include/finclude/math-vector-fortran.h
REM seed -2140721616 -906983699 754403490 1894841590 660844496 -1206962969 672519568 -754366062 -260228318 -1102105934 436692801 376837579 1316085905 -505056355 -2116347157 -220791238 977864235 -320398855 168725448 -528115887 -741605421 1321231127 -454541519 1726791198 -1817513421 -2003435782 -730389566 166926491 1570563333 670707972 1545803532 -837746828 2139105754
REM
CELL 1.54180   50.00000   50.00000   50.00000   90.00000   90.00000   90.00000
LATT -1
SFAC C  
C      1  0.4749270000000  0.4881320000000  0.5122310000000 1.0
C      1  0.5014660000000  0.4700810000000  0.5118150000000 1.0
C      1  0.5281130000000  0.4884230000000  0.5133600000000 1.0
C      1  0.5175180000000  0.5185810000000  0.5123570000000 1.0
C      1  0.4854320000000  0.5178810000000  0.5125950000000 1.0
C      1  0.5229710000000  0.4962710000000  0.4526700000000 1.0
C      1  0.5112440000000  0.5228450000000  0.4593500000000 1.0
C      1  0.4806650000000  0.5198630000000  0.4612750000000 1.0
C      1  0.4757610000000  0.4890650000000  0.4605940000000 1.0
C      1  0.5027400000000  0.4736500000000  0.4589800000000 1.0
C      1  0.5148450000000  0.5176680000000  0.5671400000000 1.0
C      1  0.4846780000000  0.5170770000000  0.5668180000000 1.0
C      1  0.4757890000000  0.4881480000000  0.5665920000000 1.0
C      1  0.5004650000000  0.4707170000000  0.5666820000000 1.0
C      1  0.5244040000000  0.4889870000000  0.5678890000000 1.0
C      1  0.5192630000000  0.4450210000000  0.4517590000000 1.0
C      1  0.5516120000000  0.4984960000000  0.4346660000000 1.0
C      1  0.5201690000000  0.5536600000000  0.4531860000000 1.0
C      1  0.4614670000000  0.5325040000000  0.4403540000000 1.0
C      1  0.4506550000000  0.4701930000000  0.4511290000000 1.0
C      1  0.4603810000000  0.4824150000000  0.5378030000000 1.0
C      1  0.5017520000000  0.4543490000000  0.5375440000000 1.0
C      1  0.5414560000000  0.4839980000000  0.5401500000000 1.0
C      1  0.5252080000000  0.5313500000000  0.5385240000000 1.0
C      1  0.4752180000000  0.5300920000000  0.5379680000000 1.0
C      1  0.4027080000000  0.5150520000000  0.4925120000000 1.0
C      1  0.4378770000000  0.4098500000000  0.4919480000000 1.0
C      1  0.5739050000000  0.4371270000000  0.5021460000000 1.0
C      1  0.5816230000000  0.5634110000000  0.4834850000000 1.0
C      1  0.4929990000000  0.6043230000000  0.4974080000000 1.0
C      1  0.5527740000000  0.4501850000000  0.4920520000000 1.0
C      1  0.5773000000000  0.5357090000000  0.4674840000000 1.0
C      1  0.4952940000000  0.5787910000000  0.4894050000000 1.0
C      1  0.4204110000000  0.5216610000000  0.4662470000000 1.0
C      1  0.4533130000000  0.4306780000000  0.4849140000000 1.0
C      1  0.5734670000000  0.5126500000000  0.4546230000000 1.0
C      1  0.5186370000000  0.5673140000000  0.4794770000000 1.0
C      1  0.4345260000000  0.5298680000000  0.4442010000000 1.0
C      1  0.4438130000000  0.4547340000000  0.4755190000000 1.0
C      1  0.5311620000000  0.4386220000000  0.4788960000000 1.0
C      1  0.4755720000000  0.5331800000000  0.4885640000000 1.0
C      1  0.4561400000000  0.4838700000000  0.4879860000000 1.0
C      1  0.5021920000000  0.4532800000000  0.4864730000000 1.0
C      1  0.5518740000000  0.4913550000000  0.4679380000000 1.0
C      1  0.5252600000000  0.5349760000000  0.4878630000000 1.0
C      1  0.5362190000000  0.5442430000000  0.5653900000000 1.0
C      1  0.4659230000000  0.5454720000000  0.5642060000000 1.0
C      1  0.4431070000000  0.4786750000000  0.5642850000000 1.0
C      1  0.4993550000000  0.4367100000000  0.5638720000000 1.0
C      1  0.5576250000000  0.4814530000000  0.5675240000000 1.0
C      1  0.4811280000000  0.4305480000000  0.4863780000000 1.0
C      1  0.5489120000000  0.4781340000000  0.4931430000000 1.0
C      1  0.5532070000000  0.5478820000000  0.4844310000000 1.0
C      1  0.4742700000000  0.5601150000000  0.4901570000000 1.0
C      1  0.4312120000000  0.5006630000000  0.4880460000000 1.0
END
