TITL C-2622956-4641-258 0.000263941565905714 125000 -315.581464679598 0 0 55 (C1) n - 1
REM
REM in /nfs/bkarasulu/CARBON/AIRSS/Generating-Clusters/AIREBO/with-SteepDescent/Higher-Symm/SD-CG/HFTN-CG
REM
REM
REM
REM
REM
REM ./C.cell (b20cbc046b6831c77cfcea5457e17084)
REM
REM compiler GCC version 9.2.1 20190827 (Red Hat 9.2.1-1)
REM options -cpp -mtune=generic -march=x86-64 -g -O0 -fpre-include=/usr/include/finclude/math-vector-fortran.h
REM seed 748508179 -1710213014 275766858 1344313377 963983760 -562324390 1169766191 -909198939 233975497 1257595174 627471497 -484454004 806954876 -1920406806 1089119971 -63417824 222528262 693646532 -1542570059 -2017201818 -53490981 -628051960 1450407177 1486497353 904913253 -1403496885 717270733 1487751926 274512252 786671485 418741393 -1931904258 -2136592305
REM
CELL 1.54180   50.00000   50.00000   50.00000   90.00000   90.00000   90.00000
LATT -1
SFAC C  
C      1  0.5074470000000  0.5536230000000  0.4659790000000 1.0
C      1  0.4818680000000  0.5628590000000  0.4720210000000 1.0
C      1  0.4602390000000  0.5446710000000  0.4731880000000 1.0
C      1  0.4513030000000  0.5350160000000  0.4982970000000 1.0
C      1  0.4618500000000  0.5464650000000  0.5215010000000 1.0
C      1  0.4818740000000  0.5458250000000  0.5404080000000 1.0
C      1  0.5043780000000  0.5623680000000  0.5400170000000 1.0
C      1  0.5294140000000  0.5530670000000  0.5326250000000 1.0
C      1  0.5507220000000  0.5622490000000  0.5146190000000 1.0
C      1  0.5492610000000  0.5750230000000  0.4899850000000 1.0
C      1  0.5350750000000  0.5628090000000  0.4695400000000 1.0
C      1  0.5581630000000  0.4841130000000  0.5656700000000 1.0
C      1  0.5686410000000  0.5004110000000  0.5208080000000 1.0
C      1  0.5805000000000  0.4974670000000  0.4786370000000 1.0
C      1  0.5471050000000  0.5015640000000  0.4511680000000 1.0
C      1  0.5076220000000  0.4829700000000  0.4173420000000 1.0
C      1  0.4808740000000  0.4968980000000  0.4231040000000 1.0
C      1  0.4387360000000  0.5081770000000  0.4502760000000 1.0
C      1  0.3996650000000  0.4894670000000  0.4789790000000 1.0
C      1  0.4171700000000  0.4972490000000  0.5432300000000 1.0
C      1  0.4688350000000  0.5249570000000  0.5826600000000 1.0
C      1  0.5218040000000  0.4918350000000  0.5800710000000 1.0
C      1  0.5374190000000  0.4894590000000  0.5432300000000 1.0
C      1  0.5482510000000  0.4745590000000  0.5165800000000 1.0
C      1  0.5512760000000  0.4860740000000  0.4877540000000 1.0
C      1  0.5327200000000  0.4745300000000  0.4651560000000 1.0
C      1  0.5087920000000  0.4903830000000  0.4507800000000 1.0
C      1  0.4789960000000  0.4744930000000  0.4467720000000 1.0
C      1  0.4502300000000  0.4799140000000  0.4625760000000 1.0
C      1  0.4263330000000  0.4969110000000  0.4782900000000 1.0
C      1  0.4619470000000  0.4824810000000  0.5327560000000 1.0
C      1  0.4837010000000  0.4936780000000  0.5455040000000 1.0
C      1  0.5086440000000  0.4775260000000  0.5522970000000 1.0
C      1  0.5291420000000  0.4451040000000  0.4685750000000 1.0
C      1  0.5071400000000  0.4332120000000  0.4562170000000 1.0
C      1  0.4815780000000  0.4434900000000  0.4556190000000 1.0
C      1  0.4589630000000  0.4517780000000  0.4726810000000 1.0
C      1  0.4556880000000  0.4471280000000  0.4997650000000 1.0
C      1  0.4637430000000  0.4550410000000  0.5252630000000 1.0
C      1  0.4801730000000  0.4395090000000  0.5420650000000 1.0
C      1  0.5061590000000  0.4481440000000  0.5476040000000 1.0
C      1  0.5293200000000  0.4356790000000  0.5382560000000 1.0
C      1  0.5432270000000  0.4454120000000  0.5161220000000 1.0
C      1  0.5428440000000  0.4343350000000  0.4904730000000 1.0
C      1  0.5343070000000  0.5219710000000  0.5391120000000 1.0
C      1  0.5572510000000  0.5306190000000  0.5152870000000 1.0
C      1  0.5565680000000  0.5181470000000  0.4864460000000 1.0
C      1  0.5404410000000  0.5316130000000  0.4630800000000 1.0
C      1  0.5084990000000  0.5234650000000  0.4541210000000 1.0
C      1  0.4817580000000  0.5215610000000  0.4366310000000 1.0
C      1  0.4578880000000  0.5283970000000  0.4500200000000 1.0
C      1  0.4374180000000  0.5112240000000  0.5018450000000 1.0
C      1  0.4383070000000  0.4973310000000  0.5264190000000 1.0
C      1  0.4839470000000  0.5223140000000  0.5592020000000 1.0
C      1  0.5147790000000  0.5154350000000  0.5633760000000 1.0
END
