TITL C-2622958-629-406 3510.58897592335 125000 -401.1445147964 0 0 77 (C1) n - 1
REM
REM in /nfs/bkarasulu/CARBON/AIRSS/Generating-Clusters/AIREBO/with-SteepDescent/Higher-Symm/SD-CG/HFTN-CG
REM
REM
REM
REM
REM
REM ./C.cell (b20cbc046b6831c77cfcea5457e17084)
REM
REM compiler GCC version 9.2.1 20190827 (Red Hat 9.2.1-1)
REM options -cpp -mtune=generic -march=x86-64 -g -O0 -fpre-include=/usr/include/finclude/math-vector-fortran.h
REM seed -690056984 -1772701963 -1046634550 -1809946985 2066889600 2112114598 32309987 1811731211 -1338113161 528821498 -1893610187 2099229956 -1455659454 -1280475428 -845322115 -31623397 1235761128 -1827656823 -2123019990 -678049221 -412840928 -1047762980 1422265755 -590812445 873705420 1551954068 855386935 -829274565 -1734826746 1951475732 1668380640 -1513782928 1803555954
REM
CELL 1.54180   50.00000   50.00000   50.00000   90.00000   90.00000   90.00000
LATT -1
SFAC C  
C      1  0.5584730000000  0.4960720000000  0.4858580000000 1.0
C      1  0.4922590000000  0.5301780000000  0.5646720000000 1.0
C      1  0.4747740000000  0.4514070000000  0.4515790000000 1.0
C      1  0.4813990000000  0.4915290000000  0.5729790000000 1.0
C      1  0.4742220000000  0.5741900000000  0.5332520000000 1.0
C      1  0.4179340000000  0.4918440000000  0.4912540000000 1.0
C      1  0.4590670000000  0.5088820000000  0.5673480000000 1.0
C      1  0.5454030000000  0.4634500000000  0.4440080000000 1.0
C      1  0.4604400000000  0.4979290000000  0.4333380000000 1.0
C      1  0.5128190000000  0.5046570000000  0.5741650000000 1.0
C      1  0.4612060000000  0.4342030000000  0.5290780000000 1.0
C      1  0.4472940000000  0.4419940000000  0.4692520000000 1.0
C      1  0.4617150000000  0.5222050000000  0.4868460000000 1.0
C      1  0.4708160000000  0.5254260000000  0.5415600000000 1.0
C      1  0.5543850000000  0.5512670000000  0.5155610000000 1.0
C      1  0.5571350000000  0.4773780000000  0.5644770000000 1.0
C      1  0.5011790000000  0.5750660000000  0.5331440000000 1.0
C      1  0.5680790000000  0.4716300000000  0.5332690000000 1.0
C      1  0.4866360000000  0.4224000000000  0.5326040000000 1.0
C      1  0.4975490000000  0.4456150000000  0.4719640000000 1.0
C      1  0.4783560000000  0.4720800000000  0.4285990000000 1.0
C      1  0.4417630000000  0.4434860000000  0.5027680000000 1.0
C      1  0.5339310000000  0.4854840000000  0.4302690000000 1.0
C      1  0.4683330000000  0.4260290000000  0.4906660000000 1.0
C      1  0.4824780000000  0.5296800000000  0.4234300000000 1.0
C      1  0.4300570000000  0.5207480000000  0.4958390000000 1.0
C      1  0.5032230000000  0.5514080000000  0.5004760000000 1.0
C      1  0.5549660000000  0.5411340000000  0.5480350000000 1.0
C      1  0.5306000000000  0.4758790000000  0.5720360000000 1.0
C      1  0.5228110000000  0.5512580000000  0.5282700000000 1.0
C      1  0.5233300000000  0.5316790000000  0.5563470000000 1.0
C      1  0.4750370000000  0.5510000000000  0.4980070000000 1.0
C      1  0.4786970000000  0.4670220000000  0.5604630000000 1.0
C      1  0.4314720000000  0.5369060000000  0.4659320000000 1.0
C      1  0.5341700000000  0.4691230000000  0.5328810000000 1.0
C      1  0.4913000000000  0.5054230000000  0.4455660000000 1.0
C      1  0.5346420000000  0.5475090000000  0.4339730000000 1.0
C      1  0.5773550000000  0.5145630000000  0.4394590000000 1.0
C      1  0.4379360000000  0.5031760000000  0.5454760000000 1.0
C      1  0.5144080000000  0.5233520000000  0.4924610000000 1.0
C      1  0.5068300000000  0.4839600000000  0.4274420000000 1.0
C      1  0.5253500000000  0.5127290000000  0.5179450000000 1.0
C      1  0.4395000000000  0.4772000000000  0.5350660000000 1.0
C      1  0.4416140000000  0.4758040000000  0.5046940000000 1.0
C      1  0.5486000000000  0.5668920000000  0.4882690000000 1.0
C      1  0.5130500000000  0.4741340000000  0.4998410000000 1.0
C      1  0.5738670000000  0.5283690000000  0.5022330000000 1.0
C      1  0.5307800000000  0.4345540000000  0.5025500000000 1.0
C      1  0.5075500000000  0.4892260000000  0.5262510000000 1.0
C      1  0.4898960000000  0.4620720000000  0.5303150000000 1.0
C      1  0.5440860000000  0.5147210000000  0.4373100000000 1.0
C      1  0.5689800000000  0.5224470000000  0.4699500000000 1.0
C      1  0.4527160000000  0.5489990000000  0.5309420000000 1.0
C      1  0.5509740000000  0.5486190000000  0.4637840000000 1.0
C      1  0.4788400000000  0.4574080000000  0.4984990000000 1.0
C      1  0.4715240000000  0.5406200000000  0.4597270000000 1.0
C      1  0.4700750000000  0.4896860000000  0.4922380000000 1.0
C      1  0.4328990000000  0.5249880000000  0.5274270000000 1.0
C      1  0.5278360000000  0.4854460000000  0.4771550000000 1.0
C      1  0.5698950000000  0.4984640000000  0.5171300000000 1.0
C      1  0.5153690000000  0.4406120000000  0.5327620000000 1.0
C      1  0.4553640000000  0.4748060000000  0.4654300000000 1.0
C      1  0.5027370000000  0.5436010000000  0.4465570000000 1.0
C      1  0.4516910000000  0.5738680000000  0.5077780000000 1.0
C      1  0.5188470000000  0.4509870000000  0.5649750000000 1.0
C      1  0.4791180000000  0.5041020000000  0.5216860000000 1.0
C      1  0.4972020000000  0.5000940000000  0.4745410000000 1.0
C      1  0.4484440000000  0.5208530000000  0.4452290000000 1.0
C      1  0.5622380000000  0.4653640000000  0.4738160000000 1.0
C      1  0.5520820000000  0.4603160000000  0.5053530000000 1.0
C      1  0.5309670000000  0.4518890000000  0.4725600000000 1.0
C      1  0.5494040000000  0.5151460000000  0.5312430000000 1.0
C      1  0.4543120000000  0.4562070000000  0.5473880000000 1.0
C      1  0.5113930000000  0.4187550000000  0.4828950000000 1.0
C      1  0.4505180000000  0.5612240000000  0.4767850000000 1.0
C      1  0.5258870000000  0.5256700000000  0.4638720000000 1.0
C      1  0.5219150000000  0.5759050000000  0.4912010000000 1.0
END
