TITL C-2622967-6265-128 0.00214921108596288 125000 -336.160384983659 0 0 61 (C1) n - 1
REM
REM in /nfs/bkarasulu/CARBON/AIRSS/Generating-Clusters/AIREBO/with-SteepDescent/Higher-Symm/SD-CG/HFTN-CG
REM
REM
REM
REM
REM
REM ./C.cell (b20cbc046b6831c77cfcea5457e17084)
REM
REM compiler GCC version 9.2.1 20190827 (Red Hat 9.2.1-1)
REM options -cpp -mtune=generic -march=x86-64 -g -O0 -fpre-include=/usr/include/finclude/math-vector-fortran.h
REM seed -1498111672 -251786559 1588658772 142172501 -953720581 198707482 -1765237052 955842067 -1813884248 811000939 387998905 -384200911 -1502371886 -135583054 312847940 -348998423 -1551657349 469652538 467369416 2089532361 -1581388495 -749562918 1021816941 2114377902 933587668 1233477959 -1550882099 1436535670 -1781119479 -1777204601 -1852270456 781477307 -1421760799
REM
CELL 1.54180   50.00000   50.00000   50.00000   90.00000   90.00000   90.00000
LATT -1
SFAC C  
C      1  0.5313710000000  0.5113690000000  0.5408200000000 1.0
C      1  0.4555170000000  0.4576610000000  0.5166770000000 1.0
C      1  0.4802200000000  0.4431760000000  0.5151590000000 1.0
C      1  0.5185680000000  0.4849920000000  0.4831250000000 1.0
C      1  0.5286480000000  0.5200210000000  0.4481450000000 1.0
C      1  0.4531040000000  0.4743190000000  0.4489810000000 1.0
C      1  0.4525870000000  0.5197410000000  0.4951590000000 1.0
C      1  0.4463570000000  0.4725900000000  0.5396700000000 1.0
C      1  0.5516650000000  0.4623840000000  0.5189480000000 1.0
C      1  0.5589700000000  0.5253250000000  0.5535260000000 1.0
C      1  0.5242550000000  0.5454640000000  0.4927000000000 1.0
C      1  0.4236410000000  0.5236320000000  0.4804080000000 1.0
C      1  0.5685330000000  0.4852740000000  0.5098550000000 1.0
C      1  0.5475310000000  0.4169880000000  0.4931440000000 1.0
C      1  0.5480450000000  0.5263710000000  0.4669990000000 1.0
C      1  0.5475020000000  0.4808320000000  0.4657420000000 1.0
C      1  0.4917330000000  0.4346090000000  0.5417290000000 1.0
C      1  0.5167430000000  0.4454300000000  0.5311180000000 1.0
C      1  0.5178620000000  0.4701490000000  0.5646570000000 1.0
C      1  0.4949090000000  0.4801070000000  0.5680730000000 1.0
C      1  0.5082420000000  0.5422590000000  0.5773770000000 1.0
C      1  0.4834900000000  0.5064420000000  0.5001010000000 1.0
C      1  0.4753890000000  0.5213890000000  0.4713670000000 1.0
C      1  0.4838770000000  0.5301560000000  0.5728120000000 1.0
C      1  0.4997280000000  0.5316990000000  0.4531620000000 1.0
C      1  0.4955720000000  0.4757030000000  0.4657340000000 1.0
C      1  0.4634080000000  0.4534400000000  0.4575480000000 1.0
C      1  0.5334180000000  0.4802100000000  0.5403080000000 1.0
C      1  0.5874400000000  0.4976460000000  0.5256480000000 1.0
C      1  0.4772250000000  0.5187380000000  0.4318390000000 1.0
C      1  0.5197030000000  0.5767220000000  0.4546680000000 1.0
C      1  0.5127820000000  0.4489950000000  0.4384550000000 1.0
C      1  0.5335560000000  0.4931950000000  0.4411530000000 1.0
C      1  0.4187930000000  0.5371360000000  0.5068240000000 1.0
C      1  0.4278980000000  0.4604180000000  0.5562310000000 1.0
C      1  0.4381830000000  0.4551090000000  0.4958910000000 1.0
C      1  0.4885500000000  0.4898240000000  0.4390700000000 1.0
C      1  0.4727790000000  0.5294810000000  0.4068980000000 1.0
C      1  0.5686250000000  0.4606230000000  0.4591560000000 1.0
C      1  0.4934280000000  0.4435120000000  0.4649420000000 1.0
C      1  0.4525300000000  0.5019030000000  0.5455440000000 1.0
C      1  0.4418770000000  0.5209260000000  0.5265110000000 1.0
C      1  0.4816860000000  0.5693680000000  0.4851110000000 1.0
C      1  0.5314370000000  0.5353790000000  0.5643870000000 1.0
C      1  0.5022570000000  0.5095780000000  0.5247960000000 1.0
C      1  0.4854130000000  0.5048830000000  0.5513430000000 1.0
C      1  0.4634230000000  0.5688060000000  0.5047740000000 1.0
C      1  0.5137230000000  0.4767500000000  0.4302210000000 1.0
C      1  0.4443410000000  0.5532040000000  0.5161120000000 1.0
C      1  0.5004860000000  0.4406920000000  0.4949460000000 1.0
C      1  0.5332670000000  0.4381100000000  0.5037090000000 1.0
C      1  0.5162820000000  0.4733720000000  0.5117490000000 1.0
C      1  0.5228400000000  0.5152700000000  0.4983220000000 1.0
C      1  0.4258120000000  0.5162400000000  0.4547280000000 1.0
C      1  0.5063510000000  0.5572840000000  0.4704580000000 1.0
C      1  0.5831860000000  0.5187660000000  0.5426310000000 1.0
C      1  0.5530600000000  0.5792950000000  0.5210260000000 1.0
C      1  0.4565280000000  0.5180660000000  0.5749200000000 1.0
C      1  0.4524980000000  0.5041470000000  0.4482990000000 1.0
C      1  0.5534000000000  0.5025510000000  0.4904300000000 1.0
C      1  0.5397550000000  0.5622810000000  0.5061640000000 1.0
END
