TITL C-2622955-8511-268 -0.00481567760011887 125000 -1075.38325437103 0 0 191 (C1) n - 1
REM
REM in /nfs/bkarasulu/CARBON/AIRSS/Generating-Clusters/AIREBO/with-SteepDescent/Higher-Symm/SD-CG/HFTN-CG
REM
REM
REM
REM
REM
REM ./C.cell (b20cbc046b6831c77cfcea5457e17084)
REM
REM compiler GCC version 9.2.1 20190827 (Red Hat 9.2.1-1)
REM options -cpp -mtune=generic -march=x86-64 -g -O0 -fpre-include=/usr/include/finclude/math-vector-fortran.h
REM seed -189309372 -2145165497 1654450860 279230947 2036890058 -843997066 1450433608 1819935996 -1382347582 831734513 -1068794098 34981357 -1670201094 1227489567 -1477032802 -2022416397 -2138754822 2037625832 1456325207 -1886816301 1521130801 -200268577 -1290867991 1790259259 -1585836461 195339476 -885672893 311122217 -2018898033 1105368209 -91383330 -60031413 -1379656630
REM
CELL 1.54180   50.00000   50.00000   50.00000   90.00000   90.00000   90.00000
LATT -1
SFAC C  
C      1  0.4403340000000  0.5678390000000  0.4400510000000 1.0
C      1  0.4077510000000  0.5272930000000  0.4325460000000 1.0
C      1  0.4146610000000  0.4775140000000  0.4250840000000 1.0
C      1  0.4360200000000  0.4313890000000  0.4274110000000 1.0
C      1  0.4853260000000  0.4068610000000  0.4354790000000 1.0
C      1  0.5344570000000  0.4145690000000  0.4192470000000 1.0
C      1  0.5738570000000  0.4353720000000  0.4279410000000 1.0
C      1  0.5822940000000  0.4953410000000  0.4307640000000 1.0
C      1  0.5741750000000  0.5507790000000  0.4398700000000 1.0
C      1  0.5319830000000  0.5791270000000  0.4199140000000 1.0
C      1  0.4828050000000  0.5971050000000  0.4350750000000 1.0
C      1  0.5353620000000  0.3886920000000  0.5113760000000 1.0
C      1  0.5820040000000  0.4287530000000  0.5156720000000 1.0
C      1  0.6120110000000  0.4813060000000  0.5185770000000 1.0
C      1  0.6063350000000  0.5424780000000  0.5243940000000 1.0
C      1  0.5667440000000  0.6027710000000  0.5106120000000 1.0
C      1  0.4998640000000  0.6239840000000  0.5052520000000 1.0
C      1  0.4471850000000  0.6036920000000  0.5001120000000 1.0
C      1  0.3990840000000  0.5506240000000  0.5219930000000 1.0
C      1  0.3833230000000  0.4939510000000  0.5286910000000 1.0
C      1  0.3996810000000  0.4397400000000  0.5049220000000 1.0
C      1  0.4736360000000  0.3801810000000  0.5156370000000 1.0
C      1  0.4437560000000  0.5120620000000  0.4068650000000 1.0
C      1  0.4725660000000  0.4555270000000  0.3893160000000 1.0
C      1  0.4928610000000  0.4378930000000  0.3905870000000 1.0
C      1  0.5174730000000  0.4486360000000  0.4057270000000 1.0
C      1  0.5340930000000  0.4717110000000  0.4009900000000 1.0
C      1  0.5385290000000  0.4996100000000  0.3986940000000 1.0
C      1  0.5423160000000  0.5255300000000  0.3977200000000 1.0
C      1  0.5224990000000  0.5405940000000  0.4181890000000 1.0
C      1  0.4962630000000  0.5541990000000  0.4139660000000 1.0
C      1  0.4682130000000  0.5542660000000  0.3968240000000 1.0
C      1  0.4455970000000  0.5399110000000  0.4024540000000 1.0
C      1  0.4953090000000  0.4483250000000  0.5704810000000 1.0
C      1  0.5215250000000  0.4476750000000  0.5488340000000 1.0
C      1  0.5605180000000  0.4876390000000  0.5665150000000 1.0
C      1  0.5614980000000  0.5217500000000  0.5688520000000 1.0
C      1  0.5465740000000  0.5469960000000  0.5804090000000 1.0
C      1  0.5161530000000  0.5565310000000  0.5709080000000 1.0
C      1  0.4853390000000  0.5680350000000  0.5648880000000 1.0
C      1  0.4548230000000  0.5552070000000  0.5570410000000 1.0
C      1  0.4410850000000  0.5022540000000  0.5783320000000 1.0
C      1  0.4437370000000  0.4763480000000  0.5579270000000 1.0
C      1  0.4635520000000  0.4476970000000  0.5583090000000 1.0
C      1  0.5647260000000  0.5719610000000  0.5667140000000 1.0
C      1  0.5190270000000  0.6041630000000  0.5619880000000 1.0
C      1  0.4248880000000  0.5966960000000  0.5656520000000 1.0
C      1  0.4349280000000  0.5413960000000  0.5738510000000 1.0
C      1  0.4047520000000  0.4868540000000  0.5732720000000 1.0
C      1  0.4146440000000  0.4341010000000  0.5586400000000 1.0
C      1  0.4724160000000  0.4160100000000  0.5669520000000 1.0
C      1  0.5116330000000  0.4191570000000  0.5605840000000 1.0
C      1  0.5670490000000  0.4358850000000  0.5680050000000 1.0
C      1  0.6014040000000  0.4855730000000  0.5727820000000 1.0
C      1  0.5897340000000  0.5315720000000  0.5658210000000 1.0
C      1  0.5411540000000  0.4796680000000  0.4331350000000 1.0
C      1  0.5417410000000  0.5055280000000  0.4552170000000 1.0
C      1  0.5241440000000  0.5315280000000  0.4482620000000 1.0
C      1  0.5017090000000  0.5150290000000  0.4607180000000 1.0
C      1  0.4894080000000  0.5508780000000  0.4446960000000 1.0
C      1  0.4745340000000  0.5218760000000  0.4479910000000 1.0
C      1  0.4605620000000  0.5001000000000  0.4306370000000 1.0
C      1  0.4614500000000  0.4703000000000  0.4144880000000 1.0
C      1  0.4811260000000  0.4674600000000  0.4383050000000 1.0
C      1  0.5129780000000  0.4445030000000  0.4353430000000 1.0
C      1  0.5118990000000  0.4752110000000  0.4499070000000 1.0
C      1  0.4463510000000  0.4222380000000  0.5065690000000 1.0
C      1  0.4893140000000  0.4047930000000  0.4967050000000 1.0
C      1  0.5395720000000  0.4178910000000  0.4974020000000 1.0
C      1  0.5733690000000  0.4590200000000  0.5059060000000 1.0
C      1  0.5933770000000  0.5156080000000  0.5098080000000 1.0
C      1  0.5729730000000  0.5568390000000  0.5077670000000 1.0
C      1  0.5298710000000  0.5884420000000  0.5053290000000 1.0
C      1  0.4781380000000  0.5906910000000  0.5013710000000 1.0
C      1  0.4374110000000  0.5653050000000  0.4994240000000 1.0
C      1  0.4097650000000  0.5152040000000  0.5080030000000 1.0
C      1  0.4215770000000  0.4728100000000  0.5000900000000 1.0
C      1  0.4683270000000  0.4577580000000  0.5283550000000 1.0
C      1  0.4964580000000  0.4517390000000  0.5184430000000 1.0
C      1  0.5291370000000  0.4606210000000  0.5214770000000 1.0
C      1  0.5491060000000  0.4833940000000  0.5347160000000 1.0
C      1  0.5507370000000  0.5161840000000  0.5406300000000 1.0
C      1  0.5338480000000  0.5389040000000  0.5295200000000 1.0
C      1  0.5117430000000  0.5495010000000  0.5413270000000 1.0
C      1  0.4878180000000  0.5489610000000  0.5277650000000 1.0
C      1  0.4597570000000  0.5341260000000  0.5333440000000 1.0
C      1  0.4478420000000  0.5045360000000  0.5392880000000 1.0
C      1  0.4490080000000  0.4796140000000  0.5173710000000 1.0
C      1  0.4615850000000  0.5961320000000  0.5301260000000 1.0
C      1  0.4217560000000  0.5677850000000  0.5231930000000 1.0
C      1  0.3989180000000  0.5219860000000  0.5387730000000 1.0
C      1  0.4009220000000  0.4679100000000  0.5239490000000 1.0
C      1  0.4577090000000  0.4059090000000  0.5311890000000 1.0
C      1  0.5065720000000  0.3877050000000  0.5200530000000 1.0
C      1  0.5550820000000  0.4132360000000  0.5257570000000 1.0
C      1  0.5933850000000  0.4583640000000  0.5309710000000 1.0
C      1  0.6162630000000  0.5099300000000  0.5333480000000 1.0
C      1  0.5732930000000  0.5809750000000  0.5248800000000 1.0
C      1  0.5110840000000  0.6039650000000  0.5205140000000 1.0
C      1  0.4167730000000  0.5039200000000  0.4119260000000 1.0
C      1  0.4340510000000  0.4582640000000  0.4195870000000 1.0
C      1  0.4557680000000  0.4131520000000  0.4197190000000 1.0
C      1  0.5050120000000  0.4141160000000  0.4106550000000 1.0
C      1  0.5603670000000  0.4186320000000  0.4103360000000 1.0
C      1  0.5703070000000  0.4640010000000  0.4252530000000 1.0
C      1  0.5866850000000  0.5215070000000  0.4278050000000 1.0
C      1  0.5535650000000  0.5537550000000  0.4129870000000 1.0
C      1  0.5135120000000  0.5993870000000  0.4205970000000 1.0
C      1  0.4808250000000  0.5825770000000  0.4058310000000 1.0
C      1  0.4268440000000  0.5521420000000  0.4203860000000 1.0
C      1  0.4388340000000  0.5106540000000  0.5076980000000 1.0
C      1  0.4476730000000  0.4702320000000  0.4784140000000 1.0
C      1  0.4621440000000  0.4469540000000  0.4986180000000 1.0
C      1  0.4924920000000  0.4348730000000  0.4902290000000 1.0
C      1  0.5255100000000  0.4425280000000  0.4931500000000 1.0
C      1  0.5557860000000  0.4825750000000  0.5013660000000 1.0
C      1  0.5638920000000  0.5116680000000  0.5108800000000 1.0
C      1  0.5464750000000  0.5390760000000  0.4996800000000 1.0
C      1  0.5210510000000  0.5605650000000  0.4920870000000 1.0
C      1  0.4881190000000  0.5621340000000  0.4993540000000 1.0
C      1  0.4591620000000  0.5443740000000  0.5008710000000 1.0
C      1  0.5117680000000  0.4012090000000  0.4562660000000 1.0
C      1  0.5690570000000  0.4246530000000  0.4578640000000 1.0
C      1  0.5784150000000  0.4789290000000  0.4581540000000 1.0
C      1  0.5874990000000  0.5330610000000  0.4656740000000 1.0
C      1  0.5623100000000  0.5737710000000  0.4621580000000 1.0
C      1  0.5051720000000  0.5997980000000  0.4597030000000 1.0
C      1  0.4514480000000  0.5957540000000  0.4465470000000 1.0
C      1  0.4217420000000  0.5384920000000  0.4593090000000 1.0
C      1  0.4133080000000  0.4995800000000  0.4514570000000 1.0
C      1  0.4249650000000  0.4297860000000  0.4571050000000 1.0
C      1  0.4616600000000  0.4139810000000  0.4588550000000 1.0
C      1  0.4899400000000  0.4033440000000  0.5432860000000 1.0
C      1  0.5447950000000  0.4246090000000  0.5530160000000 1.0
C      1  0.5819900000000  0.4626990000000  0.5591510000000 1.0
C      1  0.6071400000000  0.5099640000000  0.5617890000000 1.0
C      1  0.5864700000000  0.5572330000000  0.5453490000000 1.0
C      1  0.5353200000000  0.5830670000000  0.5683770000000 1.0
C      1  0.4904800000000  0.5962990000000  0.5464610000000 1.0
C      1  0.4397380000000  0.5798660000000  0.5450590000000 1.0
C      1  0.4135560000000  0.5175220000000  0.5654840000000 1.0
C      1  0.4129410000000  0.4639740000000  0.5519350000000 1.0
C      1  0.4396330000000  0.4244420000000  0.5516800000000 1.0
C      1  0.4670200000000  0.3829140000000  0.4833110000000 1.0
C      1  0.5371480000000  0.3924890000000  0.4769890000000 1.0
C      1  0.5839500000000  0.4369970000000  0.4822580000000 1.0
C      1  0.6112650000000  0.4838600000000  0.4903860000000 1.0
C      1  0.6002530000000  0.5505740000000  0.4918460000000 1.0
C      1  0.5522550000000  0.5978160000000  0.4815080000000 1.0
C      1  0.4850610000000  0.6133210000000  0.4791230000000 1.0
C      1  0.4344810000000  0.5868260000000  0.4746610000000 1.0
C      1  0.3962710000000  0.5403370000000  0.4896830000000 1.0
C      1  0.4042320000000  0.4746270000000  0.4726970000000 1.0
C      1  0.4204910000000  0.4208900000000  0.4896180000000 1.0
C      1  0.5356120000000  0.4250160000000  0.4515910000000 1.0
C      1  0.5336700000000  0.4556890000000  0.4672600000000 1.0
C      1  0.5512550000000  0.4803640000000  0.4717750000000 1.0
C      1  0.5569580000000  0.5290790000000  0.4702610000000 1.0
C      1  0.5369530000000  0.5630220000000  0.4479060000000 1.0
C      1  0.5083160000000  0.5673220000000  0.4625000000000 1.0
C      1  0.4541230000000  0.5454480000000  0.4583260000000 1.0
C      1  0.4507080000000  0.5202690000000  0.4800010000000 1.0
C      1  0.4455230000000  0.4968170000000  0.4610300000000 1.0
C      1  0.4549240000000  0.4456930000000  0.4594790000000 1.0
C      1  0.4888280000000  0.4431370000000  0.4592510000000 1.0
C      1  0.4820490000000  0.5441170000000  0.5888590000000 1.0
C      1  0.4668790000000  0.5221220000000  0.5881750000000 1.0
C      1  0.4601790000000  0.4955380000000  0.6042150000000 1.0
C      1  0.4752800000000  0.4729980000000  0.6081660000000 1.0
C      1  0.4957300000000  0.4565800000000  0.5989790000000 1.0
C      1  0.5193740000000  0.4516270000000  0.6126210000000 1.0
C      1  0.5440310000000  0.4622550000000  0.6082560000000 1.0
C      1  0.5510550000000  0.4865180000000  0.5967070000000 1.0
C      1  0.5434230000000  0.5098760000000  0.6100650000000 1.0
C      1  0.5307640000000  0.5339060000000  0.6036540000000 1.0
C      1  0.5043910000000  0.5431520000000  0.6066380000000 1.0
C      1  0.5926180000000  0.5724430000000  0.4679500000000 1.0
C      1  0.5308350000000  0.6129300000000  0.4633300000000 1.0
C      1  0.4602460000000  0.6222670000000  0.4630440000000 1.0
C      1  0.4090200000000  0.5645190000000  0.4717300000000 1.0
C      1  0.3958350000000  0.5075100000000  0.4795460000000 1.0
C      1  0.3998440000000  0.4493010000000  0.4610680000000 1.0
C      1  0.4414250000000  0.3983670000000  0.4750910000000 1.0
C      1  0.4913790000000  0.3790300000000  0.4632690000000 1.0
C      1  0.5618520000000  0.3934780000000  0.4617720000000 1.0
C      1  0.5974760000000  0.4653810000000  0.4747390000000 1.0
C      1  0.6060620000000  0.5121760000000  0.4814230000000 1.0
C      1  0.4992110000000  0.5017220000000  0.5640880000000 1.0
C      1  0.5020750000000  0.5045020000000  0.4848560000000 1.0
C      1  0.4995420000000  0.4991560000000  0.5380480000000 1.0
C      1  0.4995260000000  0.5020210000000  0.5111180000000 1.0
END
