TITL C-2622962-9663-494 -0.000849133709813374 125000 -1036.21333019207 0 0 197 (C1) n - 1
REM
REM in /nfs/bkarasulu/CARBON/AIRSS/Generating-Clusters/AIREBO/with-SteepDescent/Higher-Symm/SD-CG/HFTN-CG
REM
REM
REM
REM
REM
REM ./C.cell (b20cbc046b6831c77cfcea5457e17084)
REM
REM compiler GCC version 9.2.1 20190827 (Red Hat 9.2.1-1)
REM options -cpp -mtune=generic -march=x86-64 -g -O0 -fpre-include=/usr/include/finclude/math-vector-fortran.h
REM seed 854462749 -2106769004 -690107158 -1250608583 1040521418 -1401705796 1616222323 -1538638517 -1544277846 1686014670 -656615803 443893369 1897053741 -490585066 538705641 -83743366 -2145973709 -1677429490 1212407800 -1997231045 -1735043217 -554657512 -872926570 -1121258174 1597510974 -830326927 -1138897387 62386211 2056299958 -1937842419 -677167885 -1100014740 78479981
REM
CELL 1.54180   50.00000   50.00000   50.00000   90.00000   90.00000   90.00000
LATT -1
SFAC C  
C      1  0.5231930000000  0.5374760000000  0.6081150000000 1.0
C      1  0.4867390000000  0.5394010000000  0.5211450000000 1.0
C      1  0.4026710000000  0.4976920000000  0.4664360000000 1.0
C      1  0.4306680000000  0.5787060000000  0.5073100000000 1.0
C      1  0.4547390000000  0.5081490000000  0.5622150000000 1.0
C      1  0.4948090000000  0.3775960000000  0.4674280000000 1.0
C      1  0.5668080000000  0.4548900000000  0.4153660000000 1.0
C      1  0.5536160000000  0.4305370000000  0.4547560000000 1.0
C      1  0.4390510000000  0.5328700000000  0.4223000000000 1.0
C      1  0.4644570000000  0.3957900000000  0.5076800000000 1.0
C      1  0.6441050000000  0.4965140000000  0.5002400000000 1.0
C      1  0.5211760000000  0.6035880000000  0.5063810000000 1.0
C      1  0.5362160000000  0.5163580000000  0.5460430000000 1.0
C      1  0.5660920000000  0.5289180000000  0.5162520000000 1.0
C      1  0.4339260000000  0.5244910000000  0.5270810000000 1.0
C      1  0.4569910000000  0.4815140000000  0.5444530000000 1.0
C      1  0.5064640000000  0.5051150000000  0.5774400000000 1.0
C      1  0.5025610000000  0.5152600000000  0.5391260000000 1.0
C      1  0.4625980000000  0.4669290000000  0.4955330000000 1.0
C      1  0.5204210000000  0.4071480000000  0.5245900000000 1.0
C      1  0.5832200000000  0.5461730000000  0.5361540000000 1.0
C      1  0.4551300000000  0.4897570000000  0.4194760000000 1.0
C      1  0.4255550000000  0.4388370000000  0.4585040000000 1.0
C      1  0.5210570000000  0.3938350000000  0.4772090000000 1.0
C      1  0.4034090000000  0.5371490000000  0.4471750000000 1.0
C      1  0.3830160000000  0.4617030000000  0.5474140000000 1.0
C      1  0.3909360000000  0.4744740000000  0.5234760000000 1.0
C      1  0.4645490000000  0.5679160000000  0.4481810000000 1.0
C      1  0.5604540000000  0.5465120000000  0.4877080000000 1.0
C      1  0.4935490000000  0.5235860000000  0.6029240000000 1.0
C      1  0.5185030000000  0.4067160000000  0.5933130000000 1.0
C      1  0.5633860000000  0.4997230000000  0.4175540000000 1.0
C      1  0.5318950000000  0.4507740000000  0.5003580000000 1.0
C      1  0.5795020000000  0.4593800000000  0.4449420000000 1.0
C      1  0.4410750000000  0.4125610000000  0.5017640000000 1.0
C      1  0.5754410000000  0.4460100000000  0.5653720000000 1.0
C      1  0.4939940000000  0.4124200000000  0.5315180000000 1.0
C      1  0.5315360000000  0.5419710000000  0.5011620000000 1.0
C      1  0.5660010000000  0.3930930000000  0.4993610000000 1.0
C      1  0.5419880000000  0.5191990000000  0.5880120000000 1.0
C      1  0.4959380000000  0.5796550000000  0.4808600000000 1.0
C      1  0.5561140000000  0.5297130000000  0.4216490000000 1.0
C      1  0.4989560000000  0.4941640000000  0.4973950000000 1.0
C      1  0.5546770000000  0.4975390000000  0.5095670000000 1.0
C      1  0.5043770000000  0.4721250000000  0.5993640000000 1.0
C      1  0.4802970000000  0.4942200000000  0.6055940000000 1.0
C      1  0.4276440000000  0.5527600000000  0.5813760000000 1.0
C      1  0.4780010000000  0.4273590000000  0.5054950000000 1.0
C      1  0.4219140000000  0.4345650000000  0.5764930000000 1.0
C      1  0.4469670000000  0.4763560000000  0.4669070000000 1.0
C      1  0.4116400000000  0.5002330000000  0.5283480000000 1.0
C      1  0.4620300000000  0.5162660000000  0.5166280000000 1.0
C      1  0.4728590000000  0.4262660000000  0.4718470000000 1.0
C      1  0.4240160000000  0.4736880000000  0.5456210000000 1.0
C      1  0.4123480000000  0.5560910000000  0.4677540000000 1.0
C      1  0.4724410000000  0.5566950000000  0.4881000000000 1.0
C      1  0.4946850000000  0.4507380000000  0.5759720000000 1.0
C      1  0.5867250000000  0.4147370000000  0.4900990000000 1.0
C      1  0.4408360000000  0.5288280000000  0.4783970000000 1.0
C      1  0.5264500000000  0.5788780000000  0.4836220000000 1.0
C      1  0.4064510000000  0.4517380000000  0.5633040000000 1.0
C      1  0.5268660000000  0.5200230000000  0.4681520000000 1.0
C      1  0.5025910000000  0.4548030000000  0.3913690000000 1.0
C      1  0.4734150000000  0.6124280000000  0.5409770000000 1.0
C      1  0.4863050000000  0.4924690000000  0.4657630000000 1.0
C      1  0.5308410000000  0.4872390000000  0.5883220000000 1.0
C      1  0.4554180000000  0.5000350000000  0.4898220000000 1.0
C      1  0.5033830000000  0.4477440000000  0.5153630000000 1.0
C      1  0.5903430000000  0.4949580000000  0.5387730000000 1.0
C      1  0.6004390000000  0.5450100000000  0.4454210000000 1.0
C      1  0.5488680000000  0.6051320000000  0.5201210000000 1.0
C      1  0.4772860000000  0.5479370000000  0.5869880000000 1.0
C      1  0.5651440000000  0.5512080000000  0.5829980000000 1.0
C      1  0.5242970000000  0.5241250000000  0.3782180000000 1.0
C      1  0.5633580000000  0.4265890000000  0.5807600000000 1.0
C      1  0.5772720000000  0.4777720000000  0.5647710000000 1.0
C      1  0.4479780000000  0.5971480000000  0.4910490000000 1.0
C      1  0.5727120000000  0.5225130000000  0.5778950000000 1.0
C      1  0.4192790000000  0.4574510000000  0.5155320000000 1.0
C      1  0.4673950000000  0.5673860000000  0.5182660000000 1.0
C      1  0.4673760000000  0.4157220000000  0.4084260000000 1.0
C      1  0.5165490000000  0.4259110000000  0.4696670000000 1.0
C      1  0.4551710000000  0.4487490000000  0.5477610000000 1.0
C      1  0.4936200000000  0.4081130000000  0.4519510000000 1.0
C      1  0.4894180000000  0.4238590000000  0.5558010000000 1.0
C      1  0.4262140000000  0.4127080000000  0.4791270000000 1.0
C      1  0.5837660000000  0.5723090000000  0.5217860000000 1.0
C      1  0.6004050000000  0.5138370000000  0.4476970000000 1.0
C      1  0.4408390000000  0.4421300000000  0.4218190000000 1.0
C      1  0.4420740000000  0.5732050000000  0.5389150000000 1.0
C      1  0.4690060000000  0.5589230000000  0.3957860000000 1.0
C      1  0.5027040000000  0.5284460000000  0.4237890000000 1.0
C      1  0.5179590000000  0.5761490000000  0.5750620000000 1.0
C      1  0.5479440000000  0.4758500000000  0.4108240000000 1.0
C      1  0.4402310000000  0.5369190000000  0.5556210000000 1.0
C      1  0.5191410000000  0.4658620000000  0.4258880000000 1.0
C      1  0.5402140000000  0.6029390000000  0.4396600000000 1.0
C      1  0.4582590000000  0.5037290000000  0.4501850000000 1.0
C      1  0.4502030000000  0.4964730000000  0.6208020000000 1.0
C      1  0.3835650000000  0.4693720000000  0.4536270000000 1.0
C      1  0.4492240000000  0.4428020000000  0.5150000000000 1.0
C      1  0.5027700000000  0.4678360000000  0.5407530000000 1.0
C      1  0.5183760000000  0.4135760000000  0.4292700000000 1.0
C      1  0.5705270000000  0.4412940000000  0.5039430000000 1.0
C      1  0.5840400000000  0.5218750000000  0.4882400000000 1.0
C      1  0.5331580000000  0.3919480000000  0.5041520000000 1.0
C      1  0.4816010000000  0.5223490000000  0.5650160000000 1.0
C      1  0.5647440000000  0.4551600000000  0.5344470000000 1.0
C      1  0.5200480000000  0.4886210000000  0.4640350000000 1.0
C      1  0.6198320000000  0.4934900000000  0.4930220000000 1.0
C      1  0.5879890000000  0.4924940000000  0.5049130000000 1.0
C      1  0.5833770000000  0.4368660000000  0.4667210000000 1.0
C      1  0.3948260000000  0.5646600000000  0.5274750000000 1.0
C      1  0.5592030000000  0.4823920000000  0.4596220000000 1.0
C      1  0.5431170000000  0.5762510000000  0.5620340000000 1.0
C      1  0.5440720000000  0.4706410000000  0.5668500000000 1.0
C      1  0.5383290000000  0.4343420000000  0.5294270000000 1.0
C      1  0.5737180000000  0.5867130000000  0.4773860000000 1.0
C      1  0.4704780000000  0.4475280000000  0.4131350000000 1.0
C      1  0.4692960000000  0.4728720000000  0.5815150000000 1.0
C      1  0.4574840000000  0.4477890000000  0.4509340000000 1.0
C      1  0.5164730000000  0.4356070000000  0.4113740000000 1.0
C      1  0.5461840000000  0.4253060000000  0.4863650000000 1.0
C      1  0.5062680000000  0.5608660000000  0.5959800000000 1.0
C      1  0.5881530000000  0.5208640000000  0.5543470000000 1.0
C      1  0.4926670000000  0.4625990000000  0.4910040000000 1.0
C      1  0.5918890000000  0.5890770000000  0.4997200000000 1.0
C      1  0.4413300000000  0.5489220000000  0.4509430000000 1.0
C      1  0.4798570000000  0.4780590000000  0.4014520000000 1.0
C      1  0.5486850000000  0.4855940000000  0.5383130000000 1.0
C      1  0.4718890000000  0.5296190000000  0.4675180000000 1.0
C      1  0.4830560000000  0.4911070000000  0.5256760000000 1.0
C      1  0.4174450000000  0.4710650000000  0.4513110000000 1.0
C      1  0.5079790000000  0.5546890000000  0.5428740000000 1.0
C      1  0.5019630000000  0.5415460000000  0.4908140000000 1.0
C      1  0.4627630000000  0.5998340000000  0.5172440000000 1.0
C      1  0.4182750000000  0.5306790000000  0.4988850000000 1.0
C      1  0.5400110000000  0.4568100000000  0.4503390000000 1.0
C      1  0.4546600000000  0.4421740000000  0.5811260000000 1.0
C      1  0.5880270000000  0.4889250000000  0.4327810000000 1.0
C      1  0.4828460000000  0.5119370000000  0.4016500000000 1.0
C      1  0.3944450000000  0.4433890000000  0.5000660000000 1.0
C      1  0.4679770000000  0.5945140000000  0.5648340000000 1.0
C      1  0.5840520000000  0.4647380000000  0.4853410000000 1.0
C      1  0.5227450000000  0.4458820000000  0.5573670000000 1.0
C      1  0.4001220000000  0.5205290000000  0.5514210000000 1.0
C      1  0.5259330000000  0.5672870000000  0.4069100000000 1.0
C      1  0.4164790000000  0.4987680000000  0.5679260000000 1.0
C      1  0.4111560000000  0.5815370000000  0.5419920000000 1.0
C      1  0.4851450000000  0.5575750000000  0.4239560000000 1.0
C      1  0.5476770000000  0.5349680000000  0.4522050000000 1.0
C      1  0.5119440000000  0.4970770000000  0.4321090000000 1.0
C      1  0.3850930000000  0.5418700000000  0.5413920000000 1.0
C      1  0.5009840000000  0.6043510000000  0.5277990000000 1.0
C      1  0.4426030000000  0.4927340000000  0.5887790000000 1.0
C      1  0.4890460000000  0.5919860000000  0.4436000000000 1.0
C      1  0.5163300000000  0.6170390000000  0.4774400000000 1.0
C      1  0.5085910000000  0.4566070000000  0.4633370000000 1.0
C      1  0.5962970000000  0.4643980000000  0.5257520000000 1.0
C      1  0.5005250000000  0.5157630000000  0.3751730000000 1.0
C      1  0.4916130000000  0.4049870000000  0.5991350000000 1.0
C      1  0.5689410000000  0.5107680000000  0.4602170000000 1.0
C      1  0.4488640000000  0.4425400000000  0.6119960000000 1.0
C      1  0.5354520000000  0.5663200000000  0.4547910000000 1.0
C      1  0.5410070000000  0.4009870000000  0.4506160000000 1.0
C      1  0.5602550000000  0.4083580000000  0.5285310000000 1.0
C      1  0.4618860000000  0.5619220000000  0.5635120000000 1.0
C      1  0.4184380000000  0.4554710000000  0.4144950000000 1.0
C      1  0.5764710000000  0.5547770000000  0.4331330000000 1.0
C      1  0.5191830000000  0.5353590000000  0.5685210000000 1.0
C      1  0.5512080000000  0.5994150000000  0.5471760000000 1.0
C      1  0.4588300000000  0.5323800000000  0.4027130000000 1.0
C      1  0.4880110000000  0.4577770000000  0.4385080000000 1.0
C      1  0.5353470000000  0.4246260000000  0.5803690000000 1.0
C      1  0.5249080000000  0.5099850000000  0.4988360000000 1.0
C      1  0.5536210000000  0.5456690000000  0.5514630000000 1.0
C      1  0.4220630000000  0.4859680000000  0.4210970000000 1.0
C      1  0.6066050000000  0.5423790000000  0.4746680000000 1.0
C      1  0.5013250000000  0.5331560000000  0.4574370000000 1.0
C      1  0.5575890000000  0.3794300000000  0.4704350000000 1.0
C      1  0.4673400000000  0.5923410000000  0.4697720000000 1.0
C      1  0.6002880000000  0.4870570000000  0.4672630000000 1.0
C      1  0.4184200000000  0.5651630000000  0.6017080000000 1.0
C      1  0.4742470000000  0.4168610000000  0.5806820000000 1.0
C      1  0.5416670000000  0.4757590000000  0.4869280000000 1.0
C      1  0.5142660000000  0.5722100000000  0.4334400000000 1.0
C      1  0.4745380000000  0.3995820000000  0.4263090000000 1.0
C      1  0.5637140000000  0.5807870000000  0.4485750000000 1.0
C      1  0.4002160000000  0.4294730000000  0.4778300000000 1.0
C      1  0.4972050000000  0.5827980000000  0.5527440000000 1.0
C      1  0.5162640000000  0.6073820000000  0.4521520000000 1.0
C      1  0.5308260000000  0.5366020000000  0.4057980000000 1.0
C      1  0.5542660000000  0.5761350000000  0.5032080000000 1.0
C      1  0.5354290000000  0.5593270000000  0.5266250000000 1.0
C      1  0.4076760000000  0.5597710000000  0.4989180000000 1.0
C      1  0.3987110000000  0.5112400000000  0.4907530000000 1.0
C      1  0.4248210000000  0.5109230000000  0.4440280000000 1.0
END
