TITL C-2622966-9038-403 -0.000696656657598297 125000 -1028.84008948416 0 0 197 (C1) n - 1
REM
REM in /nfs/bkarasulu/CARBON/AIRSS/Generating-Clusters/AIREBO/with-SteepDescent/Higher-Symm/SD-CG/HFTN-CG
REM
REM
REM
REM
REM
REM ./C.cell (b20cbc046b6831c77cfcea5457e17084)
REM
REM compiler GCC version 9.2.1 20190827 (Red Hat 9.2.1-1)
REM options -cpp -mtune=generic -march=x86-64 -g -O0 -fpre-include=/usr/include/finclude/math-vector-fortran.h
REM seed 795221985 642575873 -275904912 -2122083491 1140198044 -1106567369 454816816 -925473478 -799795873 -1520477124 -1284169738 -983184482 -1118682516 1676396786 -1080697526 -482729046 1202571917 -329550426 -498008918 1633800565 -1455566101 -999707806 -1342804078 659096275 1408679889 1946641662 -2046777966 156954328 1002925242 -1835958090 1399510979 -405467380 1977254922
REM
CELL 1.54180   50.00000   50.00000   50.00000   90.00000   90.00000   90.00000
LATT -1
SFAC C  
C      1  0.4571930000000  0.4358080000000  0.4320240000000 1.0
C      1  0.5401010000000  0.5638110000000  0.4326620000000 1.0
C      1  0.5475440000000  0.4264850000000  0.5656280000000 1.0
C      1  0.4633920000000  0.5629190000000  0.5643880000000 1.0
C      1  0.4374850000000  0.4629760000000  0.4295320000000 1.0
C      1  0.5600040000000  0.5357530000000  0.4290130000000 1.0
C      1  0.4354410000000  0.5451860000000  0.5722320000000 1.0
C      1  0.5626530000000  0.4486680000000  0.5763510000000 1.0
C      1  0.3804620000000  0.5268760000000  0.5264980000000 1.0
C      1  0.6119600000000  0.4610830000000  0.5362460000000 1.0
C      1  0.6002190000000  0.5421410000000  0.4596280000000 1.0
C      1  0.3969620000000  0.4593240000000  0.4637920000000 1.0
C      1  0.5420530000000  0.3891870000000  0.5357370000000 1.0
C      1  0.4698710000000  0.6070520000000  0.5352210000000 1.0
C      1  0.5418710000000  0.6078810000000  0.4641460000000 1.0
C      1  0.4689260000000  0.3954030000000  0.4598550000000 1.0
C      1  0.4178550000000  0.4632810000000  0.5633170000000 1.0
C      1  0.5790350000000  0.5365860000000  0.5681730000000 1.0
C      1  0.5752790000000  0.4718990000000  0.4230770000000 1.0
C      1  0.4149420000000  0.5336600000000  0.4362350000000 1.0
C      1  0.4508470000000  0.3968420000000  0.5867260000000 1.0
C      1  0.5152350000000  0.5981630000000  0.5711560000000 1.0
C      1  0.4748100000000  0.6016460000000  0.4262090000000 1.0
C      1  0.5103780000000  0.4100140000000  0.4327650000000 1.0
C      1  0.5374990000000  0.5024950000000  0.4439410000000 1.0
C      1  0.4680640000000  0.5111440000000  0.4353210000000 1.0
C      1  0.4631080000000  0.4966740000000  0.5530460000000 1.0
C      1  0.5292280000000  0.4983250000000  0.5484010000000 1.0
C      1  0.4925170000000  0.5276350000000  0.4437580000000 1.0
C      1  0.5014170000000  0.4675940000000  0.4489420000000 1.0
C      1  0.4947090000000  0.4597490000000  0.5639640000000 1.0
C      1  0.4987110000000  0.5381880000000  0.5577060000000 1.0
C      1  0.4008980000000  0.4588670000000  0.4976320000000 1.0
C      1  0.6006450000000  0.5370330000000  0.5038800000000 1.0
C      1  0.6103740000000  0.4498640000000  0.5071930000000 1.0
C      1  0.3988710000000  0.5396290000000  0.5021210000000 1.0
C      1  0.4653800000000  0.3887030000000  0.4930540000000 1.0
C      1  0.5528150000000  0.6119910000000  0.4950380000000 1.0
C      1  0.4574310000000  0.6132970000000  0.5037500000000 1.0
C      1  0.5472030000000  0.3874350000000  0.5067290000000 1.0
C      1  0.5519210000000  0.4777700000000  0.5893840000000 1.0
C      1  0.4442210000000  0.5184720000000  0.5911150000000 1.0
C      1  0.4506950000000  0.4835300000000  0.4058460000000 1.0
C      1  0.5453760000000  0.5183810000000  0.4081300000000 1.0
C      1  0.4711290000000  0.5381950000000  0.5864800000000 1.0
C      1  0.5240660000000  0.4591940000000  0.5947590000000 1.0
C      1  0.4724100000000  0.4578970000000  0.4111280000000 1.0
C      1  0.5254160000000  0.5444950000000  0.4082290000000 1.0
C      1  0.4793200000000  0.4338930000000  0.4562220000000 1.0
C      1  0.5112780000000  0.5713530000000  0.4490640000000 1.0
C      1  0.5157150000000  0.4273720000000  0.5536850000000 1.0
C      1  0.4841240000000  0.5698520000000  0.5382820000000 1.0
C      1  0.4295110000000  0.4895970000000  0.4491300000000 1.0
C      1  0.5820760000000  0.5162520000000  0.4464800000000 1.0
C      1  0.4201970000000  0.5088040000000  0.5512480000000 1.0
C      1  0.5730160000000  0.4913690000000  0.5512350000000 1.0
C      1  0.4414910000000  0.4126860000000  0.4496240000000 1.0
C      1  0.5594560000000  0.5840750000000  0.4501630000000 1.0
C      1  0.5609730000000  0.4083470000000  0.5479250000000 1.0
C      1  0.4486450000000  0.5876760000000  0.5488560000000 1.0
C      1  0.4223840000000  0.4413830000000  0.4506140000000 1.0
C      1  0.5692750000000  0.5525030000000  0.4571130000000 1.0
C      1  0.4305240000000  0.5590750000000  0.5421460000000 1.0
C      1  0.5843270000000  0.4531610000000  0.5530730000000 1.0
C      1  0.5648000000000  0.4171860000000  0.5153000000000 1.0
C      1  0.4377370000000  0.5889070000000  0.5169210000000 1.0
C      1  0.4375320000000  0.4053850000000  0.4821630000000 1.0
C      1  0.5736990000000  0.5896710000000  0.4800480000000 1.0
C      1  0.4127270000000  0.5659240000000  0.5152510000000 1.0
C      1  0.5799830000000  0.4428890000000  0.5212270000000 1.0
C      1  0.4206570000000  0.4348950000000  0.4837740000000 1.0
C      1  0.5951570000000  0.5638250000000  0.4853540000000 1.0
C      1  0.4811790000000  0.4479920000000  0.5095810000000 1.0
C      1  0.5269830000000  0.5528980000000  0.5044810000000 1.0
C      1  0.5325340000000  0.4518230000000  0.4982280000000 1.0
C      1  0.4801900000000  0.5489020000000  0.4910730000000 1.0
C      1  0.4521980000000  0.4838740000000  0.5020220000000 1.0
C      1  0.5497170000000  0.5277110000000  0.5034900000000 1.0
C      1  0.4484250000000  0.5235590000000  0.5020540000000 1.0
C      1  0.5460060000000  0.4822840000000  0.4927230000000 1.0
C      1  0.4396320000000  0.5291390000000  0.5344340000000 1.0
C      1  0.5552370000000  0.4666530000000  0.5417700000000 1.0
C      1  0.5507520000000  0.5300350000000  0.4695820000000 1.0
C      1  0.4515430000000  0.4749320000000  0.4704830000000 1.0
C      1  0.5302710000000  0.4467850000000  0.5298270000000 1.0
C      1  0.4820970000000  0.5433470000000  0.5217150000000 1.0
C      1  0.5165530000000  0.5496770000000  0.4747300000000 1.0
C      1  0.4761440000000  0.4555820000000  0.4774220000000 1.0
C      1  0.5028480000000  0.4345580000000  0.5843890000000 1.0
C      1  0.4974260000000  0.5584980000000  0.5849560000000 1.0
C      1  0.4971450000000  0.4409950000000  0.4281520000000 1.0
C      1  0.4980660000000  0.5524480000000  0.4256620000000 1.0
C      1  0.4370630000000  0.4897020000000  0.5737660000000 1.0
C      1  0.5642660000000  0.5072940000000  0.5776520000000 1.0
C      1  0.4363600000000  0.5103180000000  0.4230470000000 1.0
C      1  0.5507430000000  0.4875900000000  0.4163900000000 1.0
C      1  0.4669170000000  0.4442510000000  0.5519750000000 1.0
C      1  0.5288170000000  0.5504270000000  0.5517110000000 1.0
C      1  0.5309060000000  0.4518080000000  0.4549600000000 1.0
C      1  0.4664060000000  0.5589900000000  0.4517670000000 1.0
C      1  0.4516950000000  0.4681820000000  0.5426350000000 1.0
C      1  0.5446550000000  0.5263810000000  0.5479680000000 1.0
C      1  0.4519930000000  0.5323240000000  0.4548570000000 1.0
C      1  0.5506540000000  0.4750710000000  0.4542370000000 1.0
C      1  0.4509810000000  0.4220230000000  0.5721990000000 1.0
C      1  0.5408770000000  0.5756340000000  0.5710830000000 1.0
C      1  0.5396540000000  0.4286890000000  0.4323940000000 1.0
C      1  0.4636990000000  0.5726690000000  0.4237260000000 1.0
C      1  0.4224470000000  0.4392380000000  0.5764880000000 1.0
C      1  0.5703550000000  0.5607340000000  0.5791690000000 1.0
C      1  0.4322620000000  0.5622060000000  0.4314010000000 1.0
C      1  0.5698940000000  0.4447950000000  0.4299330000000 1.0
C      1  0.4981680000000  0.5176640000000  0.5838330000000 1.0
C      1  0.4975430000000  0.4788800000000  0.5919230000000 1.0
C      1  0.4981930000000  0.5283090000000  0.3939880000000 1.0
C      1  0.4982170000000  0.4794140000000  0.4172030000000 1.0
C      1  0.5256860000000  0.4980490000000  0.5818330000000 1.0
C      1  0.4713080000000  0.4987000000000  0.5922510000000 1.0
C      1  0.5173850000000  0.5010630000000  0.3992980000000 1.0
C      1  0.4780620000000  0.5036640000000  0.4044820000000 1.0
C      1  0.5164020000000  0.3940480000000  0.5469650000000 1.0
C      1  0.4998710000000  0.6104780000000  0.5509140000000 1.0
C      1  0.4952990000000  0.3921110000000  0.4490710000000 1.0
C      1  0.5151000000000  0.6047570000000  0.4541300000000 1.0
C      1  0.3903650000000  0.5064990000000  0.5417270000000 1.0
C      1  0.6038890000000  0.4881770000000  0.5460370000000 1.0
C      1  0.3964690000000  0.4868420000000  0.4519860000000 1.0
C      1  0.5931920000000  0.4873870000000  0.4382390000000 1.0
C      1  0.5478270000000  0.4262210000000  0.4892130000000 1.0
C      1  0.4633990000000  0.5739730000000  0.5043940000000 1.0
C      1  0.4572720000000  0.4270980000000  0.4974140000000 1.0
C      1  0.5444700000000  0.5746870000000  0.4860160000000 1.0
C      1  0.4376220000000  0.5551360000000  0.4955500000000 1.0
C      1  0.5751610000000  0.4655670000000  0.4982900000000 1.0
C      1  0.4401680000000  0.4544490000000  0.5027640000000 1.0
C      1  0.5666430000000  0.5574080000000  0.5022490000000 1.0
C      1  0.3837340000000  0.4801110000000  0.5374470000000 1.0
C      1  0.6152970000000  0.5131550000000  0.5437250000000 1.0
C      1  0.6096820000000  0.4742290000000  0.4556560000000 1.0
C      1  0.3857800000000  0.5112240000000  0.4600510000000 1.0
C      1  0.4915980000000  0.3840340000000  0.5427830000000 1.0
C      1  0.5174860000000  0.6201670000000  0.5317690000000 1.0
C      1  0.4861760000000  0.6097220000000  0.4502040000000 1.0
C      1  0.5131930000000  0.3789630000000  0.4674580000000 1.0
C      1  0.5239120000000  0.4461610000000  0.4078330000000 1.0
C      1  0.4750870000000  0.5510290000000  0.4014540000000 1.0
C      1  0.4702480000000  0.4423840000000  0.5914500000000 1.0
C      1  0.5268190000000  0.5524180000000  0.5915720000000 1.0
C      1  0.4458550000000  0.5400290000000  0.4095030000000 1.0
C      1  0.5320130000000  0.4710820000000  0.3976870000000 1.0
C      1  0.4591530000000  0.4687660000000  0.5889490000000 1.0
C      1  0.5402370000000  0.5271660000000  0.5916850000000 1.0
C      1  0.4877250000000  0.4141040000000  0.4896530000000 1.0
C      1  0.5130680000000  0.5876140000000  0.4910920000000 1.0
C      1  0.5103770000000  0.4132590000000  0.5125380000000 1.0
C      1  0.4894960000000  0.5916720000000  0.5127570000000 1.0
C      1  0.4160180000000  0.4856620000000  0.4865110000000 1.0
C      1  0.5913880000000  0.5137510000000  0.4896860000000 1.0
C      1  0.4112940000000  0.5101060000000  0.5076220000000 1.0
C      1  0.5810050000000  0.4935690000000  0.5081630000000 1.0
C      1  0.4882670000000  0.4251080000000  0.5337070000000 1.0
C      1  0.5169720000000  0.5683270000000  0.5292640000000 1.0
C      1  0.5104770000000  0.4278910000000  0.4684660000000 1.0
C      1  0.4869880000000  0.5764580000000  0.4723330000000 1.0
C      1  0.4302460000000  0.4886560000000  0.5259800000000 1.0
C      1  0.5686760000000  0.5151830000000  0.5287940000000 1.0
C      1  0.4327270000000  0.5125410000000  0.4740470000000 1.0
C      1  0.5660860000000  0.4998970000000  0.4716550000000 1.0
C      1  0.5924540000000  0.5374020000000  0.5369200000000 1.0
C      1  0.4108870000000  0.4610090000000  0.5301020000000 1.0
C      1  0.4078730000000  0.5352930000000  0.4695010000000 1.0
C      1  0.5975070000000  0.4532680000000  0.4759030000000 1.0
C      1  0.5327070000000  0.5961160000000  0.5175320000000 1.0
C      1  0.4683810000000  0.3987880000000  0.5254320000000 1.0
C      1  0.5255450000000  0.4021230000000  0.4850180000000 1.0
C      1  0.4658710000000  0.6029670000000  0.4751730000000 1.0
C      1  0.5056950000000  0.4655070000000  0.4826400000000 1.0
C      1  0.4967760000000  0.5235380000000  0.4757970000000 1.0
C      1  0.4918180000000  0.4673160000000  0.5309380000000 1.0
C      1  0.5021660000000  0.5201930000000  0.5288670000000 1.0
C      1  0.4727690000000  0.5041820000000  0.4881680000000 1.0
C      1  0.5238010000000  0.5011460000000  0.4751290000000 1.0
C      1  0.4813720000000  0.4958480000000  0.5267390000000 1.0
C      1  0.5277340000000  0.5078790000000  0.5169230000000 1.0
C      1  0.4278250000000  0.5624800000000  0.4651150000000 1.0
C      1  0.5854620000000  0.4335190000000  0.4551670000000 1.0
C      1  0.5719030000000  0.5639170000000  0.5312980000000 1.0
C      1  0.4314480000000  0.4342520000000  0.5278400000000 1.0
C      1  0.5578580000000  0.4222170000000  0.4603820000000 1.0
C      1  0.4383370000000  0.5911510000000  0.4627510000000 1.0
C      1  0.5539210000000  0.5826750000000  0.5404810000000 1.0
C      1  0.4447460000000  0.4133640000000  0.5399110000000 1.0
C      1  0.4680820000000  0.5270100000000  0.5480370000000 1.0
C      1  0.5248980000000  0.5305830000000  0.4483780000000 1.0
C      1  0.5243670000000  0.4680190000000  0.5540590000000 1.0
C      1  0.4735660000000  0.4854620000000  0.4511460000000 1.0
C      1  0.5024140000000  0.4925900000000  0.5001530000000 1.0
END
