TITL C-2622958-629-394 -0.00415449123317055 125000 -1031.42184720952 0 0 196 (C1) n - 1
REM
REM in /nfs/bkarasulu/CARBON/AIRSS/Generating-Clusters/AIREBO/with-SteepDescent/Higher-Symm/SD-CG/HFTN-CG
REM
REM
REM
REM
REM
REM ./C.cell (b20cbc046b6831c77cfcea5457e17084)
REM
REM compiler GCC version 9.2.1 20190827 (Red Hat 9.2.1-1)
REM options -cpp -mtune=generic -march=x86-64 -g -O0 -fpre-include=/usr/include/finclude/math-vector-fortran.h
REM seed 178846255 -404468392 -659926860 1324852069 -1292120072 -106929319 -2031073043 -335679837 801920051 2136971336 498582281 1236157605 870395108 774409392 -1363660960 1180999607 1002384401 -1152583373 -912750625 -208467423 798145469 -1580484082 880989129 461769953 1537736339 1733695463 -1261177395 691209483 47348650 -1605014100 1969514147 -1524851827 150404461
REM
CELL 1.54180   50.00000   50.00000   50.00000   90.00000   90.00000   90.00000
LATT -1
SFAC C  
C      1  0.5143320000000  0.4784940000000  0.5136410000000 1.0
C      1  0.5362050000000  0.5000110000000  0.5283250000000 1.0
C      1  0.5080250000000  0.5178330000000  0.5216540000000 1.0
C      1  0.4766880000000  0.5137970000000  0.5163160000000 1.0
C      1  0.4847230000000  0.4855200000000  0.5246490000000 1.0
C      1  0.4867860000000  0.4720820000000  0.4744950000000 1.0
C      1  0.4746160000000  0.5017820000000  0.4772050000000 1.0
C      1  0.4980820000000  0.5353160000000  0.4806090000000 1.0
C      1  0.5339540000000  0.5179680000000  0.4780940000000 1.0
C      1  0.5192470000000  0.4807700000000  0.4693080000000 1.0
C      1  0.4671750000000  0.4553730000000  0.4522800000000 1.0
C      1  0.5247220000000  0.4484560000000  0.4360810000000 1.0
C      1  0.5544520000000  0.5124480000000  0.4520780000000 1.0
C      1  0.5012270000000  0.5556260000000  0.4535230000000 1.0
C      1  0.4485310000000  0.5232690000000  0.4381840000000 1.0
C      1  0.5286000000000  0.4500190000000  0.5490390000000 1.0
C      1  0.4629840000000  0.4570290000000  0.5420830000000 1.0
C      1  0.4499000000000  0.5234040000000  0.5502780000000 1.0
C      1  0.5077480000000  0.5647980000000  0.5410750000000 1.0
C      1  0.5569200000000  0.5228150000000  0.5433360000000 1.0
C      1  0.5857870000000  0.5240540000000  0.4278190000000 1.0
C      1  0.5039960000000  0.5956330000000  0.4312890000000 1.0
C      1  0.4153750000000  0.5303560000000  0.4308890000000 1.0
C      1  0.4410940000000  0.4240240000000  0.4330880000000 1.0
C      1  0.5468730000000  0.4222310000000  0.4307820000000 1.0
C      1  0.4090520000000  0.5256730000000  0.5637250000000 1.0
C      1  0.4943990000000  0.5872490000000  0.5709390000000 1.0
C      1  0.5894950000000  0.5326780000000  0.5723480000000 1.0
C      1  0.5568810000000  0.4258100000000  0.5698020000000 1.0
C      1  0.4600610000000  0.4296640000000  0.5709800000000 1.0
C      1  0.5907410000000  0.4849060000000  0.5064260000000 1.0
C      1  0.5479390000000  0.5858280000000  0.5123840000000 1.0
C      1  0.4404600000000  0.5649570000000  0.5059230000000 1.0
C      1  0.4152200000000  0.4648050000000  0.5157570000000 1.0
C      1  0.5106260000000  0.4133260000000  0.5081970000000 1.0
C      1  0.4116530000000  0.4882260000000  0.4936410000000 1.0
C      1  0.4621350000000  0.5846790000000  0.4886710000000 1.0
C      1  0.5678360000000  0.5690220000000  0.4913430000000 1.0
C      1  0.5768510000000  0.4590460000000  0.4923020000000 1.0
C      1  0.4814070000000  0.4101680000000  0.4910890000000 1.0
C      1  0.5258000000000  0.5622830000000  0.5151500000000 1.0
C      1  0.4550380000000  0.5375290000000  0.5197720000000 1.0
C      1  0.4459830000000  0.4757000000000  0.5212410000000 1.0
C      1  0.5139120000000  0.4450260000000  0.5200810000000 1.0
C      1  0.5622610000000  0.4786040000000  0.5239210000000 1.0
C      1  0.4693520000000  0.5522550000000  0.4813960000000 1.0
C      1  0.5449600000000  0.5491700000000  0.4821590000000 1.0
C      1  0.5463280000000  0.4691790000000  0.4811280000000 1.0
C      1  0.4931440000000  0.4416940000000  0.4861500000000 1.0
C      1  0.4443020000000  0.4933760000000  0.4855000000000 1.0
C      1  0.4398490000000  0.5398090000000  0.4097690000000 1.0
C      1  0.4527190000000  0.4528440000000  0.4215980000000 1.0
C      1  0.5203910000000  0.4255050000000  0.4113620000000 1.0
C      1  0.5590800000000  0.5048360000000  0.4192520000000 1.0
C      1  0.5169290000000  0.5662260000000  0.4252800000000 1.0
C      1  0.5555900000000  0.5351810000000  0.5716450000000 1.0
C      1  0.5441010000000  0.4559680000000  0.5787230000000 1.0
C      1  0.4908510000000  0.4410090000000  0.5803340000000 1.0
C      1  0.4334560000000  0.5062620000000  0.5747680000000 1.0
C      1  0.4794430000000  0.5597400000000  0.5841900000000 1.0
C      1  0.4739750000000  0.5081120000000  0.4461520000000 1.0
C      1  0.4830110000000  0.4802110000000  0.4355290000000 1.0
C      1  0.5159410000000  0.4795010000000  0.4354800000000 1.0
C      1  0.5243920000000  0.5124540000000  0.4376470000000 1.0
C      1  0.4971630000000  0.5270180000000  0.4365350000000 1.0
C      1  0.5292620000000  0.4883850000000  0.5585380000000 1.0
C      1  0.5063750000000  0.4648340000000  0.5663330000000 1.0
C      1  0.4809390000000  0.4799810000000  0.5552290000000 1.0
C      1  0.4752470000000  0.5327830000000  0.5638910000000 1.0
C      1  0.5036590000000  0.5342330000000  0.5492110000000 1.0
C      1  0.5809310000000  0.4479890000000  0.5658720000000 1.0
C      1  0.5804810000000  0.5655220000000  0.5724350000000 1.0
C      1  0.4660690000000  0.5803750000000  0.5534170000000 1.0
C      1  0.4042590000000  0.4912300000000  0.5528790000000 1.0
C      1  0.4839020000000  0.4114580000000  0.5548670000000 1.0
C      1  0.4221550000000  0.4490090000000  0.4464310000000 1.0
C      1  0.4307530000000  0.5583220000000  0.4438040000000 1.0
C      1  0.5339900000000  0.5939880000000  0.4478170000000 1.0
C      1  0.5905360000000  0.4922310000000  0.4394540000000 1.0
C      1  0.5193910000000  0.4110810000000  0.4484900000000 1.0
C      1  0.5453200000000  0.4713500000000  0.4020900000000 1.0
C      1  0.5627800000000  0.5556690000000  0.4025580000000 1.0
C      1  0.4776360000000  0.5493740000000  0.4023830000000 1.0
C      1  0.4432620000000  0.4914990000000  0.4002330000000 1.0
C      1  0.4827850000000  0.4233540000000  0.3983100000000 1.0
C      1  0.4432930000000  0.4612640000000  0.5957150000000 1.0
C      1  0.4488270000000  0.5369080000000  0.5950880000000 1.0
C      1  0.5290240000000  0.5503970000000  0.5967770000000 1.0
C      1  0.5522800000000  0.4930180000000  0.5938830000000 1.0
C      1  0.5189200000000  0.4242280000000  0.6029500000000 1.0
C      1  0.5275380000000  0.5907270000000  0.5635610000000 1.0
C      1  0.4222730000000  0.5520870000000  0.5510800000000 1.0
C      1  0.4315000000000  0.4433980000000  0.5620560000000 1.0
C      1  0.5366080000000  0.4110610000000  0.5515010000000 1.0
C      1  0.5913230000000  0.4999390000000  0.5625910000000 1.0
C      1  0.4714650000000  0.5899790000000  0.4358620000000 1.0
C      1  0.5755650000000  0.5540860000000  0.4403540000000 1.0
C      1  0.5649640000000  0.4477650000000  0.4436090000000 1.0
C      1  0.4678550000000  0.4042620000000  0.4401260000000 1.0
C      1  0.4168570000000  0.4994440000000  0.4449700000000 1.0
C      1  0.4249320000000  0.5222780000000  0.6035100000000 1.0
C      1  0.4717490000000  0.4629280000000  0.5968740000000 1.0
C      1  0.5253300000000  0.4515570000000  0.6019540000000 1.0
C      1  0.5625220000000  0.5185070000000  0.5979250000000 1.0
C      1  0.4984260000000  0.5433180000000  0.6050550000000 1.0
C      1  0.5544260000000  0.5297350000000  0.3986000000000 1.0
C      1  0.5201390000000  0.4527520000000  0.3967020000000 1.0
C      1  0.4714970000000  0.4486310000000  0.3984700000000 1.0
C      1  0.4301950000000  0.5145960000000  0.3920670000000 1.0
C      1  0.5075420000000  0.5484770000000  0.4037270000000 1.0
C      1  0.5801660000000  0.5642000000000  0.5218980000000 1.0
C      1  0.4670950000000  0.6053900000000  0.5125020000000 1.0
C      1  0.3959130000000  0.5059970000000  0.5141370000000 1.0
C      1  0.4645720000000  0.3962230000000  0.5139180000000 1.0
C      1  0.5832070000000  0.4373620000000  0.5151570000000 1.0
C      1  0.4104640000000  0.5522090000000  0.4984980000000 1.0
C      1  0.5266200000000  0.6064250000000  0.5017410000000 1.0
C      1  0.6058180000000  0.4989010000000  0.4852280000000 1.0
C      1  0.5422680000000  0.4034030000000  0.5006890000000 1.0
C      1  0.4215890000000  0.4369350000000  0.5009110000000 1.0
C      1  0.6002560000000  0.4804480000000  0.5361760000000 1.0
C      1  0.5539960000000  0.5922510000000  0.5418680000000 1.0
C      1  0.4229530000000  0.5748320000000  0.5288690000000 1.0
C      1  0.4054630000000  0.4528140000000  0.5422810000000 1.0
C      1  0.5181190000000  0.3943410000000  0.5311510000000 1.0
C      1  0.3996620000000  0.4881380000000  0.4672330000000 1.0
C      1  0.4515510000000  0.6016140000000  0.4608420000000 1.0
C      1  0.5847770000000  0.5719860000000  0.4677600000000 1.0
C      1  0.5857530000000  0.4488860000000  0.4658760000000 1.0
C      1  0.4771260000000  0.3869320000000  0.4664260000000 1.0
C      1  0.5803160000000  0.5808820000000  0.5481020000000 1.0
C      1  0.4524690000000  0.6010970000000  0.5352430000000 1.0
C      1  0.3799470000000  0.4865420000000  0.5357090000000 1.0
C      1  0.4780990000000  0.3882970000000  0.5361750000000 1.0
C      1  0.5978260000000  0.4516300000000  0.5394900000000 1.0
C      1  0.4203870000000  0.5686570000000  0.4704920000000 1.0
C      1  0.5365460000000  0.6161220000000  0.4706450000000 1.0
C      1  0.6119730000000  0.4862320000000  0.4618880000000 1.0
C      1  0.5226840000000  0.3953410000000  0.4740770000000 1.0
C      1  0.4049360000000  0.4366200000000  0.4712310000000 1.0
C      1  0.4392430000000  0.4363880000000  0.5296990000000 1.0
C      1  0.5533490000000  0.4244080000000  0.5250590000000 1.0
C      1  0.5877590000000  0.5182600000000  0.5353170000000 1.0
C      1  0.5153820000000  0.5968050000000  0.5323760000000 1.0
C      1  0.4158690000000  0.5313740000000  0.5248540000000 1.0
C      1  0.5500740000000  0.4313390000000  0.4694000000000 1.0
C      1  0.4632230000000  0.4244360000000  0.4661390000000 1.0
C      1  0.4196710000000  0.5226300000000  0.4696910000000 1.0
C      1  0.4870580000000  0.5842770000000  0.4655340000000 1.0
C      1  0.5783330000000  0.5326860000000  0.4653510000000 1.0
C      1  0.4286260000000  0.4762640000000  0.4268540000000 1.0
C      1  0.4935690000000  0.4143740000000  0.4276680000000 1.0
C      1  0.5671950000000  0.4722530000000  0.4247790000000 1.0
C      1  0.5496790000000  0.5710530000000  0.4278480000000 1.0
C      1  0.4575400000000  0.5651330000000  0.4239980000000 1.0
C      1  0.5685170000000  0.4784020000000  0.5711950000000 1.0
C      1  0.5102410000000  0.4140630000000  0.5728200000000 1.0
C      1  0.4257830000000  0.4748910000000  0.5735310000000 1.0
C      1  0.4471050000000  0.5597420000000  0.5726720000000 1.0
C      1  0.5468740000000  0.5672910000000  0.5773680000000 1.0
C      1  0.5135900000000  0.5249190000000  0.5803860000000 1.0
C      1  0.4762910000000  0.5211420000000  0.5941970000000 1.0
C      1  0.4823360000000  0.4924450000000  0.5863990000000 1.0
C      1  0.5034440000000  0.4735110000000  0.6051610000000 1.0
C      1  0.5218990000000  0.4955890000000  0.5891870000000 1.0
C      1  0.4802180000000  0.5197850000000  0.4084510000000 1.0
C      1  0.5242650000000  0.5230370000000  0.4053360000000 1.0
C      1  0.5197410000000  0.4918580000000  0.4039950000000 1.0
C      1  0.4925240000000  0.4714800000000  0.4040750000000 1.0
C      1  0.4712030000000  0.4956080000000  0.3985560000000 1.0
C      1  0.5526900000000  0.5471920000000  0.5212410000000 1.0
C      1  0.4767850000000  0.5590620000000  0.5330990000000 1.0
C      1  0.4296300000000  0.5020320000000  0.5352350000000 1.0
C      1  0.4858830000000  0.4376700000000  0.5378440000000 1.0
C      1  0.5581310000000  0.4538900000000  0.5413480000000 1.0
C      1  0.4481150000000  0.5400920000000  0.4666590000000 1.0
C      1  0.5311630000000  0.5655360000000  0.4627540000000 1.0
C      1  0.5671880000000  0.4841360000000  0.4628170000000 1.0
C      1  0.5173650000000  0.4386410000000  0.4677920000000 1.0
C      1  0.4397550000000  0.4703530000000  0.4647370000000 1.0
C      1  0.5997160000000  0.5401010000000  0.5239380000000 1.0
C      1  0.4918680000000  0.6148120000000  0.5177600000000 1.0
C      1  0.3817840000000  0.5360780000000  0.5213340000000 1.0
C      1  0.4401870000000  0.4065930000000  0.5186240000000 1.0
C      1  0.5810000000000  0.4039390000000  0.5210090000000 1.0
C      1  0.3938790000000  0.5389210000000  0.4728410000000 1.0
C      1  0.5071620000000  0.6026650000000  0.4760240000000 1.0
C      1  0.5989430000000  0.5255000000000  0.4810110000000 1.0
C      1  0.5616660000000  0.4034430000000  0.4734070000000 1.0
C      1  0.4354060000000  0.4246620000000  0.4752580000000 1.0
C      1  0.5409920000000  0.4432620000000  0.4995900000000 1.0
C      1  0.4940070000000  0.5551500000000  0.5052010000000 1.0
C      1  0.4730760000000  0.4636810000000  0.5041740000000 1.0
C      1  0.4345920000000  0.5204520000000  0.4986450000000 1.0
C      1  0.5495100000000  0.5202710000000  0.5044740000000 1.0
C      1  0.5057520000000  0.5037740000000  0.4907550000000 1.0
END
