TITL C-2622955-8511-314 0.00185287362405936 125000 -1038.95203870377 0 0 190 (C1) n - 1
REM
REM in /nfs/bkarasulu/CARBON/AIRSS/Generating-Clusters/AIREBO/with-SteepDescent/Higher-Symm/SD-CG/HFTN-CG
REM
REM
REM
REM
REM
REM ./C.cell (b20cbc046b6831c77cfcea5457e17084)
REM
REM compiler GCC version 9.2.1 20190827 (Red Hat 9.2.1-1)
REM options -cpp -mtune=generic -march=x86-64 -g -O0 -fpre-include=/usr/include/finclude/math-vector-fortran.h
REM seed 444438323 1869641768 -1286956496 948477216 1852026643 315112133 1610754222 -2139812582 1554059694 -822400105 -938149363 -126581565 -390236527 629706665 500879595 -15470589 -1274151974 50668846 -715431227 895126733 -1681094419 764526067 -1878204315 -987174526 -2016417262 -1315617020 -1257528262 -1683673117 310145140 -1010126544 -755777650 -539925770 1938325616
REM
CELL 1.54180   50.00000   50.00000   50.00000   90.00000   90.00000   90.00000
LATT -1
SFAC C  
C      1  0.4436750000000  0.5516950000000  0.4601080000000 1.0
C      1  0.5497130000000  0.5503610000000  0.4611770000000 1.0
C      1  0.5542110000000  0.4467360000000  0.4633320000000 1.0
C      1  0.4523100000000  0.4430090000000  0.4511450000000 1.0
C      1  0.4353020000000  0.4515170000000  0.5505240000000 1.0
C      1  0.5550750000000  0.4438960000000  0.5480770000000 1.0
C      1  0.5649610000000  0.5445310000000  0.5475030000000 1.0
C      1  0.4392160000000  0.5558920000000  0.5466120000000 1.0
C      1  0.4165500000000  0.4816050000000  0.4758610000000 1.0
C      1  0.4899310000000  0.6030950000000  0.4621300000000 1.0
C      1  0.6010230000000  0.5160650000000  0.4675970000000 1.0
C      1  0.5144370000000  0.4161110000000  0.4645190000000 1.0
C      1  0.4115970000000  0.5224310000000  0.5289150000000 1.0
C      1  0.4829340000000  0.4199190000000  0.5340440000000 1.0
C      1  0.5860060000000  0.4826990000000  0.5247240000000 1.0
C      1  0.5209890000000  0.5829640000000  0.5370830000000 1.0
C      1  0.5429850000000  0.5422280000000  0.4163100000000 1.0
C      1  0.5406820000000  0.4521420000000  0.4092960000000 1.0
C      1  0.4513810000000  0.4619920000000  0.4030890000000 1.0
C      1  0.4583000000000  0.5534300000000  0.4139700000000 1.0
C      1  0.5487240000000  0.4619650000000  0.5969290000000 1.0
C      1  0.5363800000000  0.5451640000000  0.5915550000000 1.0
C      1  0.4487480000000  0.5379610000000  0.5856290000000 1.0
C      1  0.4607780000000  0.4514560000000  0.5940300000000 1.0
C      1  0.5148450000000  0.4159620000000  0.5389750000000 1.0
C      1  0.4130560000000  0.4937390000000  0.5403950000000 1.0
C      1  0.4727430000000  0.5725920000000  0.5319880000000 1.0
C      1  0.5849590000000  0.5117940000000  0.5351840000000 1.0
C      1  0.5215830000000  0.5917030000000  0.4627470000000 1.0
C      1  0.4169380000000  0.5109320000000  0.4666570000000 1.0
C      1  0.4814500000000  0.4117370000000  0.4597990000000 1.0
C      1  0.5912390000000  0.4900990000000  0.4546130000000 1.0
C      1  0.4375120000000  0.4248950000000  0.5480650000000 1.0
C      1  0.4201120000000  0.5638100000000  0.5197460000000 1.0
C      1  0.5731260000000  0.5765720000000  0.5490610000000 1.0
C      1  0.5764630000000  0.4427320000000  0.5218880000000 1.0
C      1  0.4346630000000  0.5787090000000  0.4680490000000 1.0
C      1  0.4270030000000  0.4431940000000  0.4730860000000 1.0
C      1  0.5602790000000  0.4170270000000  0.4573060000000 1.0
C      1  0.5780440000000  0.5595470000000  0.4768120000000 1.0
C      1  0.5628680000000  0.5866560000000  0.4819900000000 1.0
C      1  0.6104880000000  0.4601460000000  0.4858690000000 1.0
C      1  0.4355870000000  0.4109620000000  0.4748240000000 1.0
C      1  0.3904250000000  0.5341760000000  0.4853180000000 1.0
C      1  0.5589020000000  0.4154440000000  0.5194200000000 1.0
C      1  0.6073700000000  0.5332990000000  0.5100360000000 1.0
C      1  0.4380890000000  0.5810480000000  0.4982710000000 1.0
C      1  0.4037100000000  0.4628670000000  0.5170400000000 1.0
C      1  0.4922650000000  0.5765650000000  0.5513100000000 1.0
C      1  0.5901670000000  0.5141960000000  0.5674660000000 1.0
C      1  0.5029860000000  0.4178900000000  0.5685030000000 1.0
C      1  0.4084400000000  0.4939900000000  0.5719150000000 1.0
C      1  0.4952270000000  0.4093560000000  0.4304140000000 1.0
C      1  0.5868180000000  0.4928460000000  0.4247410000000 1.0
C      1  0.5065640000000  0.5956210000000  0.4334890000000 1.0
C      1  0.4134210000000  0.5038300000000  0.4349790000000 1.0
C      1  0.5700770000000  0.5034050000000  0.5862460000000 1.0
C      1  0.5097320000000  0.4349110000000  0.5951800000000 1.0
C      1  0.4381400000000  0.4951650000000  0.5850430000000 1.0
C      1  0.4914650000000  0.5590650000000  0.5791890000000 1.0
C      1  0.5576040000000  0.4949440000000  0.4181960000000 1.0
C      1  0.5038980000000  0.5705450000000  0.4143360000000 1.0
C      1  0.4367610000000  0.5081760000000  0.4118210000000 1.0
C      1  0.4912200000000  0.4332610000000  0.4092050000000 1.0
C      1  0.5371760000000  0.4051540000000  0.4480370000000 1.0
C      1  0.4089260000000  0.4609420000000  0.4538700000000 1.0
C      1  0.4411750000000  0.5982560000000  0.4505940000000 1.0
C      1  0.5984820000000  0.5461160000000  0.4575030000000 1.0
C      1  0.5528890000000  0.5938290000000  0.5480040000000 1.0
C      1  0.3998890000000  0.5499660000000  0.5425070000000 1.0
C      1  0.4612700000000  0.4111530000000  0.5523040000000 1.0
C      1  0.5913870000000  0.4598850000000  0.5461620000000 1.0
C      1  0.5045110000000  0.4041060000000  0.4932170000000 1.0
C      1  0.3990160000000  0.4848740000000  0.4999740000000 1.0
C      1  0.4901690000000  0.5895500000000  0.4911780000000 1.0
C      1  0.6125940000000  0.5109590000000  0.4940650000000 1.0
C      1  0.5132620000000  0.5929250000000  0.5076910000000 1.0
C      1  0.3947390000000  0.5120430000000  0.5052920000000 1.0
C      1  0.4785920000000  0.4086480000000  0.5063880000000 1.0
C      1  0.6080650000000  0.4849180000000  0.5032770000000 1.0
C      1  0.4785600000000  0.4734580000000  0.4854750000000 1.0
C      1  0.4745370000000  0.5199080000000  0.4813220000000 1.0
C      1  0.5226200000000  0.5271990000000  0.4823050000000 1.0
C      1  0.5114010000000  0.4775270000000  0.4775990000000 1.0
C      1  0.4927640000000  0.5158040000000  0.5067000000000 1.0
C      1  0.4922740000000  0.4828500000000  0.5151730000000 1.0
C      1  0.5244800000000  0.4730410000000  0.5103030000000 1.0
C      1  0.5257680000000  0.5217700000000  0.5127570000000 1.0
C      1  0.5002360000000  0.5399340000000  0.5374960000000 1.0
C      1  0.5464880000000  0.5092040000000  0.5456220000000 1.0
C      1  0.5166660000000  0.4526470000000  0.5543510000000 1.0
C      1  0.4702150000000  0.4841360000000  0.5413900000000 1.0
C      1  0.4947760000000  0.4487520000000  0.4510450000000 1.0
C      1  0.5379970000000  0.4825540000000  0.4570070000000 1.0
C      1  0.5014130000000  0.5480520000000  0.4529690000000 1.0
C      1  0.4524890000000  0.5099360000000  0.4496000000000 1.0
C      1  0.4509660000000  0.5882180000000  0.5264290000000 1.0
C      1  0.6103050000000  0.5340750000000  0.5393340000000 1.0
C      1  0.5442720000000  0.4057990000000  0.5425800000000 1.0
C      1  0.3967150000000  0.4652170000000  0.5460280000000 1.0
C      1  0.4527240000000  0.4023700000000  0.4542070000000 1.0
C      1  0.6088740000000  0.4639290000000  0.4577850000000 1.0
C      1  0.5532540000000  0.6010110000000  0.4588380000000 1.0
C      1  0.3934160000000  0.5314140000000  0.4556320000000 1.0
C      1  0.5264620000000  0.4769980000000  0.3993580000000 1.0
C      1  0.4743310000000  0.4783350000000  0.3995220000000 1.0
C      1  0.4749810000000  0.5356680000000  0.3991110000000 1.0
C      1  0.5244200000000  0.5319590000000  0.3953360000000 1.0
C      1  0.5187070000000  0.5274080000000  0.6067610000000 1.0
C      1  0.4657270000000  0.5264140000000  0.6056530000000 1.0
C      1  0.4709670000000  0.4760860000000  0.6133750000000 1.0
C      1  0.5260840000000  0.4780040000000  0.6055490000000 1.0
C      1  0.4316330000000  0.5889880000000  0.5485310000000 1.0
C      1  0.5966310000000  0.5561890000000  0.5510780000000 1.0
C      1  0.5500780000000  0.4086370000000  0.5697980000000 1.0
C      1  0.4013930000000  0.4548170000000  0.5710450000000 1.0
C      1  0.4459000000000  0.4090590000000  0.4284210000000 1.0
C      1  0.5904170000000  0.4547310000000  0.4362150000000 1.0
C      1  0.5475910000000  0.5890600000000  0.4327270000000 1.0
C      1  0.4048180000000  0.5427410000000  0.4330260000000 1.0
C      1  0.4775920000000  0.4267490000000  0.5939810000000 1.0
C      1  0.4374490000000  0.5184650000000  0.5601580000000 1.0
C      1  0.5217370000000  0.5678240000000  0.5844340000000 1.0
C      1  0.5728420000000  0.4756460000000  0.5897730000000 1.0
C      1  0.4727870000000  0.5767310000000  0.4217430000000 1.0
C      1  0.4290830000000  0.4764460000000  0.4105820000000 1.0
C      1  0.5247400000000  0.4291820000000  0.4084070000000 1.0
C      1  0.5636010000000  0.5249220000000  0.4301210000000 1.0
C      1  0.5897110000000  0.5437220000000  0.4310130000000 1.0
C      1  0.5336220000000  0.4052110000000  0.4201520000000 1.0
C      1  0.4098240000000  0.4648160000000  0.4274570000000 1.0
C      1  0.4672440000000  0.5968320000000  0.4401530000000 1.0
C      1  0.5910090000000  0.4627410000000  0.5724790000000 1.0
C      1  0.5299910000000  0.5890380000000  0.5693110000000 1.0
C      1  0.4105320000000  0.5364200000000  0.5663460000000 1.0
C      1  0.4667870000000  0.4042210000000  0.5780530000000 1.0
C      1  0.5524830000000  0.4873480000000  0.5203430000000 1.0
C      1  0.4922010000000  0.4525660000000  0.5307000000000 1.0
C      1  0.4451780000000  0.5278190000000  0.5283440000000 1.0
C      1  0.5290050000000  0.5518390000000  0.5283050000000 1.0
C      1  0.5676680000000  0.5215990000000  0.4638240000000 1.0
C      1  0.4744070000000  0.5473710000000  0.4670470000000 1.0
C      1  0.4497240000000  0.4890760000000  0.4763390000000 1.0
C      1  0.5236590000000  0.4457730000000  0.4783840000000 1.0
C      1  0.4800410000000  0.5050400000000  0.4394490000000 1.0
C      1  0.5162860000000  0.5215450000000  0.4376540000000 1.0
C      1  0.5174510000000  0.4685010000000  0.4371160000000 1.0
C      1  0.4873220000000  0.4769230000000  0.4448990000000 1.0
C      1  0.4762990000000  0.4738650000000  0.5737950000000 1.0
C      1  0.5043170000000  0.4778900000000  0.5616740000000 1.0
C      1  0.5240410000000  0.5024800000000  0.5672720000000 1.0
C      1  0.4782630000000  0.5165860000000  0.5476400000000 1.0
C      1  0.5822920000000  0.4554110000000  0.4958270000000 1.0
C      1  0.4531740000000  0.4263070000000  0.4975540000000 1.0
C      1  0.4159310000000  0.5449130000000  0.4961990000000 1.0
C      1  0.5393490000000  0.5813890000000  0.4970240000000 1.0
C      1  0.5821910000000  0.5454100000000  0.5031290000000 1.0
C      1  0.4683550000000  0.5665470000000  0.4927980000000 1.0
C      1  0.4322260000000  0.4520010000000  0.5057610000000 1.0
C      1  0.5339060000000  0.4208120000000  0.4990970000000 1.0
C      1  0.4583010000000  0.4996910000000  0.6065400000000 1.0
C      1  0.4918090000000  0.5362560000000  0.6025010000000 1.0
C      1  0.5312760000000  0.5034880000000  0.5951200000000 1.0
C      1  0.4979340000000  0.4651560000000  0.5988250000000 1.0
C      1  0.4699690000000  0.5071420000000  0.4090270000000 1.0
C      1  0.4990080000000  0.4641660000000  0.4088730000000 1.0
C      1  0.5281280000000  0.5053950000000  0.4128570000000 1.0
C      1  0.5006410000000  0.5460640000000  0.3960940000000 1.0
C      1  0.5581410000000  0.4655290000000  0.4352620000000 1.0
C      1  0.4588200000000  0.4370280000000  0.4188380000000 1.0
C      1  0.4377930000000  0.5352950000000  0.4323310000000 1.0
C      1  0.5279220000000  0.5619610000000  0.4368320000000 1.0
C      1  0.5534710000000  0.5289380000000  0.5724290000000 1.0
C      1  0.4675470000000  0.5445670000000  0.5598560000000 1.0
C      1  0.4329240000000  0.4622970000000  0.5805170000000 1.0
C      1  0.5383100000000  0.4396270000000  0.5773580000000 1.0
C      1  0.4396610000000  0.4761960000000  0.5285160000000 1.0
C      1  0.4738400000000  0.5424730000000  0.5162140000000 1.0
C      1  0.5588520000000  0.5265340000000  0.5191010000000 1.0
C      1  0.5303020000000  0.4427590000000  0.5248150000000 1.0
C      1  0.4413750000000  0.5273230000000  0.4837080000000 1.0
C      1  0.4752290000000  0.4408980000000  0.4761810000000 1.0
C      1  0.5667630000000  0.4764580000000  0.4740850000000 1.0
C      1  0.5213710000000  0.5607460000000  0.4768430000000 1.0
C      1  0.5628630000000  0.5045250000000  0.4928940000000 1.0
C      1  0.4984300000000  0.4427010000000  0.5009690000000 1.0
C      1  0.5040340000000  0.5540790000000  0.5053330000000 1.0
C      1  0.4408560000000  0.5020900000000  0.5065100000000 1.0
C      1  0.5062940000000  0.5007050000000  0.5404980000000 1.0
C      1  0.5019890000000  0.5078250000000  0.4652970000000 1.0
END
