TITL C-2622967-6265-721 -0.000663866338410435 125000 -484.63983875562 0 0 85 (C1) n - 1
REM
REM in /nfs/bkarasulu/CARBON/AIRSS/Generating-Clusters/AIREBO/with-SteepDescent/Higher-Symm/SD-CG/HFTN-CG
REM
REM
REM
REM
REM
REM ./C.cell (b20cbc046b6831c77cfcea5457e17084)
REM
REM compiler GCC version 9.2.1 20190827 (Red Hat 9.2.1-1)
REM options -cpp -mtune=generic -march=x86-64 -g -O0 -fpre-include=/usr/include/finclude/math-vector-fortran.h
REM seed -943041102 -1265491302 211584849 -1350910246 -1280885850 999946905 -1364301461 1838886358 -2138382723 -1486133649 1545600079 -1115177550 -812698161 2135732888 1894897341 1912871037 1385414926 1023893891 -1083079106 -236842958 -906494038 1964478610 -2009082308 1396203069 686292747 1067065674 461011871 979731790 -1830407815 888603774 -1538659428 -1434832131 -1003234345
REM
CELL 1.54180   50.00000   50.00000   50.00000   90.00000   90.00000   90.00000
LATT -1
SFAC C  
C      1  0.4899950000000  0.5279770000000  0.5089870000000 1.0
C      1  0.5026230000000  0.4893960000000  0.5309580000000 1.0
C      1  0.4898990000000  0.4699390000000  0.5090090000000 1.0
C      1  0.4839990000000  0.4877290000000  0.4678720000000 1.0
C      1  0.4875730000000  0.5199840000000  0.4782200000000 1.0
C      1  0.4636400000000  0.4822060000000  0.5018460000000 1.0
C      1  0.4522670000000  0.4963050000000  0.4744290000000 1.0
C      1  0.4410630000000  0.5172300000000  0.4957510000000 1.0
C      1  0.4592350000000  0.5243120000000  0.5207160000000 1.0
C      1  0.4527330000000  0.4945280000000  0.5263830000000 1.0
C      1  0.5968930000000  0.5291540000000  0.5709390000000 1.0
C      1  0.5930780000000  0.4620150000000  0.5463250000000 1.0
C      1  0.5969000000000  0.4442970000000  0.4662720000000 1.0
C      1  0.5828010000000  0.5147200000000  0.4368490000000 1.0
C      1  0.5972720000000  0.5677420000000  0.5012660000000 1.0
C      1  0.5799240000000  0.5477650000000  0.5051060000000 1.0
C      1  0.5849870000000  0.5187710000000  0.5490400000000 1.0
C      1  0.5733140000000  0.4717870000000  0.5207170000000 1.0
C      1  0.5817710000000  0.4668150000000  0.4695210000000 1.0
C      1  0.5614600000000  0.5133180000000  0.4633840000000 1.0
C      1  0.4909210000000  0.4405040000000  0.4947540000000 1.0
C      1  0.4845790000000  0.4784420000000  0.4361620000000 1.0
C      1  0.4729330000000  0.5471930000000  0.4657030000000 1.0
C      1  0.4929840000000  0.5374770000000  0.5415140000000 1.0
C      1  0.4929170000000  0.4816800000000  0.5590290000000 1.0
C      1  0.4514270000000  0.5598200000000  0.4826080000000 1.0
C      1  0.4710920000000  0.5338860000000  0.5637980000000 1.0
C      1  0.4714100000000  0.4568830000000  0.5583070000000 1.0
C      1  0.4682470000000  0.4327470000000  0.4742230000000 1.0
C      1  0.4767080000000  0.5009380000000  0.4195330000000 1.0
C      1  0.5057200000000  0.4622990000000  0.4732410000000 1.0
C      1  0.5132530000000  0.5173450000000  0.4596330000000 1.0
C      1  0.5179250000000  0.5446680000000  0.5098950000000 1.0
C      1  0.5150130000000  0.5158420000000  0.5473060000000 1.0
C      1  0.5192470000000  0.4555610000000  0.5184350000000 1.0
C      1  0.5003740000000  0.4426280000000  0.5602700000000 1.0
C      1  0.4515550000000  0.4248360000000  0.4566060000000 1.0
C      1  0.5027240000000  0.5132540000000  0.4138870000000 1.0
C      1  0.5195600000000  0.5826070000000  0.4759680000000 1.0
C      1  0.4705810000000  0.5530630000000  0.5837800000000 1.0
C      1  0.5002210000000  0.5676590000000  0.5373890000000 1.0
C      1  0.5097860000000  0.4856620000000  0.5872670000000 1.0
C      1  0.4899810000000  0.4173110000000  0.5175320000000 1.0
C      1  0.5072410000000  0.4623080000000  0.4179640000000 1.0
C      1  0.4939360000000  0.5568900000000  0.4410940000000 1.0
C      1  0.5096380000000  0.5306410000000  0.4352140000000 1.0
C      1  0.5124000000000  0.5730950000000  0.5025580000000 1.0
C      1  0.5254470000000  0.5096140000000  0.5732320000000 1.0
C      1  0.5094640000000  0.4345020000000  0.5350880000000 1.0
C      1  0.5095990000000  0.4477200000000  0.4460520000000 1.0
C      1  0.4620310000000  0.4178760000000  0.5322550000000 1.0
C      1  0.5016940000000  0.4432160000000  0.3951380000000 1.0
C      1  0.4636900000000  0.5431090000000  0.4345390000000 1.0
C      1  0.4839450000000  0.5816820000000  0.5135860000000 1.0
C      1  0.4802140000000  0.4974480000000  0.5934900000000 1.0
C      1  0.5200580000000  0.4906710000000  0.4079700000000 1.0
C      1  0.5107990000000  0.5799140000000  0.4520470000000 1.0
C      1  0.5132460000000  0.5819750000000  0.5583240000000 1.0
C      1  0.5143310000000  0.4537820000000  0.5812020000000 1.0
C      1  0.4988080000000  0.3919710000000  0.5096800000000 1.0
C      1  0.4300090000000  0.5407380000000  0.4840220000000 1.0
C      1  0.4503040000000  0.5526460000000  0.5286080000000 1.0
C      1  0.4535260000000  0.4856330000000  0.5547430000000 1.0
C      1  0.4258540000000  0.4458050000000  0.5564940000000 1.0
C      1  0.4385620000000  0.5044050000000  0.4477850000000 1.0
C      1  0.4654530000000  0.5073280000000  0.5725400000000 1.0
C      1  0.4512980000000  0.4363240000000  0.5486780000000 1.0
C      1  0.4969480000000  0.4271150000000  0.3759200000000 1.0
C      1  0.4559130000000  0.5169090000000  0.4290990000000 1.0
C      1  0.4588780000000  0.5706010000000  0.5078970000000 1.0
C      1  0.5415280000000  0.4746480000000  0.5173620000000 1.0
C      1  0.5324390000000  0.4770030000000  0.4785620000000 1.0
C      1  0.5343730000000  0.5015960000000  0.4653310000000 1.0
C      1  0.5449920000000  0.5295960000000  0.5115970000000 1.0
C      1  0.5318960000000  0.5038580000000  0.5221290000000 1.0
C      1  0.4116170000000  0.5132480000000  0.4490510000000 1.0
C      1  0.4087660000000  0.5356570000000  0.4662370000000 1.0
C      1  0.4053630000000  0.4887090000000  0.5724470000000 1.0
C      1  0.4259960000000  0.4734590000000  0.5632680000000 1.0
C      1  0.3915020000000  0.5023000000000  0.4350070000000 1.0
C      1  0.5609280000000  0.4678200000000  0.4903720000000 1.0
C      1  0.5824940000000  0.4889940000000  0.4547350000000 1.0
C      1  0.5647710000000  0.5327310000000  0.4846010000000 1.0
C      1  0.5720120000000  0.5353910000000  0.5311560000000 1.0
C      1  0.5874520000000  0.4927750000000  0.5424990000000 1.0
END
