TITL C-2622961-1971-147 -0.000431364873954034 125000 -826.297419826159 0 0 148 (C1) n - 1
REM
REM in /nfs/bkarasulu/CARBON/AIRSS/Generating-Clusters/AIREBO/with-SteepDescent/Higher-Symm/SD-CG/HFTN-CG
REM
REM
REM
REM
REM
REM ./C.cell (b20cbc046b6831c77cfcea5457e17084)
REM
REM compiler GCC version 9.2.1 20190827 (Red Hat 9.2.1-1)
REM options -cpp -mtune=generic -march=x86-64 -g -O0 -fpre-include=/usr/include/finclude/math-vector-fortran.h
REM seed 1706991394 1844483609 -969534767 335611665 -1643182450 -600835455 -1885095567 1116578520 -2004241469 -128171124 458025324 108991896 -1055972207 -1069918406 -284101657 1239294383 1108178299 -1199427451 -792444890 -996290187 -523611545 298722505 794762101 226820942 -935358349 -1238914366 114248699 -1898561536 -935887428 1402230035 1111827400 362167206 1758688111
REM
CELL 1.54180   50.00000   50.00000   50.00000   90.00000   90.00000   90.00000
LATT -1
SFAC C  
C      1  0.4608770000000  0.4922360000000  0.5477690000000 1.0
C      1  0.4912380000000  0.4895320000000  0.4366520000000 1.0
C      1  0.5691910000000  0.4797900000000  0.5233680000000 1.0
C      1  0.4608230000000  0.4979540000000  0.4611130000000 1.0
C      1  0.4805290000000  0.4821370000000  0.5737140000000 1.0
C      1  0.5649540000000  0.4951020000000  0.4964650000000 1.0
C      1  0.4787210000000  0.5329320000000  0.5155180000000 1.0
C      1  0.4938300000000  0.5357270000000  0.4646700000000 1.0
C      1  0.5418870000000  0.5426050000000  0.5204100000000 1.0
C      1  0.4724820000000  0.5461450000000  0.4847810000000 1.0
C      1  0.5066190000000  0.5521850000000  0.5365890000000 1.0
C      1  0.5202220000000  0.5389020000000  0.4823650000000 1.0
C      1  0.5892680000000  0.5350870000000  0.4793110000000 1.0
C      1  0.4808030000000  0.5432620000000  0.5739560000000 1.0
C      1  0.4466860000000  0.5358190000000  0.4407960000000 1.0
C      1  0.5839190000000  0.5436240000000  0.5278900000000 1.0
C      1  0.4841510000000  0.5433470000000  0.4170930000000 1.0
C      1  0.4398040000000  0.5353710000000  0.5586190000000 1.0
C      1  0.4309810000000  0.4756260000000  0.5860290000000 1.0
C      1  0.4708230000000  0.4711230000000  0.4044190000000 1.0
C      1  0.5992150000000  0.4647360000000  0.5286790000000 1.0
C      1  0.4341170000000  0.4736440000000  0.4244340000000 1.0
C      1  0.4880220000000  0.4620940000000  0.6001480000000 1.0
C      1  0.6030270000000  0.4840220000000  0.4687800000000 1.0
C      1  0.5494940000000  0.4661180000000  0.4397380000000 1.0
C      1  0.5289470000000  0.4697440000000  0.5759530000000 1.0
C      1  0.4192320000000  0.4691320000000  0.4731340000000 1.0
C      1  0.5535000000000  0.4701090000000  0.5588120000000 1.0
C      1  0.5277960000000  0.4595300000000  0.4142900000000 1.0
C      1  0.4108030000000  0.4631620000000  0.5292260000000 1.0
C      1  0.4434050000000  0.5066420000000  0.4234290000000 1.0
C      1  0.6027660000000  0.5052080000000  0.4883770000000 1.0
C      1  0.4700190000000  0.5180780000000  0.5891110000000 1.0
C      1  0.4424850000000  0.5079470000000  0.5816370000000 1.0
C      1  0.6049250000000  0.4955100000000  0.5149560000000 1.0
C      1  0.4689170000000  0.4983420000000  0.4048480000000 1.0
C      1  0.5498500000000  0.5796040000000  0.5578520000000 1.0
C      1  0.4294300000000  0.5632970000000  0.5113920000000 1.0
C      1  0.5275580000000  0.5764820000000  0.4321880000000 1.0
C      1  0.5486440000000  0.5667180000000  0.4501850000000 1.0
C      1  0.4290510000000  0.5662660000000  0.4837850000000 1.0
C      1  0.5232070000000  0.5797670000000  0.5697240000000 1.0
C      1  0.4016710000000  0.4847550000000  0.5148800000000 1.0
C      1  0.5269520000000  0.4913990000000  0.4188470000000 1.0
C      1  0.5574850000000  0.5013710000000  0.5548000000000 1.0
C      1  0.4137630000000  0.4903460000000  0.4891140000000 1.0
C      1  0.5171300000000  0.4975520000000  0.5762830000000 1.0
C      1  0.5569450000000  0.4982580000000  0.4315060000000 1.0
C      1  0.4713550000000  0.4281040000000  0.4368970000000 1.0
C      1  0.5640800000000  0.4369530000000  0.5113740000000 1.0
C      1  0.4547030000000  0.4589190000000  0.5475560000000 1.0
C      1  0.4895900000000  0.4273780000000  0.5679350000000 1.0
C      1  0.5613520000000  0.4621660000000  0.4886070000000 1.0
C      1  0.4410410000000  0.4260180000000  0.4406940000000 1.0
C      1  0.5051780000000  0.4617420000000  0.4394850000000 1.0
C      1  0.5397540000000  0.4635150000000  0.5284070000000 1.0
C      1  0.4258830000000  0.4417760000000  0.5138460000000 1.0
C      1  0.5023650000000  0.4632290000000  0.5557650000000 1.0
C      1  0.5361190000000  0.4587230000000  0.4701460000000 1.0
C      1  0.4424000000000  0.4508190000000  0.4854250000000 1.0
C      1  0.3878440000000  0.5219990000000  0.4845350000000 1.0
C      1  0.5653610000000  0.5261490000000  0.4218540000000 1.0
C      1  0.5331640000000  0.5353720000000  0.5919340000000 1.0
C      1  0.3983420000000  0.5173760000000  0.5140560000000 1.0
C      1  0.5581910000000  0.5298060000000  0.5726230000000 1.0
C      1  0.5371710000000  0.5409820000000  0.4147900000000 1.0
C      1  0.5538350000000  0.5377450000000  0.4509340000000 1.0
C      1  0.5119070000000  0.5476280000000  0.5683840000000 1.0
C      1  0.4439480000000  0.5397960000000  0.4723440000000 1.0
C      1  0.5521920000000  0.5510510000000  0.5508130000000 1.0
C      1  0.5159430000000  0.5457440000000  0.4409210000000 1.0
C      1  0.4261530000000  0.5346250000000  0.5186230000000 1.0
C      1  0.5855580000000  0.5294570000000  0.5524340000000 1.0
C      1  0.4110180000000  0.5233250000000  0.5450940000000 1.0
C      1  0.5094210000000  0.5362010000000  0.4026970000000 1.0
C      1  0.5866290000000  0.5337610000000  0.4474640000000 1.0
C      1  0.3999240000000  0.5198180000000  0.4624260000000 1.0
C      1  0.5198740000000  0.5188000000000  0.6099750000000 1.0
C      1  0.4721920000000  0.4379340000000  0.4051060000000 1.0
C      1  0.5924500000000  0.4447920000000  0.5065300000000 1.0
C      1  0.4487640000000  0.4524960000000  0.5746890000000 1.0
C      1  0.4727530000000  0.4413890000000  0.5862760000000 1.0
C      1  0.5934760000000  0.4576940000000  0.4798170000000 1.0
C      1  0.4422830000000  0.4474490000000  0.4183040000000 1.0
C      1  0.5223580000000  0.4104220000000  0.4868270000000 1.0
C      1  0.4986280000000  0.4065730000000  0.5298110000000 1.0
C      1  0.4740120000000  0.4011120000000  0.4885960000000 1.0
C      1  0.5244460000000  0.4079480000000  0.5177040000000 1.0
C      1  0.4981210000000  0.3915760000000  0.4793640000000 1.0
C      1  0.4709320000000  0.4076430000000  0.5176880000000 1.0
C      1  0.5814020000000  0.4599200000000  0.5568450000000 1.0
C      1  0.4154530000000  0.4688020000000  0.5565590000000 1.0
C      1  0.4994870000000  0.4555580000000  0.4004790000000 1.0
C      1  0.5826590000000  0.4728870000000  0.4448710000000 1.0
C      1  0.4132880000000  0.4733740000000  0.4452570000000 1.0
C      1  0.5153660000000  0.4594040000000  0.6027790000000 1.0
C      1  0.5791700000000  0.5698690000000  0.5169440000000 1.0
C      1  0.4450100000000  0.5670420000000  0.5552130000000 1.0
C      1  0.4785620000000  0.5693100000000  0.4287790000000 1.0
C      1  0.5791120000000  0.5662940000000  0.4886340000000 1.0
C      1  0.4535000000000  0.5673810000000  0.4423330000000 1.0
C      1  0.4649390000000  0.5696850000000  0.5748570000000 1.0
C      1  0.4758190000000  0.5776430000000  0.4858720000000 1.0
C      1  0.5259940000000  0.5702900000000  0.4828540000000 1.0
C      1  0.5006280000000  0.5822570000000  0.5281280000000 1.0
C      1  0.4729310000000  0.5845810000000  0.5156190000000 1.0
C      1  0.5300840000000  0.5736480000000  0.5130240000000 1.0
C      1  0.5012990000000  0.5842050000000  0.4709850000000 1.0
C      1  0.4279370000000  0.4980540000000  0.5538700000000 1.0
C      1  0.4990230000000  0.5072910000000  0.4087180000000 1.0
C      1  0.5881990000000  0.4999090000000  0.5431290000000 1.0
C      1  0.4280370000000  0.5028670000000  0.4535480000000 1.0
C      1  0.4943510000000  0.5014220000000  0.5981030000000 1.0
C      1  0.5645560000000  0.4937160000000  0.4643310000000 1.0
C      1  0.4311040000000  0.4253790000000  0.4658950000000 1.0
C      1  0.5374030000000  0.4251370000000  0.4614230000000 1.0
C      1  0.5212330000000  0.4350180000000  0.5581020000000 1.0
C      1  0.4160920000000  0.4212270000000  0.4906120000000 1.0
C      1  0.5414520000000  0.4296920000000  0.5316270000000 1.0
C      1  0.5187890000000  0.4305780000000  0.4397650000000 1.0
C      1  0.5001630000000  0.5823960000000  0.4427290000000 1.0
C      1  0.5561360000000  0.5833490000000  0.5277900000000 1.0
C      1  0.4480380000000  0.5764380000000  0.5283110000000 1.0
C      1  0.5057240000000  0.5962140000000  0.5557340000000 1.0
C      1  0.5572660000000  0.5777400000000  0.4753820000000 1.0
C      1  0.4503690000000  0.5789270000000  0.4676630000000 1.0
C      1  0.5105130000000  0.4420240000000  0.4850480000000 1.0
C      1  0.4886020000000  0.4385390000000  0.5358280000000 1.0
C      1  0.4715360000000  0.4335060000000  0.4874500000000 1.0
C      1  0.5118690000000  0.4501940000000  0.5141980000000 1.0
C      1  0.4869990000000  0.4427140000000  0.4604830000000 1.0
C      1  0.4584520000000  0.4391840000000  0.5201210000000 1.0
C      1  0.4958740000000  0.4833440000000  0.5291310000000 1.0
C      1  0.4644060000000  0.4768070000000  0.4869640000000 1.0
C      1  0.5207520000000  0.4869940000000  0.4813540000000 1.0
C      1  0.4920410000000  0.4869910000000  0.4699640000000 1.0
C      1  0.4676810000000  0.4891490000000  0.5145970000000 1.0
C      1  0.5229660000000  0.4897470000000  0.5147390000000 1.0
C      1  0.4333420000000  0.5137540000000  0.4853400000000 1.0
C      1  0.5381030000000  0.5134530000000  0.4688000000000 1.0
C      1  0.5207580000000  0.5165340000000  0.5589390000000 1.0
C      1  0.4512400000000  0.5166010000000  0.5118180000000 1.0
C      1  0.5363370000000  0.5114980000000  0.5329650000000 1.0
C      1  0.5217550000000  0.5143640000000  0.4406870000000 1.0
C      1  0.4701140000000  0.5247260000000  0.5474700000000 1.0
C      1  0.4768230000000  0.5200600000000  0.4408120000000 1.0
C      1  0.5672640000000  0.5270090000000  0.5039430000000 1.0
C      1  0.5104730000000  0.5330210000000  0.5115650000000 1.0
END
