TITL C-2622967-6265-307 0.000889841478920155 125000 -284.904123985592 0 0 51 (C1) n - 1
REM
REM in /nfs/bkarasulu/CARBON/AIRSS/Generating-Clusters/AIREBO/with-SteepDescent/Higher-Symm/SD-CG/HFTN-CG
REM
REM
REM
REM
REM
REM ./C.cell (b20cbc046b6831c77cfcea5457e17084)
REM
REM compiler GCC version 9.2.1 20190827 (Red Hat 9.2.1-1)
REM options -cpp -mtune=generic -march=x86-64 -g -O0 -fpre-include=/usr/include/finclude/math-vector-fortran.h
REM seed 938389157 -1781919102 97044819 193078617 -1223898289 1590989804 -2143135324 -732187887 439823459 -1728139635 1570679249 618960611 1196999014 -610979091 2107556471 814736163 -94980258 -560339241 -351170397 -970598372 1861661901 -73875612 -638213131 1511144532 -1838469707 755745691 481992015 1874922182 -1617625147 248208677 -1922492509 -1541291040 -1220641025
REM
CELL 1.54180   50.00000   50.00000   50.00000   90.00000   90.00000   90.00000
LATT -1
SFAC C  
C      1  0.5579970000000  0.5384100000000  0.4658770000000 1.0
C      1  0.4280300000000  0.5391190000000  0.4787780000000 1.0
C      1  0.5064490000000  0.5374620000000  0.5645800000000 1.0
C      1  0.5646350000000  0.4707290000000  0.4587420000000 1.0
C      1  0.4221210000000  0.4838280000000  0.4864110000000 1.0
C      1  0.5103610000000  0.4731200000000  0.5711790000000 1.0
C      1  0.4398590000000  0.5342780000000  0.4542170000000 1.0
C      1  0.5634440000000  0.5444620000000  0.4898110000000 1.0
C      1  0.4815240000000  0.5335020000000  0.5666760000000 1.0
C      1  0.4357870000000  0.4707150000000  0.4657100000000 1.0
C      1  0.5788110000000  0.4845960000000  0.4787140000000 1.0
C      1  0.4831190000000  0.4756880000000  0.5621300000000 1.0
C      1  0.4863450000000  0.5497300000000  0.5221610000000 1.0
C      1  0.5258720000000  0.5531480000000  0.5002660000000 1.0
C      1  0.4850450000000  0.5437950000000  0.4757290000000 1.0
C      1  0.4869050000000  0.4413880000000  0.5198550000000 1.0
C      1  0.5293260000000  0.4356260000000  0.4922930000000 1.0
C      1  0.4854840000000  0.4390610000000  0.4702000000000 1.0
C      1  0.5095410000000  0.5678620000000  0.5198400000000 1.0
C      1  0.4701470000000  0.5486660000000  0.4992620000000 1.0
C      1  0.5126780000000  0.5459620000000  0.4765560000000 1.0
C      1  0.5148980000000  0.4427950000000  0.5169290000000 1.0
C      1  0.4707100000000  0.4366500000000  0.4958810000000 1.0
C      1  0.5129250000000  0.4384110000000  0.4677490000000 1.0
C      1  0.5144330000000  0.4790030000000  0.4408690000000 1.0
C      1  0.4390730000000  0.4897700000000  0.5090060000000 1.0
C      1  0.5319040000000  0.4778580000000  0.5529450000000 1.0
C      1  0.5167370000000  0.5104770000000  0.4364700000000 1.0
C      1  0.4432330000000  0.5151100000000  0.5203390000000 1.0
C      1  0.5541660000000  0.4954040000000  0.5500750000000 1.0
C      1  0.4831090000000  0.4770100000000  0.4423710000000 1.0
C      1  0.5642440000000  0.4871930000000  0.5032610000000 1.0
C      1  0.4663790000000  0.4966420000000  0.5681210000000 1.0
C      1  0.4864900000000  0.5069690000000  0.4369740000000 1.0
C      1  0.5598220000000  0.5058430000000  0.5239280000000 1.0
C      1  0.4626020000000  0.5181340000000  0.5433550000000 1.0
C      1  0.4441270000000  0.5369260000000  0.5020620000000 1.0
C      1  0.5215990000000  0.5377850000000  0.5367760000000 1.0
C      1  0.5297360000000  0.5273570000000  0.4595710000000 1.0
C      1  0.4620760000000  0.4691740000000  0.5053950000000 1.0
C      1  0.5223470000000  0.4720290000000  0.5252720000000 1.0
C      1  0.5320900000000  0.4665040000000  0.4671040000000 1.0
C      1  0.5483010000000  0.5332710000000  0.5163510000000 1.0
C      1  0.4936520000000  0.5194340000000  0.5312970000000 1.0
C      1  0.4696980000000  0.5265950000000  0.4546330000000 1.0
C      1  0.5413660000000  0.4672370000000  0.4998290000000 1.0
C      1  0.4804300000000  0.4690590000000  0.5328370000000 1.0
C      1  0.4687710000000  0.4686190000000  0.4720400000000 1.0
C      1  0.4992140000000  0.4925060000000  0.5203130000000 1.0
C      1  0.4775130000000  0.5013060000000  0.4753980000000 1.0
C      1  0.5248760000000  0.4990360000000  0.4738620000000 1.0
END
