TITL C-2622965-4321-251 -0.00781385193105579 125000 -1068.54972676932 0 0 197 (C1) n - 1
REM
REM in /nfs/bkarasulu/CARBON/AIRSS/Generating-Clusters/AIREBO/with-SteepDescent/Higher-Symm/SD-CG/HFTN-CG
REM
REM
REM
REM
REM
REM ./C.cell (b20cbc046b6831c77cfcea5457e17084)
REM
REM compiler GCC version 9.2.1 20190827 (Red Hat 9.2.1-1)
REM options -cpp -mtune=generic -march=x86-64 -g -O0 -fpre-include=/usr/include/finclude/math-vector-fortran.h
REM seed -45191192 -2117133701 -556701138 784265527 643309397 -1295936602 -344125174 -1120696667 304325018 -348376578 36432828 1490669455 -1388194322 -1711504985 593985363 -1084062902 -592339971 1987588025 -1266175460 -1747704290 -1482543102 -1096030669 -1076067072 85667646 -1787434400 -529451026 -226939755 -1376796665 -2130464886 1244408053 162820668 1054370511 1542000093
REM
CELL 1.54180   50.00000   50.00000   50.00000   90.00000   90.00000   90.00000
LATT -1
SFAC C  
C      1  0.5222440000000  0.5557140000000  0.5820000000000 1.0
C      1  0.5148730000000  0.4334220000000  0.4511850000000 1.0
C      1  0.4533530000000  0.4866610000000  0.4193240000000 1.0
C      1  0.4938370000000  0.3994800000000  0.4502530000000 1.0
C      1  0.4810090000000  0.5339810000000  0.4665240000000 1.0
C      1  0.5971990000000  0.5114980000000  0.4421320000000 1.0
C      1  0.4443540000000  0.4089610000000  0.5307580000000 1.0
C      1  0.5412060000000  0.5824690000000  0.5227780000000 1.0
C      1  0.5240000000000  0.5352780000000  0.3821550000000 1.0
C      1  0.4624840000000  0.6013900000000  0.5261390000000 1.0
C      1  0.4143420000000  0.5497270000000  0.4321130000000 1.0
C      1  0.5941000000000  0.5601310000000  0.5385810000000 1.0
C      1  0.5069670000000  0.4712000000000  0.5681240000000 1.0
C      1  0.5118940000000  0.5383860000000  0.5436590000000 1.0
C      1  0.4887340000000  0.6069290000000  0.5434820000000 1.0
C      1  0.4869010000000  0.6108610000000  0.5027610000000 1.0
C      1  0.5167270000000  0.5720590000000  0.5439750000000 1.0
C      1  0.5461050000000  0.5406570000000  0.4841620000000 1.0
C      1  0.4243460000000  0.4796460000000  0.5454510000000 1.0
C      1  0.4423030000000  0.5561990000000  0.5622340000000 1.0
C      1  0.4420040000000  0.5825040000000  0.5397090000000 1.0
C      1  0.5702380000000  0.4180530000000  0.5274780000000 1.0
C      1  0.3947620000000  0.5190850000000  0.4618190000000 1.0
C      1  0.4725870000000  0.4138430000000  0.4714650000000 1.0
C      1  0.5152500000000  0.5667620000000  0.4613700000000 1.0
C      1  0.5680570000000  0.5807200000000  0.5436340000000 1.0
C      1  0.4667490000000  0.4504360000000  0.5518220000000 1.0
C      1  0.5847750000000  0.4971910000000  0.5694430000000 1.0
C      1  0.5556260000000  0.5831870000000  0.4746820000000 1.0
C      1  0.4841680000000  0.4856220000000  0.4259550000000 1.0
C      1  0.5142740000000  0.5565470000000  0.4215500000000 1.0
C      1  0.5074670000000  0.4473960000000  0.5436200000000 1.0
C      1  0.4138780000000  0.5685890000000  0.5510050000000 1.0
C      1  0.4339830000000  0.4203030000000  0.5564680000000 1.0
C      1  0.3916070000000  0.5238160000000  0.5355820000000 1.0
C      1  0.4500720000000  0.4018720000000  0.4505950000000 1.0
C      1  0.4848210000000  0.4249190000000  0.5518370000000 1.0
C      1  0.5710140000000  0.5531000000000  0.4967280000000 1.0
C      1  0.4210940000000  0.4125810000000  0.4773240000000 1.0
C      1  0.5128310000000  0.5372300000000  0.4780580000000 1.0
C      1  0.4520170000000  0.5238070000000  0.4532180000000 1.0
C      1  0.4446380000000  0.4461950000000  0.4007360000000 1.0
C      1  0.3732770000000  0.4710210000000  0.4111530000000 1.0
C      1  0.5676810000000  0.4689100000000  0.4509180000000 1.0
C      1  0.4453820000000  0.4300080000000  0.4785700000000 1.0
C      1  0.4686710000000  0.4983880000000  0.3913930000000 1.0
C      1  0.5416520000000  0.5047900000000  0.4010560000000 1.0
C      1  0.5146420000000  0.4324150000000  0.5139470000000 1.0
C      1  0.4108600000000  0.4920590000000  0.4489000000000 1.0
C      1  0.4465980000000  0.4953750000000  0.4710530000000 1.0
C      1  0.5528780000000  0.5075010000000  0.4629380000000 1.0
C      1  0.4762180000000  0.4878620000000  0.5225280000000 1.0
C      1  0.5402320000000  0.4771050000000  0.4673510000000 1.0
C      1  0.4579700000000  0.4832740000000  0.5508900000000 1.0
C      1  0.4904070000000  0.5715600000000  0.4970680000000 1.0
C      1  0.4630530000000  0.5086990000000  0.6033340000000 1.0
C      1  0.4275760000000  0.3875120000000  0.4633500000000 1.0
C      1  0.4047430000000  0.5470820000000  0.5317380000000 1.0
C      1  0.4954700000000  0.4124890000000  0.4233120000000 1.0
C      1  0.5910470000000  0.4879240000000  0.4551790000000 1.0
C      1  0.4697070000000  0.5601880000000  0.5215100000000 1.0
C      1  0.4382260000000  0.6023580000000  0.4792490000000 1.0
C      1  0.4985350000000  0.4768900000000  0.4804910000000 1.0
C      1  0.4455710000000  0.5086970000000  0.5089500000000 1.0
C      1  0.5369670000000  0.4854060000000  0.5760230000000 1.0
C      1  0.4443830000000  0.5432350000000  0.4191380000000 1.0
C      1  0.4838180000000  0.5733090000000  0.5447940000000 1.0
C      1  0.5765530000000  0.4450510000000  0.5077770000000 1.0
C      1  0.6027030000000  0.4835600000000  0.4803180000000 1.0
C      1  0.5086900000000  0.4573170000000  0.5979660000000 1.0
C      1  0.6070030000000  0.4942340000000  0.5115740000000 1.0
C      1  0.5572110000000  0.4161320000000  0.4414910000000 1.0
C      1  0.5791340000000  0.5198100000000  0.4763270000000 1.0
C      1  0.4473670000000  0.5550430000000  0.4622420000000 1.0
C      1  0.4446190000000  0.4198300000000  0.4302360000000 1.0
C      1  0.4773400000000  0.5677920000000  0.4658970000000 1.0
C      1  0.5187090000000  0.4654770000000  0.4339650000000 1.0
C      1  0.5507110000000  0.6070440000000  0.5528500000000 1.0
C      1  0.4067390000000  0.4763380000000  0.4789650000000 1.0
C      1  0.5059290000000  0.5068530000000  0.4920040000000 1.0
C      1  0.3923520000000  0.4783350000000  0.5572550000000 1.0
C      1  0.5171210000000  0.4364610000000  0.4173950000000 1.0
C      1  0.4271270000000  0.5179220000000  0.4339140000000 1.0
C      1  0.4491220000000  0.4721270000000  0.3898990000000 1.0
C      1  0.6048470000000  0.5418310000000  0.5568700000000 1.0
C      1  0.5652310000000  0.4455530000000  0.4260140000000 1.0
C      1  0.4524140000000  0.4512990000000  0.5001560000000 1.0
C      1  0.5753220000000  0.4369900000000  0.4570280000000 1.0
C      1  0.5907300000000  0.4706330000000  0.5526050000000 1.0
C      1  0.6115090000000  0.4904880000000  0.5405820000000 1.0
C      1  0.4941040000000  0.5669020000000  0.5757000000000 1.0
C      1  0.4217310000000  0.5175720000000  0.4781170000000 1.0
C      1  0.5044820000000  0.4704580000000  0.5200940000000 1.0
C      1  0.4471960000000  0.5262150000000  0.5342220000000 1.0
C      1  0.4917650000000  0.4485450000000  0.4674300000000 1.0
C      1  0.4394690000000  0.4739530000000  0.4456150000000 1.0
C      1  0.4934890000000  0.4134520000000  0.5783020000000 1.0
C      1  0.5132860000000  0.4902600000000  0.4131690000000 1.0
C      1  0.4927840000000  0.4308440000000  0.5994250000000 1.0
C      1  0.5515540000000  0.5504260000000  0.5220910000000 1.0
C      1  0.5251110000000  0.6030620000000  0.5529880000000 1.0
C      1  0.5916540000000  0.5886680000000  0.5054490000000 1.0
C      1  0.4586390000000  0.5927210000000  0.4558330000000 1.0
C      1  0.4473440000000  0.4966040000000  0.5803280000000 1.0
C      1  0.3812130000000  0.5052870000000  0.5575920000000 1.0
C      1  0.5447940000000  0.5340840000000  0.5495140000000 1.0
C      1  0.5373000000000  0.5088500000000  0.4915070000000 1.0
C      1  0.5276990000000  0.4911880000000  0.5259130000000 1.0
C      1  0.5653410000000  0.5099620000000  0.5495920000000 1.0
C      1  0.5412890000000  0.4731470000000  0.3905930000000 1.0
C      1  0.5845160000000  0.4271380000000  0.4822980000000 1.0
C      1  0.5569790000000  0.4935540000000  0.5100030000000 1.0
C      1  0.5447540000000  0.4462560000000  0.5151390000000 1.0
C      1  0.4381910000000  0.4669940000000  0.5910320000000 1.0
C      1  0.5647350000000  0.4310550000000  0.5814020000000 1.0
C      1  0.5479610000000  0.4850880000000  0.5479150000000 1.0
C      1  0.4286160000000  0.4468480000000  0.4281540000000 1.0
C      1  0.4616290000000  0.5900110000000  0.4960960000000 1.0
C      1  0.4447140000000  0.4488630000000  0.5301370000000 1.0
C      1  0.4767400000000  0.6170930000000  0.4714690000000 1.0
C      1  0.4868940000000  0.4937640000000  0.5653880000000 1.0
C      1  0.5344070000000  0.4125130000000  0.4574190000000 1.0
C      1  0.5061780000000  0.5354460000000  0.6030100000000 1.0
C      1  0.4645870000000  0.5411700000000  0.4954400000000 1.0
C      1  0.5127150000000  0.4909980000000  0.4530030000000 1.0
C      1  0.4361830000000  0.5544490000000  0.5210670000000 1.0
C      1  0.5150220000000  0.4899240000000  0.3792140000000 1.0
C      1  0.5272040000000  0.4654510000000  0.4953010000000 1.0
C      1  0.4152430000000  0.6131430000000  0.4818560000000 1.0
C      1  0.6025010000000  0.5564380000000  0.5058270000000 1.0
C      1  0.5361450000000  0.4387240000000  0.5550390000000 1.0
C      1  0.5017330000000  0.5085380000000  0.5316870000000 1.0
C      1  0.5491970000000  0.5013970000000  0.6172740000000 1.0
C      1  0.5015920000000  0.4833400000000  0.6126630000000 1.0
C      1  0.5499750000000  0.5345480000000  0.4026470000000 1.0
C      1  0.5398680000000  0.4001200000000  0.4840200000000 1.0
C      1  0.5920180000000  0.5419620000000  0.4563440000000 1.0
C      1  0.5160440000000  0.3966880000000  0.5756870000000 1.0
C      1  0.4771510000000  0.5141080000000  0.5009270000000 1.0
C      1  0.4936780000000  0.5140420000000  0.4420560000000 1.0
C      1  0.5435580000000  0.4511430000000  0.4062580000000 1.0
C      1  0.4711250000000  0.4294340000000  0.4139150000000 1.0
C      1  0.5428870000000  0.5474660000000  0.4301300000000 1.0
C      1  0.5280900000000  0.5868390000000  0.4740370000000 1.0
C      1  0.4223570000000  0.4296960000000  0.5151910000000 1.0
C      1  0.6027660000000  0.5218970000000  0.5843450000000 1.0
C      1  0.5304950000000  0.5266580000000  0.4509720000000 1.0
C      1  0.4606250000000  0.4515580000000  0.4600300000000 1.0
C      1  0.4192950000000  0.4964710000000  0.5000950000000 1.0
C      1  0.5062850000000  0.5208240000000  0.5723150000000 1.0
C      1  0.5160320000000  0.5933380000000  0.5021160000000 1.0
C      1  0.5800480000000  0.5035770000000  0.6021520000000 1.0
C      1  0.4979760000000  0.4261770000000  0.4904570000000 1.0
C      1  0.5076710000000  0.5455830000000  0.5106410000000 1.0
C      1  0.5811740000000  0.4745220000000  0.5047700000000 1.0
C      1  0.4304700000000  0.4445020000000  0.5790030000000 1.0
C      1  0.6188250000000  0.5126980000000  0.5555100000000 1.0
C      1  0.3712750000000  0.5290780000000  0.4630930000000 1.0
C      1  0.4752530000000  0.5396830000000  0.3736550000000 1.0
C      1  0.5960100000000  0.5230750000000  0.5045840000000 1.0
C      1  0.5529480000000  0.5132170000000  0.5873560000000 1.0
C      1  0.4040250000000  0.4972770000000  0.5246580000000 1.0
C      1  0.6355160000000  0.5668090000000  0.4654400000000 1.0
C      1  0.4170270000000  0.4482530000000  0.5498660000000 1.0
C      1  0.5633450000000  0.4088070000000  0.4979020000000 1.0
C      1  0.4397220000000  0.5725110000000  0.4358000000000 1.0
C      1  0.5746960000000  0.5421070000000  0.3921220000000 1.0
C      1  0.4764570000000  0.4908360000000  0.6203790000000 1.0
C      1  0.4706160000000  0.5445000000000  0.5690230000000 1.0
C      1  0.3906850000000  0.4664800000000  0.5262890000000 1.0
C      1  0.5389280000000  0.4531190000000  0.5846190000000 1.0
C      1  0.5514210000000  0.5426170000000  0.5880080000000 1.0
C      1  0.4331480000000  0.5438200000000  0.4886050000000 1.0
C      1  0.5505080000000  0.5634430000000  0.5633590000000 1.0
C      1  0.4006330000000  0.4513810000000  0.5005500000000 1.0
C      1  0.4881050000000  0.3931820000000  0.5104180000000 1.0
C      1  0.4664180000000  0.4770520000000  0.4917960000000 1.0
C      1  0.5674710000000  0.4140920000000  0.5544190000000 1.0
C      1  0.5062950000000  0.3953600000000  0.4817300000000 1.0
C      1  0.4755200000000  0.5330890000000  0.5972900000000 1.0
C      1  0.5382650000000  0.4072740000000  0.5631370000000 1.0
C      1  0.4730470000000  0.4058040000000  0.5296710000000 1.0
C      1  0.5691320000000  0.5213210000000  0.5206970000000 1.0
C      1  0.5616330000000  0.5543190000000  0.4577290000000 1.0
C      1  0.5648590000000  0.5922740000000  0.5003830000000 1.0
C      1  0.5180310000000  0.5059370000000  0.6044090000000 1.0
C      1  0.5087420000000  0.5811020000000  0.4146220000000 1.0
C      1  0.4747400000000  0.5206460000000  0.5484740000000 1.0
C      1  0.4954510000000  0.5332440000000  0.4181340000000 1.0
C      1  0.4755320000000  0.4559110000000  0.4316720000000 1.0
C      1  0.4962100000000  0.5167120000000  0.3884260000000 1.0
C      1  0.6127190000000  0.5571400000000  0.4733970000000 1.0
C      1  0.3978680000000  0.4240520000000  0.4843330000000 1.0
C      1  0.4376420000000  0.5225280000000  0.5655490000000 1.0
C      1  0.5615340000000  0.4575530000000  0.5424900000000 1.0
C      1  0.3901750000000  0.4802730000000  0.4278980000000 1.0
C      1  0.4683720000000  0.5412890000000  0.4030510000000 1.0
END
