TITL C-2622964-2985-676 -0.00201389406172604 125000 -471.237047283225 0 0 81 (C1) n - 1
REM
REM in /nfs/bkarasulu/CARBON/AIRSS/Generating-Clusters/AIREBO/with-SteepDescent/Higher-Symm/SD-CG/HFTN-CG
REM
REM
REM
REM
REM
REM ./C.cell (b20cbc046b6831c77cfcea5457e17084)
REM
REM compiler GCC version 9.2.1 20190827 (Red Hat 9.2.1-1)
REM options -cpp -mtune=generic -march=x86-64 -g -O0 -fpre-include=/usr/include/finclude/math-vector-fortran.h
REM seed -97343148 -1350508460 1277630777 1769412226 1059757708 304383292 -382867034 1927650810 -312555335 103009535 -89469299 1264037522 1358964159 1123828674 -1650385344 388255037 -684100229 1111436854 -529299405 2006915536 -1324381014 270252383 -216230118 341972081 -1357722736 -1364087325 -838383878 2125603567 1944128574 1860253404 -1724936866 437746954 1320919805
REM
CELL 1.54180   50.00000   50.00000   50.00000   90.00000   90.00000   90.00000
LATT -1
SFAC C  
C      1  0.4568820000000  0.4423440000000  0.4676100000000 1.0
C      1  0.5531610000000  0.4440250000000  0.4851170000000 1.0
C      1  0.4873130000000  0.4295760000000  0.5555640000000 1.0
C      1  0.4663410000000  0.5518830000000  0.4753680000000 1.0
C      1  0.5570210000000  0.5591070000000  0.4818770000000 1.0
C      1  0.4924310000000  0.5581430000000  0.5511480000000 1.0
C      1  0.4587880000000  0.4392580000000  0.5501850000000 1.0
C      1  0.5386250000000  0.4442170000000  0.5110830000000 1.0
C      1  0.4809500000000  0.4418870000000  0.4478440000000 1.0
C      1  0.4639360000000  0.5555130000000  0.5448950000000 1.0
C      1  0.5516430000000  0.5655980000000  0.5148190000000 1.0
C      1  0.4824190000000  0.5580120000000  0.4519360000000 1.0
C      1  0.5317230000000  0.5787320000000  0.4689700000000 1.0
C      1  0.5031620000000  0.5812760000000  0.5382990000000 1.0
C      1  0.4639290000000  0.5725150000000  0.4932950000000 1.0
C      1  0.5319950000000  0.4215200000000  0.4706140000000 1.0
C      1  0.5041710000000  0.4202510000000  0.5319120000000 1.0
C      1  0.4537790000000  0.4247040000000  0.4915270000000 1.0
C      1  0.5289320000000  0.5864670000000  0.5291730000000 1.0
C      1  0.5016630000000  0.5803300000000  0.4631570000000 1.0
C      1  0.4572900000000  0.5741840000000  0.5236390000000 1.0
C      1  0.5281640000000  0.4191610000000  0.5184010000000 1.0
C      1  0.5034330000000  0.4255040000000  0.4634770000000 1.0
C      1  0.4489180000000  0.4276200000000  0.5224870000000 1.0
C      1  0.5263310000000  0.5204150000000  0.5714790000000 1.0
C      1  0.4180640000000  0.5127770000000  0.4806110000000 1.0
C      1  0.5582210000000  0.5165430000000  0.4325570000000 1.0
C      1  0.5256110000000  0.4900730000000  0.5759480000000 1.0
C      1  0.4165840000000  0.4804570000000  0.4800100000000 1.0
C      1  0.5564980000000  0.4841600000000  0.4373220000000 1.0
C      1  0.5314960000000  0.5094850000000  0.4196930000000 1.0
C      1  0.4154600000000  0.5195210000000  0.5104700000000 1.0
C      1  0.5548540000000  0.5257480000000  0.5615440000000 1.0
C      1  0.5329190000000  0.4762960000000  0.4196740000000 1.0
C      1  0.4199670000000  0.4866140000000  0.5102300000000 1.0
C      1  0.5533220000000  0.4931580000000  0.5611810000000 1.0
C      1  0.4713390000000  0.5216590000000  0.4841510000000 1.0
C      1  0.5313800000000  0.5268000000000  0.4858240000000 1.0
C      1  0.4945570000000  0.5084090000000  0.5348790000000 1.0
C      1  0.4686920000000  0.4723120000000  0.4705200000000 1.0
C      1  0.5267660000000  0.4739130000000  0.4872120000000 1.0
C      1  0.4927620000000  0.4599810000000  0.5477460000000 1.0
C      1  0.4700150000000  0.5092330000000  0.5217390000000 1.0
C      1  0.5447000000000  0.5352500000000  0.5113840000000 1.0
C      1  0.5008770000000  0.5276300000000  0.4701030000000 1.0
C      1  0.4730520000000  0.4694190000000  0.5216590000000 1.0
C      1  0.5321310000000  0.4733150000000  0.5193250000000 1.0
C      1  0.4992200000000  0.4763000000000  0.4665630000000 1.0
C      1  0.4731000000000  0.4859300000000  0.5709350000000 1.0
C      1  0.4590390000000  0.4848600000000  0.4320380000000 1.0
C      1  0.5747100000000  0.4689800000000  0.4870950000000 1.0
C      1  0.4722230000000  0.5144840000000  0.5674170000000 1.0
C      1  0.4586410000000  0.5160530000000  0.4377320000000 1.0
C      1  0.5702330000000  0.5338600000000  0.4806260000000 1.0
C      1  0.4804970000000  0.4666610000000  0.4326850000000 1.0
C      1  0.4546080000000  0.4675120000000  0.5569740000000 1.0
C      1  0.5781530000000  0.4889710000000  0.5079520000000 1.0
C      1  0.4811640000000  0.5338860000000  0.4353070000000 1.0
C      1  0.4534850000000  0.5305130000000  0.5528680000000 1.0
C      1  0.5808720000000  0.5197600000000  0.5026990000000 1.0
C      1  0.4391970000000  0.5142870000000  0.5312930000000 1.0
C      1  0.5064720000000  0.5169250000000  0.4382640000000 1.0
C      1  0.5619120000000  0.5176560000000  0.5308490000000 1.0
C      1  0.4433070000000  0.4809520000000  0.5310380000000 1.0
C      1  0.5064330000000  0.4830360000000  0.4354310000000 1.0
C      1  0.5566590000000  0.4852490000000  0.5306710000000 1.0
C      1  0.4442190000000  0.5203280000000  0.4655920000000 1.0
C      1  0.5010880000000  0.5290930000000  0.5581280000000 1.0
C      1  0.5538020000000  0.5135250000000  0.4639550000000 1.0
C      1  0.4412820000000  0.4877200000000  0.4599590000000 1.0
C      1  0.5017630000000  0.4769380000000  0.5734770000000 1.0
C      1  0.5522410000000  0.4805250000000  0.4689840000000 1.0
C      1  0.4830540000000  0.5934440000000  0.5208390000000 1.0
C      1  0.5337090000000  0.4031080000000  0.4948070000000 1.0
C      1  0.4814430000000  0.4374160000000  0.5168630000000 1.0
C      1  0.4870470000000  0.5928560000000  0.4873930000000 1.0
C      1  0.4857360000000  0.4227160000000  0.4868940000000 1.0
C      1  0.5304720000000  0.5832870000000  0.4983110000000 1.0
C      1  0.4697510000000  0.4904810000000  0.4955770000000 1.0
C      1  0.5083250000000  0.4835370000000  0.5337700000000 1.0
C      1  0.5138800000000  0.5008410000000  0.4793530000000 1.0
END
