TITL C-2622967-6265-215 0.00176873790412368 125000 -906.528918982819 0 0 167 (C1) n - 1
REM
REM in /nfs/bkarasulu/CARBON/AIRSS/Generating-Clusters/AIREBO/with-SteepDescent/Higher-Symm/SD-CG/HFTN-CG
REM
REM
REM
REM
REM
REM ./C.cell (b20cbc046b6831c77cfcea5457e17084)
REM
REM compiler GCC version 9.2.1 20190827 (Red Hat 9.2.1-1)
REM options -cpp -mtune=generic -march=x86-64 -g -O0 -fpre-include=/usr/include/finclude/math-vector-fortran.h
REM seed -223236502 1593359084 -1092526642 136983059 -950313512 -2004453376 -310568612 1899572644 688444355 1037383220 -37329715 168714862 2132400814 -1703433237 112153578 -1561229127 1641955061 -673445471 -334130431 -1829088929 105711226 -443848112 -81782542 411113243 -695032877 1634466143 -1908253265 1923625934 726019562 -1586838863 625589843 -691636576 1591648262
REM
CELL 1.54180   50.00000   50.00000   50.00000   90.00000   90.00000   90.00000
LATT -1
SFAC C  
C      1  0.4918760000000  0.5336630000000  0.3951320000000 1.0
C      1  0.4756070000000  0.6060630000000  0.4485650000000 1.0
C      1  0.4096330000000  0.4537520000000  0.4633090000000 1.0
C      1  0.4215840000000  0.5154690000000  0.5703070000000 1.0
C      1  0.5568560000000  0.5283570000000  0.3985290000000 1.0
C      1  0.5741700000000  0.5216440000000  0.4905260000000 1.0
C      1  0.4703510000000  0.5519290000000  0.5871300000000 1.0
C      1  0.5307770000000  0.4941470000000  0.4945190000000 1.0
C      1  0.4459020000000  0.4723440000000  0.4138580000000 1.0
C      1  0.4425430000000  0.3969610000000  0.4362770000000 1.0
C      1  0.5693910000000  0.5479980000000  0.4199450000000 1.0
C      1  0.5568060000000  0.5040940000000  0.4826860000000 1.0
C      1  0.4520910000000  0.5426250000000  0.4794690000000 1.0
C      1  0.5620090000000  0.4201300000000  0.4252890000000 1.0
C      1  0.5902490000000  0.5052510000000  0.4395410000000 1.0
C      1  0.5389000000000  0.5949700000000  0.5370170000000 1.0
C      1  0.5221280000000  0.4294290000000  0.5758950000000 1.0
C      1  0.3621550000000  0.5093120000000  0.4784180000000 1.0
C      1  0.4312270000000  0.5867010000000  0.4881330000000 1.0
C      1  0.6017420000000  0.5226780000000  0.4731270000000 1.0
C      1  0.4802650000000  0.5287790000000  0.5984270000000 1.0
C      1  0.4417110000000  0.4155250000000  0.4647940000000 1.0
C      1  0.5203820000000  0.5590330000000  0.4256910000000 1.0
C      1  0.4822620000000  0.6052980000000  0.4972580000000 1.0
C      1  0.4395650000000  0.5917610000000  0.5508310000000 1.0
C      1  0.5114260000000  0.5697160000000  0.5770560000000 1.0
C      1  0.4559440000000  0.4950060000000  0.5239760000000 1.0
C      1  0.4227110000000  0.4276460000000  0.5338520000000 1.0
C      1  0.5119010000000  0.5163850000000  0.4248910000000 1.0
C      1  0.4573960000000  0.4438140000000  0.4648900000000 1.0
C      1  0.4006290000000  0.4809750000000  0.5432750000000 1.0
C      1  0.5159090000000  0.4148380000000  0.5098820000000 1.0
C      1  0.4670830000000  0.5690890000000  0.4897860000000 1.0
C      1  0.6028160000000  0.4971170000000  0.5507840000000 1.0
C      1  0.4546420000000  0.5710820000000  0.5988110000000 1.0
C      1  0.4168020000000  0.4809610000000  0.4229610000000 1.0
C      1  0.4606340000000  0.4928150000000  0.3975960000000 1.0
C      1  0.4940650000000  0.4199080000000  0.4548600000000 1.0
C      1  0.5625670000000  0.3992720000000  0.4094350000000 1.0
C      1  0.4933250000000  0.4976410000000  0.5961600000000 1.0
C      1  0.4900950000000  0.3988810000000  0.5252360000000 1.0
C      1  0.5235550000000  0.5213560000000  0.3968730000000 1.0
C      1  0.5514540000000  0.4865380000000  0.5363440000000 1.0
C      1  0.5034070000000  0.5050530000000  0.5245750000000 1.0
C      1  0.4651600000000  0.4440570000000  0.5769660000000 1.0
C      1  0.4914470000000  0.4769110000000  0.5254190000000 1.0
C      1  0.4906670000000  0.4504760000000  0.4672700000000 1.0
C      1  0.5863670000000  0.5144050000000  0.5640520000000 1.0
C      1  0.4537120000000  0.5728010000000  0.5187450000000 1.0
C      1  0.4909150000000  0.4940030000000  0.4235600000000 1.0
C      1  0.4644770000000  0.5207830000000  0.4102360000000 1.0
C      1  0.4302480000000  0.4159790000000  0.5030130000000 1.0
C      1  0.4581050000000  0.5990780000000  0.4762020000000 1.0
C      1  0.5100580000000  0.4694710000000  0.5892300000000 1.0
C      1  0.4486710000000  0.5536010000000  0.4265730000000 1.0
C      1  0.4663210000000  0.4724800000000  0.5478960000000 1.0
C      1  0.5009530000000  0.4533780000000  0.5420230000000 1.0
C      1  0.3855640000000  0.5168730000000  0.4905160000000 1.0
C      1  0.4178870000000  0.4856270000000  0.5640000000000 1.0
C      1  0.5639020000000  0.4449350000000  0.4866850000000 1.0
C      1  0.5191280000000  0.4555420000000  0.4855500000000 1.0
C      1  0.5425510000000  0.6172610000000  0.4729230000000 1.0
C      1  0.5577460000000  0.5856810000000  0.5608840000000 1.0
C      1  0.4734580000000  0.5499220000000  0.4379710000000 1.0
C      1  0.5777100000000  0.5406260000000  0.5479100000000 1.0
C      1  0.4088360000000  0.4962500000000  0.4928740000000 1.0
C      1  0.4542990000000  0.4165950000000  0.5701980000000 1.0
C      1  0.5382500000000  0.4663450000000  0.5862330000000 1.0
C      1  0.5105330000000  0.5014770000000  0.4697700000000 1.0
C      1  0.5463360000000  0.5453300000000  0.5061650000000 1.0
C      1  0.6062410000000  0.4691710000000  0.5551270000000 1.0
C      1  0.4709330000000  0.4549710000000  0.4289490000000 1.0
C      1  0.5719710000000  0.5007790000000  0.4116140000000 1.0
C      1  0.5748420000000  0.5423650000000  0.5174900000000 1.0
C      1  0.4396440000000  0.5190370000000  0.5918840000000 1.0
C      1  0.5624540000000  0.4282360000000  0.5334430000000 1.0
C      1  0.4683940000000  0.5890250000000  0.5518970000000 1.0
C      1  0.4517750000000  0.4936840000000  0.4740720000000 1.0
C      1  0.4196030000000  0.4353520000000  0.4813800000000 1.0
C      1  0.4921960000000  0.4864140000000  0.5650820000000 1.0
C      1  0.4713990000000  0.4748120000000  0.5026900000000 1.0
C      1  0.4336510000000  0.5271160000000  0.4238630000000 1.0
C      1  0.5630840000000  0.5147730000000  0.5857650000000 1.0
C      1  0.5482170000000  0.5036850000000  0.4352620000000 1.0
C      1  0.5248200000000  0.6019540000000  0.4839990000000 1.0
C      1  0.4631160000000  0.4462950000000  0.4958190000000 1.0
C      1  0.5125780000000  0.5311720000000  0.4530840000000 1.0
C      1  0.5636670000000  0.4888400000000  0.4589330000000 1.0
C      1  0.5263680000000  0.5505210000000  0.5917390000000 1.0
C      1  0.5274130000000  0.5836510000000  0.5111400000000 1.0
C      1  0.4684900000000  0.5196810000000  0.4722480000000 1.0
C      1  0.5972950000000  0.5533890000000  0.4980830000000 1.0
C      1  0.4852280000000  0.5600290000000  0.5576460000000 1.0
C      1  0.4268090000000  0.5623780000000  0.4749250000000 1.0
C      1  0.5076320000000  0.5576120000000  0.4017810000000 1.0
C      1  0.5338510000000  0.5632170000000  0.4847270000000 1.0
C      1  0.4569940000000  0.4470480000000  0.5275890000000 1.0
C      1  0.4112690000000  0.5562580000000  0.5111890000000 1.0
C      1  0.5308820000000  0.5059380000000  0.5819510000000 1.0
C      1  0.4882100000000  0.4842250000000  0.3911000000000 1.0
C      1  0.5217970000000  0.4954080000000  0.5509220000000 1.0
C      1  0.4979110000000  0.4686640000000  0.4394680000000 1.0
C      1  0.5399100000000  0.4307060000000  0.5548830000000 1.0
C      1  0.4965420000000  0.5899890000000  0.4704550000000 1.0
C      1  0.4404280000000  0.4655190000000  0.5676070000000 1.0
C      1  0.5094620000000  0.5657630000000  0.5338080000000 1.0
C      1  0.4277240000000  0.5092940000000  0.5160120000000 1.0
C      1  0.3894650000000  0.5425050000000  0.5026410000000 1.0
C      1  0.6023350000000  0.4905020000000  0.4680490000000 1.0
C      1  0.4832500000000  0.4826450000000  0.4739340000000 1.0
C      1  0.4668960000000  0.4025490000000  0.5503210000000 1.0
C      1  0.5881480000000  0.4502210000000  0.5369800000000 1.0
C      1  0.4922130000000  0.5166470000000  0.4933050000000 1.0
C      1  0.4333020000000  0.5271040000000  0.5445830000000 1.0
C      1  0.5412430000000  0.4543080000000  0.4631090000000 1.0
C      1  0.6071070000000  0.4580290000000  0.4638620000000 1.0
C      1  0.4758190000000  0.5974120000000  0.5229150000000 1.0
C      1  0.5494090000000  0.4196400000000  0.5042080000000 1.0
C      1  0.5571350000000  0.5553820000000  0.4640370000000 1.0
C      1  0.5532300000000  0.5199420000000  0.5424970000000 1.0
C      1  0.4960980000000  0.3682530000000  0.5216350000000 1.0
C      1  0.5301520000000  0.5204440000000  0.5102960000000 1.0
C      1  0.4443340000000  0.4652640000000  0.4471590000000 1.0
C      1  0.5263770000000  0.4808290000000  0.4478810000000 1.0
C      1  0.4235870000000  0.5855240000000  0.5212430000000 1.0
C      1  0.4928300000000  0.5288260000000  0.5464760000000 1.0
C      1  0.5338380000000  0.4678830000000  0.5136840000000 1.0
C      1  0.5496290000000  0.3905840000000  0.4916900000000 1.0
C      1  0.4081540000000  0.4745720000000  0.5170210000000 1.0
C      1  0.5247420000000  0.3811480000000  0.4863290000000 1.0
C      1  0.5002740000000  0.5628840000000  0.4904440000000 1.0
C      1  0.5262160000000  0.5911780000000  0.5663610000000 1.0
C      1  0.5464130000000  0.4972980000000  0.3894580000000 1.0
C      1  0.5244700000000  0.4395420000000  0.5280470000000 1.0
C      1  0.5814870000000  0.5365420000000  0.4495870000000 1.0
C      1  0.3963200000000  0.5273700000000  0.5760280000000 1.0
C      1  0.5537910000000  0.5460100000000  0.5874210000000 1.0
C      1  0.4256000000000  0.4535830000000  0.5162710000000 1.0
C      1  0.5125030000000  0.5248280000000  0.5993490000000 1.0
C      1  0.5551920000000  0.4853140000000  0.5701280000000 1.0
C      1  0.5867490000000  0.5656600000000  0.4762770000000 1.0
C      1  0.6046720000000  0.5040910000000  0.5216330000000 1.0
C      1  0.4011020000000  0.4613740000000  0.4358690000000 1.0
C      1  0.4353570000000  0.5394350000000  0.5067270000000 1.0
C      1  0.4929670000000  0.5424700000000  0.5153270000000 1.0
C      1  0.5623480000000  0.4399140000000  0.4434530000000 1.0
C      1  0.6109520000000  0.5251840000000  0.5054330000000 1.0
C      1  0.5786600000000  0.4625520000000  0.4522880000000 1.0
C      1  0.4695800000000  0.4098410000000  0.4461590000000 1.0
C      1  0.4762600000000  0.5185490000000  0.4420540000000 1.0
C      1  0.4999500000000  0.5626480000000  0.4504830000000 1.0
C      1  0.5889080000000  0.4678230000000  0.4908690000000 1.0
C      1  0.4309770000000  0.4333850000000  0.5603200000000 1.0
C      1  0.5861100000000  0.4324760000000  0.5093570000000 1.0
C      1  0.5057830000000  0.4042480000000  0.4791920000000 1.0
C      1  0.5673470000000  0.5607150000000  0.5677390000000 1.0
C      1  0.4221850000000  0.4853690000000  0.4633420000000 1.0
C      1  0.4190490000000  0.5071500000000  0.4368730000000 1.0
C      1  0.5115970000000  0.3606270000000  0.5002010000000 1.0
C      1  0.5249360000000  0.5357140000000  0.5383480000000 1.0
C      1  0.4571420000000  0.5510530000000  0.5406690000000 1.0
C      1  0.5429950000000  0.5371110000000  0.4390870000000 1.0
C      1  0.4942170000000  0.4472380000000  0.5720330000000 1.0
C      1  0.4635970000000  0.5258440000000  0.5194830000000 1.0
C      1  0.4602130000000  0.4139190000000  0.5189760000000 1.0
C      1  0.5816580000000  0.4788080000000  0.5222660000000 1.0
C      1  0.4804810000000  0.4191770000000  0.4921890000000 1.0
END
