TITL C-2622954-8726-69 0.000483045513196459 125000 -250.594615338214 0 0 46 (C1) n - 1
REM
REM in /nfs/bkarasulu/CARBON/AIRSS/Generating-Clusters/AIREBO/with-SteepDescent/Higher-Symm/SD-CG/HFTN-CG
REM
REM
REM
REM
REM
REM ./C.cell (b20cbc046b6831c77cfcea5457e17084)
REM
REM compiler GCC version 9.2.1 20190827 (Red Hat 9.2.1-1)
REM options -cpp -mtune=generic -march=x86-64 -g -O0 -fpre-include=/usr/include/finclude/math-vector-fortran.h
REM seed 137739833 1398323791 -1218253736 219257649 1910240271 394129125 -1839433747 893481406 -1166791279 2144435212 1929741435 635452396 89485204 -1043335760 -1605149667 -1224651272 1063247773 -219512013 -1600192254 987637100 -2098831371 300403645 1945485136 694082644 1510049533 -1270214168 -1742747556 881933097 1892420974 1006560784 -1295920591 -587516038 756742751
REM
CELL 1.54180   50.00000   50.00000   50.00000   90.00000   90.00000   90.00000
LATT -1
SFAC C  
C      1  0.4996370000000  0.5381510000000  0.4766000000000 1.0
C      1  0.5359500000000  0.5324580000000  0.5208510000000 1.0
C      1  0.4675090000000  0.5269250000000  0.5171140000000 1.0
C      1  0.5091070000000  0.5254760000000  0.5354760000000 1.0
C      1  0.5262020000000  0.5211980000000  0.4907700000000 1.0
C      1  0.4699740000000  0.5374730000000  0.4902840000000 1.0
C      1  0.5592660000000  0.4898990000000  0.5014160000000 1.0
C      1  0.4520910000000  0.4796600000000  0.5308040000000 1.0
C      1  0.5075080000000  0.4668360000000  0.4390510000000 1.0
C      1  0.5532470000000  0.4820900000000  0.4741730000000 1.0
C      1  0.4501390000000  0.4761340000000  0.4771450000000 1.0
C      1  0.4618140000000  0.4842550000000  0.5619510000000 1.0
C      1  0.4601420000000  0.5313690000000  0.4457780000000 1.0
C      1  0.5570490000000  0.5491170000000  0.4780360000000 1.0
C      1  0.4890770000000  0.5367960000000  0.5595070000000 1.0
C      1  0.4644700000000  0.5397670000000  0.5467580000000 1.0
C      1  0.5525020000000  0.5521750000000  0.5025400000000 1.0
C      1  0.4879750000000  0.5384140000000  0.4446570000000 1.0
C      1  0.5026570000000  0.4920980000000  0.5349140000000 1.0
C      1  0.4765470000000  0.4897540000000  0.4872680000000 1.0
C      1  0.5173620000000  0.4883710000000  0.4901540000000 1.0
C      1  0.4966020000000  0.5050270000000  0.4695210000000 1.0
C      1  0.4756890000000  0.4973840000000  0.5165000000000 1.0
C      1  0.5318520000000  0.4827110000000  0.5202260000000 1.0
C      1  0.5316130000000  0.4504540000000  0.5256390000000 1.0
C      1  0.4613730000000  0.4526990000000  0.5184950000000 1.0
C      1  0.5075150000000  0.4484140000000  0.4608660000000 1.0
C      1  0.5299360000000  0.4585210000000  0.4789010000000 1.0
C      1  0.4633080000000  0.4521530000000  0.4901830000000 1.0
C      1  0.5054370000000  0.4580130000000  0.5372890000000 1.0
C      1  0.4355870000000  0.5030480000000  0.5153470000000 1.0
C      1  0.5152170000000  0.4927710000000  0.4473950000000 1.0
C      1  0.5571150000000  0.5010860000000  0.5336490000000 1.0
C      1  0.4387900000000  0.5028140000000  0.4864130000000 1.0
C      1  0.4879410000000  0.4937790000000  0.5646040000000 1.0
C      1  0.5422730000000  0.4999060000000  0.4548170000000 1.0
C      1  0.4511300000000  0.5255170000000  0.4727630000000 1.0
C      1  0.5384940000000  0.5305830000000  0.4604730000000 1.0
C      1  0.5147600000000  0.5153480000000  0.5673410000000 1.0
C      1  0.4372700000000  0.5288040000000  0.5324650000000 1.0
C      1  0.5446730000000  0.5213770000000  0.5518360000000 1.0
C      1  0.5168600000000  0.5426420000000  0.4408400000000 1.0
C      1  0.4836700000000  0.4404830000000  0.4739680000000 1.0
C      1  0.5369390000000  0.4386930000000  0.5015780000000 1.0
C      1  0.4824000000000  0.4423430000000  0.5342700000000 1.0
C      1  0.5092610000000  0.5659570000000  0.4805350000000 1.0
END
