TITL C-2622956-4641-669 0.000638602945489186 125000 -673.137122982151 0 0 126 (C1) n - 1
REM
REM in /nfs/bkarasulu/CARBON/AIRSS/Generating-Clusters/AIREBO/with-SteepDescent/Higher-Symm/SD-CG/HFTN-CG
REM
REM
REM
REM
REM
REM ./C.cell (b20cbc046b6831c77cfcea5457e17084)
REM
REM compiler GCC version 9.2.1 20190827 (Red Hat 9.2.1-1)
REM options -cpp -mtune=generic -march=x86-64 -g -O0 -fpre-include=/usr/include/finclude/math-vector-fortran.h
REM seed 1984695701 -1406072233 -1813493371 -1525826080 -1597408425 1875311081 16949408 1386615369 1832131690 -1690945442 -1553925195 -520096664 -1661115869 -715306660 -216219166 -1414148367 430471885 842933851 -1299606654 -1816724042 1909856307 1723795383 1572331852 976475356 -1480013692 -1884329560 105004183 910377803 -995252274 -1097677869 249556913 -943342122 -1097049743
REM
CELL 1.54180   50.00000   50.00000   50.00000   90.00000   90.00000   90.00000
LATT -1
SFAC C  
C      1  0.4655790000000  0.5481770000000  0.4861760000000 1.0
C      1  0.5499610000000  0.4680900000000  0.4802800000000 1.0
C      1  0.4904790000000  0.4803840000000  0.5458250000000 1.0
C      1  0.4890430000000  0.4682970000000  0.5173330000000 1.0
C      1  0.5151300000000  0.5392150000000  0.5115530000000 1.0
C      1  0.5175310000000  0.4633860000000  0.4703580000000 1.0
C      1  0.5415150000000  0.5087890000000  0.5090350000000 1.0
C      1  0.4576310000000  0.4751370000000  0.5138140000000 1.0
C      1  0.4660350000000  0.5152140000000  0.4829090000000 1.0
C      1  0.4777040000000  0.5117400000000  0.4546350000000 1.0
C      1  0.5121570000000  0.4920180000000  0.4566310000000 1.0
C      1  0.5296090000000  0.5228650000000  0.5376130000000 1.0
C      1  0.5237360000000  0.5525680000000  0.4832850000000 1.0
C      1  0.4490520000000  0.4894220000000  0.4881940000000 1.0
C      1  0.5169150000000  0.4971840000000  0.5495370000000 1.0
C      1  0.5194900000000  0.4532920000000  0.5152450000000 1.0
C      1  0.4834880000000  0.5365690000000  0.5125340000000 1.0
C      1  0.4900930000000  0.4537350000000  0.4880600000000 1.0
C      1  0.4527220000000  0.5219670000000  0.5134600000000 1.0
C      1  0.5423360000000  0.4770730000000  0.5122080000000 1.0
C      1  0.5337510000000  0.5201630000000  0.4808840000000 1.0
C      1  0.5076050000000  0.5245000000000  0.4599310000000 1.0
C      1  0.4820230000000  0.4786350000000  0.4481250000000 1.0
C      1  0.4807210000000  0.5104390000000  0.5585270000000 1.0
C      1  0.5502490000000  0.4380880000000  0.5149430000000 1.0
C      1  0.4533570000000  0.5100030000000  0.5439090000000 1.0
C      1  0.5118710000000  0.5487870000000  0.4409340000000 1.0
C      1  0.5558060000000  0.5637390000000  0.4849810000000 1.0
C      1  0.4562080000000  0.4464620000000  0.4859660000000 1.0
C      1  0.4333900000000  0.5674050000000  0.5167240000000 1.0
C      1  0.4432300000000  0.4879180000000  0.4543410000000 1.0
C      1  0.5543680000000  0.5160400000000  0.4557050000000 1.0
C      1  0.5570760000000  0.4816930000000  0.5425400000000 1.0
C      1  0.5154260000000  0.4406980000000  0.5709200000000 1.0
C      1  0.4864840000000  0.5437960000000  0.5626330000000 1.0
C      1  0.4866030000000  0.4484460000000  0.4392660000000 1.0
C      1  0.4409130000000  0.4470720000000  0.5163890000000 1.0
C      1  0.5594360000000  0.5145550000000  0.5516690000000 1.0
C      1  0.4831500000000  0.5479420000000  0.4278660000000 1.0
C      1  0.4379480000000  0.5621810000000  0.4868270000000 1.0
C      1  0.5585200000000  0.4352260000000  0.4820850000000 1.0
C      1  0.5446290000000  0.5554520000000  0.5167600000000 1.0
C      1  0.5593810000000  0.4827290000000  0.4510370000000 1.0
C      1  0.4473480000000  0.5177540000000  0.4410620000000 1.0
C      1  0.4419380000000  0.4805060000000  0.5437540000000 1.0
C      1  0.4872480000000  0.4550770000000  0.5637510000000 1.0
C      1  0.5201410000000  0.5460890000000  0.5605800000000 1.0
C      1  0.5186770000000  0.4429380000000  0.4432020000000 1.0
C      1  0.5206310000000  0.5119160000000  0.5887350000000 1.0
C      1  0.5001500000000  0.5946730000000  0.5284520000000 1.0
C      1  0.5727560000000  0.5081450000000  0.5129390000000 1.0
C      1  0.5137780000000  0.4845160000000  0.4248740000000 1.0
C      1  0.4857660000000  0.5227820000000  0.4064990000000 1.0
C      1  0.4881220000000  0.4753340000000  0.5981770000000 1.0
C      1  0.5180960000000  0.4153320000000  0.4860630000000 1.0
C      1  0.4877880000000  0.5712860000000  0.4804960000000 1.0
C      1  0.4761720000000  0.4118020000000  0.5187790000000 1.0
C      1  0.5819610000000  0.4825730000000  0.4840320000000 1.0
C      1  0.3973300000000  0.5176090000000  0.4826230000000 1.0
C      1  0.4007470000000  0.4927670000000  0.5131480000000 1.0
C      1  0.4869210000000  0.5088310000000  0.5919330000000 1.0
C      1  0.4838410000000  0.5696310000000  0.5141660000000 1.0
C      1  0.4199280000000  0.5227540000000  0.5056140000000 1.0
C      1  0.4837650000000  0.4921560000000  0.4169730000000 1.0
C      1  0.5164020000000  0.5104540000000  0.4030350000000 1.0
C      1  0.5128010000000  0.4815090000000  0.5793390000000 1.0
C      1  0.4857010000000  0.4203960000000  0.4927200000000 1.0
C      1  0.5168180000000  0.5857550000000  0.4860690000000 1.0
C      1  0.5151780000000  0.4198240000000  0.5195910000000 1.0
C      1  0.4164550000000  0.4895090000000  0.4838070000000 1.0
C      1  0.5845530000000  0.5164660000000  0.4832640000000 1.0
C      1  0.5946550000000  0.4828880000000  0.5167740000000 1.0
C      1  0.4592240000000  0.5353290000000  0.5811200000000 1.0
C      1  0.5464130000000  0.5800060000000  0.4601070000000 1.0
C      1  0.5749810000000  0.4578580000000  0.5405740000000 1.0
C      1  0.4644410000000  0.4553560000000  0.4199540000000 1.0
C      1  0.5328860000000  0.5414140000000  0.4221480000000 1.0
C      1  0.5385680000000  0.4517640000000  0.5821050000000 1.0
C      1  0.5500220000000  0.4200410000000  0.5384390000000 1.0
C      1  0.4505080000000  0.5802570000000  0.5334250000000 1.0
C      1  0.4592330000000  0.4262750000000  0.4637130000000 1.0
C      1  0.5718730000000  0.5399170000000  0.4540070000000 1.0
C      1  0.4213460000000  0.4661900000000  0.4517970000000 1.0
C      1  0.4320540000000  0.5335420000000  0.5499510000000 1.0
C      1  0.5419910000000  0.5443760000000  0.5802830000000 1.0
C      1  0.4536870000000  0.5789400000000  0.4617700000000 1.0
C      1  0.4149560000000  0.4666730000000  0.5396150000000 1.0
C      1  0.5354110000000  0.4510390000000  0.4216430000000 1.0
C      1  0.4548770000000  0.5462010000000  0.4141090000000 1.0
C      1  0.4651890000000  0.4620120000000  0.5845820000000 1.0
C      1  0.4546310000000  0.4279730000000  0.5349750000000 1.0
C      1  0.5427080000000  0.5719490000000  0.5401340000000 1.0
C      1  0.5513390000000  0.4144230000000  0.4640880000000 1.0
C      1  0.4271460000000  0.5363740000000  0.4481350000000 1.0
C      1  0.5833050000000  0.4631310000000  0.4496790000000 1.0
C      1  0.5789970000000  0.5339400000000  0.5424720000000 1.0
C      1  0.4522820000000  0.4831950000000  0.4220420000000 1.0
C      1  0.4895230000000  0.4212330000000  0.4589400000000 1.0
C      1  0.4262040000000  0.4574200000000  0.4809260000000 1.0
C      1  0.4534160000000  0.5069030000000  0.5873170000000 1.0
C      1  0.5461490000000  0.4836540000000  0.5730670000000 1.0
C      1  0.5417210000000  0.5124600000000  0.4257680000000 1.0
C      1  0.4793840000000  0.5711100000000  0.5474510000000 1.0
C      1  0.5189110000000  0.4162750000000  0.5516460000000 1.0
C      1  0.5161120000000  0.5776210000000  0.4533580000000 1.0
C      1  0.4220140000000  0.5445030000000  0.5273440000000 1.0
C      1  0.5799570000000  0.4530410000000  0.5102950000000 1.0
C      1  0.5853630000000  0.5489830000000  0.4813970000000 1.0
C      1  0.5457920000000  0.4788880000000  0.4221920000000 1.0
C      1  0.5222670000000  0.4125710000000  0.4545790000000 1.0
C      1  0.5880030000000  0.4497730000000  0.4774160000000 1.0
C      1  0.5526770000000  0.5150040000000  0.5845190000000 1.0
C      1  0.4478150000000  0.4821530000000  0.5751540000000 1.0
C      1  0.4519520000000  0.5142530000000  0.4080780000000 1.0
C      1  0.5151660000000  0.5777280000000  0.5509640000000 1.0
C      1  0.4868830000000  0.4267970000000  0.5468240000000 1.0
C      1  0.4820830000000  0.5745910000000  0.4470710000000 1.0
C      1  0.5744520000000  0.5417750000000  0.5125260000000 1.0
C      1  0.4101770000000  0.4602010000000  0.5100350000000 1.0
C      1  0.4175900000000  0.5419940000000  0.4743100000000 1.0
C      1  0.3734690000000  0.5074450000000  0.5022160000000 1.0
C      1  0.5253300000000  0.5088420000000  0.3742140000000 1.0
C      1  0.5088510000000  0.3907210000000  0.5061380000000 1.0
C      1  0.6103870000000  0.5051750000000  0.4999230000000 1.0
C      1  0.5109690000000  0.5238420000000  0.6175450000000 1.0
C      1  0.5163540000000  0.6043470000000  0.5071080000000 1.0
END
