TITL C-2622963-3633-52 -0.00208872215440393 125000 -1047.74403714405 0 0 186 (C1) n - 1
REM
REM in /nfs/bkarasulu/CARBON/AIRSS/Generating-Clusters/AIREBO/with-SteepDescent/Higher-Symm/SD-CG/HFTN-CG
REM
REM
REM
REM
REM
REM ./C.cell (b20cbc046b6831c77cfcea5457e17084)
REM
REM compiler GCC version 9.2.1 20190827 (Red Hat 9.2.1-1)
REM options -cpp -mtune=generic -march=x86-64 -g -O0 -fpre-include=/usr/include/finclude/math-vector-fortran.h
REM seed 21402837 -2053676283 1519851949 -612966182 1932485238 1211084439 666487829 -973033951 -1069133006 -601588149 -1723866016 744049582 30190315 -763386020 -1732075813 -1658060024 1536245693 1502949931 -794017004 -512703967 1651778211 -1183630495 -1570339943 -919117880 1190256420 1725275064 1812803953 1712356270 302627269 1598373599 1010307441 202583271 -1533990002
REM
CELL 1.54180   50.00000   50.00000   50.00000   90.00000   90.00000   90.00000
LATT -1
SFAC C  
C      1  0.4503030000000  0.5176790000000  0.5264910000000 1.0
C      1  0.4545970000000  0.4654440000000  0.5196230000000 1.0
C      1  0.5075720000000  0.4380460000000  0.5268210000000 1.0
C      1  0.5501700000000  0.4825240000000  0.5241360000000 1.0
C      1  0.5454920000000  0.5386160000000  0.5249600000000 1.0
C      1  0.4976370000000  0.5636340000000  0.5180390000000 1.0
C      1  0.4492630000000  0.5284830000000  0.4814130000000 1.0
C      1  0.4509010000000  0.4668690000000  0.4791080000000 1.0
C      1  0.5016710000000  0.4371970000000  0.4778020000000 1.0
C      1  0.5507740000000  0.4711670000000  0.4776140000000 1.0
C      1  0.5487340000000  0.5292120000000  0.4809720000000 1.0
C      1  0.4927850000000  0.5565450000000  0.4790210000000 1.0
C      1  0.4587860000000  0.4069270000000  0.4798460000000 1.0
C      1  0.5592610000000  0.4202790000000  0.4853850000000 1.0
C      1  0.5986600000000  0.5128710000000  0.4821490000000 1.0
C      1  0.5466140000000  0.5957520000000  0.4773760000000 1.0
C      1  0.4368200000000  0.5806120000000  0.4838800000000 1.0
C      1  0.4013360000000  0.4872180000000  0.4820900000000 1.0
C      1  0.4561200000000  0.4066240000000  0.5078310000000 1.0
C      1  0.5557530000000  0.4209420000000  0.5134530000000 1.0
C      1  0.6034950000000  0.5140340000000  0.5095570000000 1.0
C      1  0.5574360000000  0.5960550000000  0.5055810000000 1.0
C      1  0.4368910000000  0.5841120000000  0.5118750000000 1.0
C      1  0.3964120000000  0.4848500000000  0.5097090000000 1.0
C      1  0.4888160000000  0.5329650000000  0.5207110000000 1.0
C      1  0.4787330000000  0.5034430000000  0.5289420000000 1.0
C      1  0.4822600000000  0.4776560000000  0.5171750000000 1.0
C      1  0.5134100000000  0.4672270000000  0.5204890000000 1.0
C      1  0.5229910000000  0.4983350000000  0.5212080000000 1.0
C      1  0.5203800000000  0.5267970000000  0.5166330000000 1.0
C      1  0.4922300000000  0.5281810000000  0.4883510000000 1.0
C      1  0.4738020000000  0.5088740000000  0.4748960000000 1.0
C      1  0.4765750000000  0.4810180000000  0.4857010000000 1.0
C      1  0.5054620000000  0.4665950000000  0.4865790000000 1.0
C      1  0.5240800000000  0.4871580000000  0.4733840000000 1.0
C      1  0.5217100000000  0.5147820000000  0.4848570000000 1.0
C      1  0.5646730000000  0.5166760000000  0.4572440000000 1.0
C      1  0.5156340000000  0.5556540000000  0.4577950000000 1.0
C      1  0.4549060000000  0.5482980000000  0.4585540000000 1.0
C      1  0.4343530000000  0.4832350000000  0.4564460000000 1.0
C      1  0.4814580000000  0.4336700000000  0.4544150000000 1.0
C      1  0.5457290000000  0.4482970000000  0.4573100000000 1.0
C      1  0.5590830000000  0.5319470000000  0.5505330000000 1.0
C      1  0.5215660000000  0.5707580000000  0.5371090000000 1.0
C      1  0.4672230000000  0.5397190000000  0.5460770000000 1.0
C      1  0.4406230000000  0.4673480000000  0.5471650000000 1.0
C      1  0.4782980000000  0.4356910000000  0.5404660000000 1.0
C      1  0.5332540000000  0.4708940000000  0.5482720000000 1.0
C      1  0.4755070000000  0.5064670000000  0.5824300000000 1.0
C      1  0.4804760000000  0.4756880000000  0.5806650000000 1.0
C      1  0.5064350000000  0.4747650000000  0.5644430000000 1.0
C      1  0.5269020000000  0.4941820000000  0.5800600000000 1.0
C      1  0.5193590000000  0.5242000000000  0.5790580000000 1.0
C      1  0.4931150000000  0.5275060000000  0.5629750000000 1.0
C      1  0.4754570000000  0.5092750000000  0.4447430000000 1.0
C      1  0.4768840000000  0.4821540000000  0.4329320000000 1.0
C      1  0.5036550000000  0.4715630000000  0.4250450000000 1.0
C      1  0.5219670000000  0.4886000000000  0.4434230000000 1.0
C      1  0.5217150000000  0.5160400000000  0.4327380000000 1.0
C      1  0.4940090000000  0.5261040000000  0.4255130000000 1.0
C      1  0.5724690000000  0.4429330000000  0.5275580000000 1.0
C      1  0.5993680000000  0.5394990000000  0.5233450000000 1.0
C      1  0.5121550000000  0.6003760000000  0.5120250000000 1.0
C      1  0.4265160000000  0.5591440000000  0.5309450000000 1.0
C      1  0.3996190000000  0.4578480000000  0.5213820000000 1.0
C      1  0.4828250000000  0.3951080000000  0.5199650000000 1.0
C      1  0.5883620000000  0.4350560000000  0.4758460000000 1.0
C      1  0.5953680000000  0.5385670000000  0.4696820000000 1.0
C      1  0.5159130000000  0.6101820000000  0.4796590000000 1.0
C      1  0.4127650000000  0.5642000000000  0.4737620000000 1.0
C      1  0.4031650000000  0.4617890000000  0.4685730000000 1.0
C      1  0.4821710000000  0.3954490000000  0.4660140000000 1.0
C      1  0.5730800000000  0.4354570000000  0.4496500000000 1.0
C      1  0.5883210000000  0.5331960000000  0.4392250000000 1.0
C      1  0.5230990000000  0.5942790000000  0.4527680000000 1.0
C      1  0.4298490000000  0.5646020000000  0.4479630000000 1.0
C      1  0.4104110000000  0.4672700000000  0.4383040000000 1.0
C      1  0.4826140000000  0.4053580000000  0.4356070000000 1.0
C      1  0.5736960000000  0.4427440000000  0.5581700000000 1.0
C      1  0.5902060000000  0.5321000000000  0.5498790000000 1.0
C      1  0.5214120000000  0.6031070000000  0.5440930000000 1.0
C      1  0.4287560000000  0.5558820000000  0.5613730000000 1.0
C      1  0.4092210000000  0.4659230000000  0.5475820000000 1.0
C      1  0.4768790000000  0.4049760000000  0.5485730000000 1.0
C      1  0.5131760000000  0.3916400000000  0.5087590000000 1.0
C      1  0.5916170000000  0.4665400000000  0.5142590000000 1.0
C      1  0.5811830000000  0.5579770000000  0.5115350000000 1.0
C      1  0.4790740000000  0.6023840000000  0.5135990000000 1.0
C      1  0.4105390000000  0.5354360000000  0.5141560000000 1.0
C      1  0.4185470000000  0.4399090000000  0.5094830000000 1.0
C      1  0.5099710000000  0.3962260000000  0.4792200000000 1.0
C      1  0.5947230000000  0.4626350000000  0.4853900000000 1.0
C      1  0.5773620000000  0.5569570000000  0.4835370000000 1.0
C      1  0.4843250000000  0.6020860000000  0.4835390000000 1.0
C      1  0.4073240000000  0.5383860000000  0.4855220000000 1.0
C      1  0.4194570000000  0.4412440000000  0.4809670000000 1.0
C      1  0.4477500000000  0.5681660000000  0.4192760000000 1.0
C      1  0.4201240000000  0.4926190000000  0.4203130000000 1.0
C      1  0.4660370000000  0.4262070000000  0.4181170000000 1.0
C      1  0.5568910000000  0.4329120000000  0.4198590000000 1.0
C      1  0.5795630000000  0.5078710000000  0.4212630000000 1.0
C      1  0.5295850000000  0.5798610000000  0.4223900000000 1.0
C      1  0.4514120000000  0.5662090000000  0.5764410000000 1.0
C      1  0.4176150000000  0.4771030000000  0.5787500000000 1.0
C      1  0.4678610000000  0.4137740000000  0.5798530000000 1.0
C      1  0.5492130000000  0.4380180000000  0.5724920000000 1.0
C      1  0.5822420000000  0.5218600000000  0.5813100000000 1.0
C      1  0.5284590000000  0.5866050000000  0.5729830000000 1.0
C      1  0.4130950000000  0.5038530000000  0.5582150000000 1.0
C      1  0.4445910000000  0.4301670000000  0.5609890000000 1.0
C      1  0.5250700000000  0.4230430000000  0.5594490000000 1.0
C      1  0.5810020000000  0.4948300000000  0.5606780000000 1.0
C      1  0.5552780000000  0.5700250000000  0.5621330000000 1.0
C      1  0.4734570000000  0.5771370000000  0.5585190000000 1.0
C      1  0.4221950000000  0.5181010000000  0.4368130000000 1.0
C      1  0.4434660000000  0.4390840000000  0.4335910000000 1.0
C      1  0.5292350000000  0.4206540000000  0.4335910000000 1.0
C      1  0.5794170000000  0.4836170000000  0.4355450000000 1.0
C      1  0.5502540000000  0.5623490000000  0.4390900000000 1.0
C      1  0.4743890000000  0.5785300000000  0.4359450000000 1.0
C      1  0.5781660000000  0.5601300000000  0.4285910000000 1.0
C      1  0.5005480000000  0.5960930000000  0.4288020000000 1.0
C      1  0.4203990000000  0.5475490000000  0.4218650000000 1.0
C      1  0.4125360000000  0.4380580000000  0.4238270000000 1.0
C      1  0.5101940000000  0.3999500000000  0.4233660000000 1.0
C      1  0.5804050000000  0.4571460000000  0.4264730000000 1.0
C      1  0.5824650000000  0.5551330000000  0.5729670000000 1.0
C      1  0.4968630000000  0.5983450000000  0.5665370000000 1.0
C      1  0.4232760000000  0.5274370000000  0.5692820000000 1.0
C      1  0.4176410000000  0.4439140000000  0.5713680000000 1.0
C      1  0.5001790000000  0.4045330000000  0.5720740000000 1.0
C      1  0.5903730000000  0.4628910000000  0.5675510000000 1.0
C      1  0.4916320000000  0.4671170000000  0.6112570000000 1.0
C      1  0.5229380000000  0.4720310000000  0.6128570000000 1.0
C      1  0.5289730000000  0.5048370000000  0.6122990000000 1.0
C      1  0.5094780000000  0.5334360000000  0.6097690000000 1.0
C      1  0.4793160000000  0.5283170000000  0.6154110000000 1.0
C      1  0.4713240000000  0.4950400000000  0.6141860000000 1.0
C      1  0.4877060000000  0.4702330000000  0.3885370000000 1.0
C      1  0.5179760000000  0.4789610000000  0.3948260000000 1.0
C      1  0.5305260000000  0.5074630000000  0.3918240000000 1.0
C      1  0.5124290000000  0.5291030000000  0.3902620000000 1.0
C      1  0.4817350000000  0.5201540000000  0.3942560000000 1.0
C      1  0.4695980000000  0.4917790000000  0.3908240000000 1.0
C      1  0.4448910000000  0.4848400000000  0.5953680000000 1.0
C      1  0.4857020000000  0.4385740000000  0.5937540000000 1.0
C      1  0.5400050000000  0.4588460000000  0.5932970000000 1.0
C      1  0.5547300000000  0.5208360000000  0.6005820000000 1.0
C      1  0.5139030000000  0.5615620000000  0.5910830000000 1.0
C      1  0.4632790000000  0.5439230000000  0.5971110000000 1.0
C      1  0.4465910000000  0.4868470000000  0.4053240000000 1.0
C      1  0.4826130000000  0.4463330000000  0.4023210000000 1.0
C      1  0.5368780000000  0.4572690000000  0.4084070000000 1.0
C      1  0.5536330000000  0.5132470000000  0.4060620000000 1.0
C      1  0.5184090000000  0.5522070000000  0.4058910000000 1.0
C      1  0.4613690000000  0.5401950000000  0.4074240000000 1.0
C      1  0.4498270000000  0.4354340000000  0.4667940000000 1.0
C      1  0.5299020000000  0.4212210000000  0.4675950000000 1.0
C      1  0.5789820000000  0.4882510000000  0.4692460000000 1.0
C      1  0.5454910000000  0.5620680000000  0.4727690000000 1.0
C      1  0.4676680000000  0.5772930000000  0.4692660000000 1.0
C      1  0.4218580000000  0.5117120000000  0.4702230000000 1.0
C      1  0.4470850000000  0.4331530000000  0.5271840000000 1.0
C      1  0.5295370000000  0.4142570000000  0.5267890000000 1.0
C      1  0.5801010000000  0.4961150000000  0.5265230000000 1.0
C      1  0.5543740000000  0.5707330000000  0.5281330000000 1.0
C      1  0.4663660000000  0.5739240000000  0.5254190000000 1.0
C      1  0.4191450000000  0.5045040000000  0.5256220000000 1.0
C      1  0.4988620000000  0.5564800000000  0.4323740000000 1.0
C      1  0.4530760000000  0.5285660000000  0.4346590000000 1.0
C      1  0.4498480000000  0.4691040000000  0.4323390000000 1.0
C      1  0.5018410000000  0.4398590000000  0.4293940000000 1.0
C      1  0.5427780000000  0.4677410000000  0.4348630000000 1.0
C      1  0.5488820000000  0.5305620000000  0.4330990000000 1.0
C      1  0.5012550000000  0.5592010000000  0.5608630000000 1.0
C      1  0.4541280000000  0.5268070000000  0.5716040000000 1.0
C      1  0.4538480000000  0.4605140000000  0.5734580000000 1.0
C      1  0.4987140000000  0.4437060000000  0.5652250000000 1.0
C      1  0.5545460000000  0.4796750000000  0.5715650000000 1.0
C      1  0.5456340000000  0.5402380000000  0.5757050000000 1.0
C      1  0.5184600000000  0.5726900000000  0.4932670000000 1.0
C      1  0.5535680000000  0.4601190000000  0.5050720000000 1.0
C      1  0.5641080000000  0.5201510000000  0.5085360000000 1.0
C      1  0.4503230000000  0.5457860000000  0.5106730000000 1.0
C      1  0.4355850000000  0.4850680000000  0.5030650000000 1.0
C      1  0.4915760000000  0.4242250000000  0.5045780000000 1.0
END
