TITL C-2622960-5345-727 -0.000333202520740218 125000 -406.116587293313 0 0 73 (C1) n - 1
REM
REM in /nfs/bkarasulu/CARBON/AIRSS/Generating-Clusters/AIREBO/with-SteepDescent/Higher-Symm/SD-CG/HFTN-CG
REM
REM
REM
REM
REM
REM ./C.cell (b20cbc046b6831c77cfcea5457e17084)
REM
REM compiler GCC version 9.2.1 20190827 (Red Hat 9.2.1-1)
REM options -cpp -mtune=generic -march=x86-64 -g -O0 -fpre-include=/usr/include/finclude/math-vector-fortran.h
REM seed 565620313 -642586877 1325434237 -137027165 -1104274815 -329682469 -1993800032 1686360452 -213568962 -1524674470 -1058223234 1110404642 -58729260 -481399822 1854119539 803060 -1609676594 -847620212 -1823634758 1487933731 -927191007 2112182242 -246995048 -1732399413 -377116680 -134722833 -1634508219 -1752114744 1561092802 1762187494 -1576889452 -1886396012 1713484991
REM
CELL 1.54180   50.00000   50.00000   50.00000   90.00000   90.00000   90.00000
LATT -1
SFAC C  
C      1  0.4246340000000  0.5012520000000  0.5513370000000 1.0
C      1  0.4285430000000  0.5516310000000  0.5166820000000 1.0
C      1  0.4263670000000  0.5229840000000  0.4668050000000 1.0
C      1  0.4315250000000  0.4689400000000  0.4606790000000 1.0
C      1  0.4313200000000  0.4550650000000  0.5082450000000 1.0
C      1  0.5735190000000  0.4966210000000  0.4528520000000 1.0
C      1  0.5651740000000  0.5515000000000  0.4828850000000 1.0
C      1  0.5735720000000  0.5222550000000  0.5315500000000 1.0
C      1  0.5748060000000  0.4699240000000  0.5371220000000 1.0
C      1  0.5652580000000  0.4590130000000  0.4830890000000 1.0
C      1  0.4917010000000  0.4219820000000  0.4798150000000 1.0
C      1  0.4723370000000  0.4761380000000  0.5512050000000 1.0
C      1  0.4782030000000  0.5488430000000  0.5559180000000 1.0
C      1  0.4819730000000  0.5539590000000  0.4778310000000 1.0
C      1  0.4766410000000  0.4998330000000  0.4245580000000 1.0
C      1  0.5121920000000  0.4178900000000  0.5139150000000 1.0
C      1  0.5215160000000  0.4751190000000  0.4512290000000 1.0
C      1  0.5197420000000  0.5518110000000  0.4373550000000 1.0
C      1  0.5171890000000  0.5527520000000  0.5218850000000 1.0
C      1  0.5225560000000  0.4982290000000  0.5730810000000 1.0
C      1  0.4893760000000  0.4676530000000  0.4594580000000 1.0
C      1  0.4900200000000  0.4381490000000  0.5266300000000 1.0
C      1  0.4999550000000  0.5135700000000  0.5766350000000 1.0
C      1  0.4928020000000  0.5689470000000  0.5138570000000 1.0
C      1  0.4953150000000  0.5406700000000  0.4307220000000 1.0
C      1  0.5012170000000  0.4638490000000  0.5429870000000 1.0
C      1  0.5106840000000  0.4492100000000  0.4771610000000 1.0
C      1  0.4994140000000  0.5143600000000  0.4211220000000 1.0
C      1  0.5106290000000  0.5623260000000  0.4824240000000 1.0
C      1  0.5037060000000  0.5412770000000  0.5671920000000 1.0
C      1  0.5631490000000  0.5429650000000  0.5430560000000 1.0
C      1  0.5530170000000  0.5566490000000  0.4585880000000 1.0
C      1  0.5550600000000  0.4826910000000  0.4329720000000 1.0
C      1  0.5528630000000  0.4396080000000  0.5014730000000 1.0
C      1  0.5530830000000  0.4798840000000  0.5557140000000 1.0
C      1  0.4379710000000  0.5418540000000  0.4538590000000 1.0
C      1  0.4415010000000  0.5705110000000  0.5283100000000 1.0
C      1  0.4386040000000  0.4789490000000  0.5590260000000 1.0
C      1  0.4487030000000  0.4337680000000  0.4939520000000 1.0
C      1  0.4438330000000  0.4832390000000  0.4400620000000 1.0
C      1  0.4714530000000  0.5417010000000  0.4519180000000 1.0
C      1  0.4726510000000  0.4721020000000  0.4349990000000 1.0
C      1  0.4742730000000  0.4233400000000  0.5010640000000 1.0
C      1  0.4759510000000  0.5038560000000  0.5651750000000 1.0
C      1  0.4707940000000  0.5679150000000  0.5357860000000 1.0
C      1  0.5294830000000  0.5431490000000  0.5482100000000 1.0
C      1  0.5240550000000  0.4694180000000  0.5644570000000 1.0
C      1  0.5282860000000  0.4286040000000  0.4941030000000 1.0
C      1  0.5266310000000  0.5016430000000  0.4310300000000 1.0
C      1  0.5254360000000  0.5713580000000  0.4589290000000 1.0
C      1  0.4405940000000  0.5199660000000  0.5378300000000 1.0
C      1  0.4457080000000  0.5244170000000  0.5058700000000 1.0
C      1  0.4465170000000  0.5001170000000  0.4819140000000 1.0
C      1  0.4751470000000  0.4823590000000  0.4866810000000 1.0
C      1  0.4705280000000  0.4614150000000  0.5124700000000 1.0
C      1  0.5594810000000  0.5157690000000  0.4663250000000 1.0
C      1  0.5524750000000  0.5232190000000  0.4968470000000 1.0
C      1  0.5513510000000  0.4989280000000  0.5206300000000 1.0
C      1  0.5280600000000  0.4745020000000  0.5249960000000 1.0
C      1  0.5162930000000  0.4756650000000  0.4959010000000 1.0
C      1  0.5514010000000  0.4638860000000  0.4588840000000 1.0
C      1  0.5510120000000  0.4532620000000  0.5261280000000 1.0
C      1  0.5402210000000  0.5112070000000  0.5503350000000 1.0
C      1  0.5283080000000  0.5423510000000  0.4989220000000 1.0
C      1  0.5388090000000  0.5277310000000  0.4457740000000 1.0
C      1  0.4467350000000  0.4620090000000  0.5338550000000 1.0
C      1  0.4547690000000  0.4572780000000  0.4760450000000 1.0
C      1  0.4610310000000  0.5093390000000  0.4525530000000 1.0
C      1  0.4661780000000  0.5505670000000  0.5033850000000 1.0
C      1  0.4627480000000  0.5256190000000  0.5536090000000 1.0
C      1  0.4232570000000  0.4766180000000  0.4907070000000 1.0
C      1  0.5732880000000  0.4784820000000  0.5045940000000 1.0
C      1  0.5012650000000  0.5081860000000  0.4967250000000 1.0
END
