TITL C-2622955-8511-690 -0.00225177548407526 125000 -517.416313621835 0 0 97 (C1) n - 1
REM
REM in /nfs/bkarasulu/CARBON/AIRSS/Generating-Clusters/AIREBO/with-SteepDescent/Higher-Symm/SD-CG/HFTN-CG
REM
REM
REM
REM
REM
REM ./C.cell (b20cbc046b6831c77cfcea5457e17084)
REM
REM compiler GCC version 9.2.1 20190827 (Red Hat 9.2.1-1)
REM options -cpp -mtune=generic -march=x86-64 -g -O0 -fpre-include=/usr/include/finclude/math-vector-fortran.h
REM seed -1127411778 605286107 -252193981 -1539964240 456839612 -1673346407 -61210685 -436298053 -1045068281 -2126315598 -1264275894 -1410338802 1994881655 -451081184 -1739448672 1326677539 189744080 -279196075 1462637742 -1115786418 114980448 461738890 -1308819853 1051572813 1048021330 -1064049906 1877093995 -499447716 -2142592588 345225024 -1300109513 1286003420 948551928
REM
CELL 1.54180   50.00000   50.00000   50.00000   90.00000   90.00000   90.00000
LATT -1
SFAC C  
C      1  0.5120720000000  0.4953250000000  0.5623100000000 1.0
C      1  0.4375790000000  0.4924320000000  0.5036980000000 1.0
C      1  0.4943010000000  0.4958180000000  0.4555350000000 1.0
C      1  0.5574750000000  0.4942420000000  0.4979890000000 1.0
C      1  0.4738550000000  0.5244630000000  0.5629000000000 1.0
C      1  0.4251100000000  0.5193030000000  0.4600430000000 1.0
C      1  0.5288940000000  0.5225930000000  0.4335530000000 1.0
C      1  0.5711780000000  0.5165680000000  0.5280930000000 1.0
C      1  0.4543850000000  0.4038000000000  0.5501050000000 1.0
C      1  0.4472290000000  0.4219500000000  0.4873050000000 1.0
C      1  0.5417190000000  0.4133220000000  0.4413500000000 1.0
C      1  0.5451060000000  0.4124330000000  0.5191560000000 1.0
C      1  0.4560770000000  0.5649220000000  0.4645170000000 1.0
C      1  0.5368420000000  0.5687550000000  0.4604430000000 1.0
C      1  0.5382290000000  0.5684580000000  0.5350990000000 1.0
C      1  0.4598530000000  0.5714310000000  0.5406520000000 1.0
C      1  0.4980120000000  0.5276500000000  0.4202590000000 1.0
C      1  0.5877240000000  0.5085960000000  0.5039090000000 1.0
C      1  0.4941060000000  0.5303350000000  0.5895810000000 1.0
C      1  0.3967000000000  0.5235840000000  0.4703540000000 1.0
C      1  0.5778370000000  0.4533760000000  0.5392370000000 1.0
C      1  0.4656740000000  0.4509700000000  0.5717300000000 1.0
C      1  0.4149870000000  0.4667360000000  0.4691530000000 1.0
C      1  0.5360580000000  0.4647460000000  0.4349980000000 1.0
C      1  0.4913020000000  0.5366000000000  0.4827280000000 1.0
C      1  0.5225120000000  0.5348200000000  0.4925670000000 1.0
C      1  0.5047070000000  0.5333830000000  0.5200260000000 1.0
C      1  0.4720780000000  0.5322810000000  0.5104500000000 1.0
C      1  0.4562790000000  0.4581040000000  0.5217640000000 1.0
C      1  0.4665270000000  0.4397180000000  0.4462100000000 1.0
C      1  0.5553400000000  0.4572830000000  0.4830360000000 1.0
C      1  0.5296900000000  0.4455660000000  0.5577450000000 1.0
C      1  0.5444610000000  0.4578620000000  0.5375920000000 1.0
C      1  0.4747660000000  0.4631550000000  0.5416630000000 1.0
C      1  0.4459290000000  0.4538740000000  0.4633630000000 1.0
C      1  0.5446480000000  0.4752220000000  0.4646710000000 1.0
C      1  0.6016440000000  0.5291360000000  0.4891680000000 1.0
C      1  0.5258920000000  0.5407380000000  0.5827610000000 1.0
C      1  0.3954630000000  0.5335270000000  0.4940630000000 1.0
C      1  0.4850890000000  0.5494400000000  0.3995320000000 1.0
C      1  0.4112210000000  0.4807010000000  0.4945860000000 1.0
C      1  0.5050950000000  0.4691810000000  0.4423430000000 1.0
C      1  0.5716070000000  0.4655520000000  0.5095390000000 1.0
C      1  0.4921230000000  0.4717940000000  0.5765260000000 1.0
C      1  0.4422720000000  0.4973160000000  0.5502190000000 1.0
C      1  0.4534550000000  0.4945680000000  0.4273700000000 1.0
C      1  0.5786440000000  0.5077360000000  0.4444420000000 1.0
C      1  0.5624880000000  0.4971560000000  0.5777410000000 1.0
C      1  0.4475330000000  0.5409000000000  0.5500700000000 1.0
C      1  0.4571480000000  0.5334880000000  0.4507800000000 1.0
C      1  0.5523780000000  0.5457500000000  0.4418550000000 1.0
C      1  0.5407000000000  0.5400950000000  0.5518220000000 1.0
C      1  0.5302190000000  0.4351040000000  0.4506480000000 1.0
C      1  0.5636890000000  0.4232240000000  0.5323400000000 1.0
C      1  0.4699950000000  0.4246910000000  0.5505790000000 1.0
C      1  0.4227980000000  0.4313590000000  0.4740560000000 1.0
C      1  0.4860480000000  0.5588940000000  0.4614210000000 1.0
C      1  0.5424300000000  0.5581980000000  0.4881350000000 1.0
C      1  0.5084450000000  0.5588590000000  0.5374870000000 1.0
C      1  0.4504750000000  0.5577220000000  0.5140220000000 1.0
C      1  0.4510180000000  0.5767310000000  0.4916210000000 1.0
C      1  0.5084160000000  0.5797120000000  0.4604020000000 1.0
C      1  0.5431150000000  0.5786150000000  0.5080550000000 1.0
C      1  0.4876380000000  0.5797140000000  0.5326900000000 1.0
C      1  0.5252080000000  0.5013700000000  0.4549440000000 1.0
C      1  0.5490520000000  0.4908520000000  0.5307580000000 1.0
C      1  0.4819960000000  0.4958330000000  0.5464500000000 1.0
C      1  0.4493900000000  0.5013640000000  0.4757110000000 1.0
C      1  0.4935420000000  0.4314350000000  0.5269680000000 1.0
C      1  0.4753470000000  0.4387920000000  0.4858250000000 1.0
C      1  0.5071270000000  0.4321410000000  0.4755940000000 1.0
C      1  0.5179900000000  0.4274200000000  0.5050980000000 1.0
C      1  0.4232260000000  0.5393860000000  0.5072240000000 1.0
C      1  0.4925870000000  0.5591330000000  0.4300650000000 1.0
C      1  0.5699880000000  0.5415250000000  0.4898060000000 1.0
C      1  0.5005750000000  0.5540460000000  0.5660870000000 1.0
C      1  0.5601300000000  0.4887230000000  0.4397700000000 1.0
C      1  0.5702650000000  0.4817970000000  0.5562970000000 1.0
C      1  0.4610020000000  0.4855900000000  0.5711760000000 1.0
C      1  0.4381770000000  0.4833550000000  0.4491320000000 1.0
C      1  0.5231550000000  0.5566640000000  0.4313010000000 1.0
C      1  0.5580380000000  0.5440630000000  0.5221070000000 1.0
C      1  0.4686980000000  0.5580590000000  0.5704080000000 1.0
C      1  0.4405410000000  0.5400630000000  0.4797130000000 1.0
C      1  0.4920000000000  0.4458780000000  0.4502330000000 1.0
C      1  0.5384430000000  0.4501840000000  0.5084860000000 1.0
C      1  0.5018590000000  0.4477960000000  0.5554920000000 1.0
C      1  0.4566190000000  0.4662050000000  0.4931920000000 1.0
C      1  0.4905410000000  0.4910660000000  0.5134490000000 1.0
C      1  0.4809240000000  0.5042290000000  0.4835070000000 1.0
C      1  0.5350130000000  0.5087320000000  0.4839410000000 1.0
C      1  0.5174970000000  0.5034950000000  0.5300380000000 1.0
C      1  0.5736850000000  0.5319290000000  0.4572980000000 1.0
C      1  0.5365350000000  0.5126100000000  0.5714020000000 1.0
C      1  0.4435760000000  0.5185430000000  0.5247600000000 1.0
C      1  0.4754780000000  0.5126810000000  0.4362740000000 1.0
C      1  0.4932880000000  0.4587560000000  0.5066990000000 1.0
END
