TITL C-2622956-4641-680 0.000892955334508959 125000 -618.904242270158 0 0 123 (C1) n - 1
REM
REM in /nfs/bkarasulu/CARBON/AIRSS/Generating-Clusters/AIREBO/with-SteepDescent/Higher-Symm/SD-CG/HFTN-CG
REM
REM
REM
REM
REM
REM ./C.cell (b20cbc046b6831c77cfcea5457e17084)
REM
REM compiler GCC version 9.2.1 20190827 (Red Hat 9.2.1-1)
REM options -cpp -mtune=generic -march=x86-64 -g -O0 -fpre-include=/usr/include/finclude/math-vector-fortran.h
REM seed -97644844 -1755418685 -12143644 -1524816953 1635920619 1181732816 431089604 -1946319526 -134494909 544155950 -2073331183 -748812968 -457840951 2024087979 -308238226 -2108448265 -1506053463 -1341007697 107018893 -1365862414 549588613 -1903282787 2009134372 -1216933986 2098532576 -1083093979 -1062007577 -1294252371 1508091691 182532051 1395867693 -1456386792 -2054568024
REM
CELL 1.54180   50.00000   50.00000   50.00000   90.00000   90.00000   90.00000
LATT -1
SFAC C  
C      1  0.4390280000000  0.5553590000000  0.4786880000000 1.0
C      1  0.4508240000000  0.5169160000000  0.5514860000000 1.0
C      1  0.4343070000000  0.4443520000000  0.5186500000000 1.0
C      1  0.4325950000000  0.4790120000000  0.4430890000000 1.0
C      1  0.5566630000000  0.5639400000000  0.4729850000000 1.0
C      1  0.5672140000000  0.5111060000000  0.5621860000000 1.0
C      1  0.5637930000000  0.4500670000000  0.5166250000000 1.0
C      1  0.5615200000000  0.4766670000000  0.4514330000000 1.0
C      1  0.5128090000000  0.4413170000000  0.5151780000000 1.0
C      1  0.5163950000000  0.4830420000000  0.4464120000000 1.0
C      1  0.5250140000000  0.5562300000000  0.4821050000000 1.0
C      1  0.5142480000000  0.5137630000000  0.5559340000000 1.0
C      1  0.4837480000000  0.4562460000000  0.5240610000000 1.0
C      1  0.4863960000000  0.4790640000000  0.4480470000000 1.0
C      1  0.4930210000000  0.5480490000000  0.4739800000000 1.0
C      1  0.4838740000000  0.5254570000000  0.5540860000000 1.0
C      1  0.4690140000000  0.4893230000000  0.5840370000000 1.0
C      1  0.4751030000000  0.4188530000000  0.4829980000000 1.0
C      1  0.4730520000000  0.5142500000000  0.4192680000000 1.0
C      1  0.4770180000000  0.5813740000000  0.5096280000000 1.0
C      1  0.5252360000000  0.4927640000000  0.5803750000000 1.0
C      1  0.5310110000000  0.4243630000000  0.4919310000000 1.0
C      1  0.5346270000000  0.5053360000000  0.4282750000000 1.0
C      1  0.5100730000000  0.5796150000000  0.5017720000000 1.0
C      1  0.4472380000000  0.4199910000000  0.4722710000000 1.0
C      1  0.4448660000000  0.5279300000000  0.4243660000000 1.0
C      1  0.4460370000000  0.5787040000000  0.5244210000000 1.0
C      1  0.4437060000000  0.4787040000000  0.5753840000000 1.0
C      1  0.5593470000000  0.4198470000000  0.4744090000000 1.0
C      1  0.5606310000000  0.5192080000000  0.4185310000000 1.0
C      1  0.5752040000000  0.5638260000000  0.5302240000000 1.0
C      1  0.5488250000000  0.4682530000000  0.5798260000000 1.0
C      1  0.4778390000000  0.5166240000000  0.5925700000000 1.0
C      1  0.4915970000000  0.4078750000000  0.5061470000000 1.0
C      1  0.4888250000000  0.4902320000000  0.4095650000000 1.0
C      1  0.4791970000000  0.5916700000000  0.4793920000000 1.0
C      1  0.5121470000000  0.5209540000000  0.5945980000000 1.0
C      1  0.5240550000000  0.4032290000000  0.5158590000000 1.0
C      1  0.5223450000000  0.4837030000000  0.4071430000000 1.0
C      1  0.5127530000000  0.5940670000000  0.4710900000000 1.0
C      1  0.4455930000000  0.4612120000000  0.5459730000000 1.0
C      1  0.4423060000000  0.4518410000000  0.4611630000000 1.0
C      1  0.4429420000000  0.5486840000000  0.4455550000000 1.0
C      1  0.4491250000000  0.5500170000000  0.5436990000000 1.0
C      1  0.5519000000000  0.4557770000000  0.5479810000000 1.0
C      1  0.5515670000000  0.4452340000000  0.4531730000000 1.0
C      1  0.5551810000000  0.5563050000000  0.4398740000000 1.0
C      1  0.5599690000000  0.5429370000000  0.5526340000000 1.0
C      1  0.4494980000000  0.4538210000000  0.4277270000000 1.0
C      1  0.4550230000000  0.5781000000000  0.4591100000000 1.0
C      1  0.4542730000000  0.5399410000000  0.5762720000000 1.0
C      1  0.4532030000000  0.4280600000000  0.5417570000000 1.0
C      1  0.5436970000000  0.4636070000000  0.4254580000000 1.0
C      1  0.5392520000000  0.5843750000000  0.4521140000000 1.0
C      1  0.5432960000000  0.5281900000000  0.5793050000000 1.0
C      1  0.5453040000000  0.4258940000000  0.5318230000000 1.0
C      1  0.4822630000000  0.5162820000000  0.4797930000000 1.0
C      1  0.4767340000000  0.5210480000000  0.5216690000000 1.0
C      1  0.4806680000000  0.4883160000000  0.5131830000000 1.0
C      1  0.4776040000000  0.4825920000000  0.4797160000000 1.0
C      1  0.5212340000000  0.5228620000000  0.4840690000000 1.0
C      1  0.5222200000000  0.5182750000000  0.5279560000000 1.0
C      1  0.5209670000000  0.4701990000000  0.5230180000000 1.0
C      1  0.5242950000000  0.4834610000000  0.4759030000000 1.0
C      1  0.5532490000000  0.5066170000000  0.5203420000000 1.0
C      1  0.5469710000000  0.4784600000000  0.5084410000000 1.0
C      1  0.5513510000000  0.4989960000000  0.4744920000000 1.0
C      1  0.5506630000000  0.5257150000000  0.4956540000000 1.0
C      1  0.4462190000000  0.5119370000000  0.5102810000000 1.0
C      1  0.4477170000000  0.4805330000000  0.5100650000000 1.0
C      1  0.4438630000000  0.4868220000000  0.4798440000000 1.0
C      1  0.4515260000000  0.5252840000000  0.4791980000000 1.0
C      1  0.4061760000000  0.4633360000000  0.5207210000000 1.0
C      1  0.4133060000000  0.4836890000000  0.4707120000000 1.0
C      1  0.4102770000000  0.5418950000000  0.4908600000000 1.0
C      1  0.4017300000000  0.5113460000000  0.5386270000000 1.0
C      1  0.5933370000000  0.4620920000000  0.5204690000000 1.0
C      1  0.5880770000000  0.4854470000000  0.4683930000000 1.0
C      1  0.5883580000000  0.5517870000000  0.4707000000000 1.0
C      1  0.5949970000000  0.5039390000000  0.5451650000000 1.0
C      1  0.5524520000000  0.4570630000000  0.4850480000000 1.0
C      1  0.5517540000000  0.5278620000000  0.4565160000000 1.0
C      1  0.5486490000000  0.5467990000000  0.5207620000000 1.0
C      1  0.5465780000000  0.4894100000000  0.5468770000000 1.0
C      1  0.4558430000000  0.4521070000000  0.4934940000000 1.0
C      1  0.4556150000000  0.5028460000000  0.4533560000000 1.0
C      1  0.4520020000000  0.5506900000000  0.5097910000000 1.0
C      1  0.4667590000000  0.4877660000000  0.5442070000000 1.0
C      1  0.4018460000000  0.4800640000000  0.5415470000000 1.0
C      1  0.4087390000000  0.4570910000000  0.4907630000000 1.0
C      1  0.3997730000000  0.5120590000000  0.4775880000000 1.0
C      1  0.4167620000000  0.5202380000000  0.5128640000000 1.0
C      1  0.5971800000000  0.4736660000000  0.5466180000000 1.0
C      1  0.5927870000000  0.4619090000000  0.4886030000000 1.0
C      1  0.5838400000000  0.5188580000000  0.4635010000000 1.0
C      1  0.5849320000000  0.5108950000000  0.5196340000000 1.0
C      1  0.5156130000000  0.5445320000000  0.5703410000000 1.0
C      1  0.5134130000000  0.4211630000000  0.5426300000000 1.0
C      1  0.5102250000000  0.4576980000000  0.4244630000000 1.0
C      1  0.5090790000000  0.5840040000000  0.4379540000000 1.0
C      1  0.4855590000000  0.5470830000000  0.5802860000000 1.0
C      1  0.4815730000000  0.4236630000000  0.5323460000000 1.0
C      1  0.4770020000000  0.4615940000000  0.4228760000000 1.0
C      1  0.4857210000000  0.5701970000000  0.4542400000000 1.0
C      1  0.4209230000000  0.5731870000000  0.5013200000000 1.0
C      1  0.4232460000000  0.4991060000000  0.5603730000000 1.0
C      1  0.4235110000000  0.4288050000000  0.4902460000000 1.0
C      1  0.4243400000000  0.5059710000000  0.4240690000000 1.0
C      1  0.5772710000000  0.5653240000000  0.5000140000000 1.0
C      1  0.5772010000000  0.4804670000000  0.5732800000000 1.0
C      1  0.5849610000000  0.4347040000000  0.4791630000000 1.0
C      1  0.5835020000000  0.5171920000000  0.4295430000000 1.0
C      1  0.5168900000000  0.5511650000000  0.5205150000000 1.0
C      1  0.5170080000000  0.4740670000000  0.5536850000000 1.0
C      1  0.5196590000000  0.4519340000000  0.4775810000000 1.0
C      1  0.5186100000000  0.5222330000000  0.4513030000000 1.0
C      1  0.4857480000000  0.5485930000000  0.5070890000000 1.0
C      1  0.4896200000000  0.4805000000000  0.5646130000000 1.0
C      1  0.4879800000000  0.4503210000000  0.4825310000000 1.0
C      1  0.4849360000000  0.5191910000000  0.4476870000000 1.0
C      1  0.5944190000000  0.5185100000000  0.4958190000000 1.0
C      1  0.3840540000000  0.5153260000000  0.5049600000000 1.0
C      1  0.5120200000000  0.4972500000000  0.5044550000000 1.0
END
