TITL C-2622968-4806-479 0.00382233318283989 125000 -508.518127437286 0 0 90 (C1) n - 1
REM
REM in /nfs/bkarasulu/CARBON/AIRSS/Generating-Clusters/AIREBO/with-SteepDescent/Higher-Symm/SD-CG/HFTN-CG
REM
REM
REM
REM
REM
REM ./C.cell (b20cbc046b6831c77cfcea5457e17084)
REM
REM compiler GCC version 9.2.1 20190827 (Red Hat 9.2.1-1)
REM options -cpp -mtune=generic -march=x86-64 -g -O0 -fpre-include=/usr/include/finclude/math-vector-fortran.h
REM seed 720567218 1379337254 -517717883 -2034963129 192035022 905070634 443600913 1033267412 -2093936667 1625671852 952976813 1119739044 1595952661 -1321786337 -1589330910 1176084320 -169541733 197164517 -985540864 -927666316 -4615175 1061869378 1396550826 7159726 -1617411588 947850727 -722453517 1301114535 2118006784 -155637447 1299980141 -1439993387 854027803
REM
CELL 1.54180   50.00000   50.00000   50.00000   90.00000   90.00000   90.00000
LATT -1
SFAC C  
C      1  0.5042840000000  0.4663430000000  0.5157430000000 1.0
C      1  0.4856900000000  0.5170620000000  0.5134720000000 1.0
C      1  0.4968580000000  0.4620330000000  0.4828220000000 1.0
C      1  0.5122810000000  0.5307010000000  0.4985330000000 1.0
C      1  0.4595050000000  0.5032850000000  0.5229470000000 1.0
C      1  0.5285740000000  0.4861370000000  0.5174770000000 1.0
C      1  0.4720710000000  0.4842770000000  0.4820950000000 1.0
C      1  0.5264040000000  0.5025050000000  0.4907540000000 1.0
C      1  0.5524830000000  0.5178890000000  0.4481730000000 1.0
C      1  0.4488600000000  0.4765420000000  0.4505260000000 1.0
C      1  0.4550220000000  0.5271370000000  0.5547080000000 1.0
C      1  0.5412060000000  0.4785810000000  0.5546640000000 1.0
C      1  0.5140140000000  0.5524070000000  0.4455770000000 1.0
C      1  0.4777460000000  0.4588050000000  0.4478780000000 1.0
C      1  0.5180870000000  0.4545120000000  0.5522890000000 1.0
C      1  0.4817750000000  0.5429660000000  0.5481560000000 1.0
C      1  0.5219590000000  0.4328180000000  0.5296190000000 1.0
C      1  0.4767960000000  0.5674210000000  0.5282160000000 1.0
C      1  0.4788420000000  0.4350710000000  0.4725760000000 1.0
C      1  0.5179290000000  0.5684280000000  0.4688760000000 1.0
C      1  0.4355060000000  0.5231320000000  0.5284860000000 1.0
C      1  0.5608030000000  0.4837460000000  0.5280700000000 1.0
C      1  0.4318490000000  0.4760530000000  0.4727680000000 1.0
C      1  0.5692760000000  0.5216320000000  0.4717460000000 1.0
C      1  0.5008590000000  0.4157220000000  0.4854180000000 1.0
C      1  0.4984830000000  0.5790530000000  0.4870610000000 1.0
C      1  0.5006170000000  0.4185480000000  0.5149680000000 1.0
C      1  0.4993240000000  0.5803700000000  0.5162710000000 1.0
C      1  0.4180150000000  0.4979140000000  0.4866360000000 1.0
C      1  0.5808380000000  0.5008780000000  0.4875270000000 1.0
C      1  0.4186290000000  0.4991920000000  0.5151840000000 1.0
C      1  0.5808410000000  0.5033900000000  0.5155870000000 1.0
C      1  0.4901360000000  0.4687200000000  0.5465800000000 1.0
C      1  0.5032210000000  0.5178930000000  0.5399120000000 1.0
C      1  0.5087450000000  0.4712590000000  0.4523300000000 1.0
C      1  0.5011590000000  0.5223470000000  0.4549760000000 1.0
C      1  0.4800230000000  0.4969730000000  0.5472590000000 1.0
C      1  0.5309290000000  0.5077770000000  0.5419660000000 1.0
C      1  0.4740690000000  0.5056510000000  0.4608090000000 1.0
C      1  0.5249930000000  0.5002330000000  0.4575940000000 1.0
C      1  0.5304260000000  0.4522240000000  0.4362330000000 1.0
C      1  0.4755920000000  0.5446080000000  0.4518880000000 1.0
C      1  0.4679120000000  0.4537190000000  0.5604530000000 1.0
C      1  0.5292790000000  0.5487070000000  0.5670800000000 1.0
C      1  0.4499450000000  0.5258180000000  0.4487630000000 1.0
C      1  0.5482870000000  0.4759970000000  0.4499370000000 1.0
C      1  0.4502120000000  0.4730760000000  0.5703790000000 1.0
C      1  0.5473260000000  0.5311580000000  0.5496980000000 1.0
C      1  0.4497790000000  0.5373070000000  0.4812990000000 1.0
C      1  0.5408520000000  0.4730120000000  0.4818830000000 1.0
C      1  0.5639710000000  0.5395340000000  0.5209640000000 1.0
C      1  0.4510290000000  0.4770480000000  0.5078080000000 1.0
C      1  0.5267250000000  0.4459740000000  0.4853580000000 1.0
C      1  0.4833470000000  0.5421040000000  0.4847480000000 1.0
C      1  0.5344180000000  0.5516590000000  0.5121860000000 1.0
C      1  0.4733260000000  0.4544920000000  0.5141250000000 1.0
C      1  0.4630120000000  0.4285540000000  0.5510000000000 1.0
C      1  0.5289790000000  0.5745620000000  0.5555720000000 1.0
C      1  0.5306650000000  0.4256400000000  0.4417630000000 1.0
C      1  0.4671860000000  0.5743630000000  0.4466330000000 1.0
C      1  0.4254650000000  0.4724700000000  0.5568390000000 1.0
C      1  0.5787290000000  0.5307890000000  0.5569580000000 1.0
C      1  0.4164400000000  0.5267810000000  0.4445400000000 1.0
C      1  0.5806880000000  0.4666600000000  0.4492110000000 1.0
C      1  0.5923580000000  0.5248090000000  0.5318960000000 1.0
C      1  0.4244830000000  0.4737530000000  0.5288180000000 1.0
C      1  0.4198380000000  0.5228960000000  0.4741490000000 1.0
C      1  0.5733020000000  0.4722110000000  0.4808200000000 1.0
C      1  0.5235920000000  0.5744460000000  0.5280970000000 1.0
C      1  0.4691010000000  0.4236570000000  0.5203050000000 1.0
C      1  0.5254230000000  0.4194650000000  0.4686470000000 1.0
C      1  0.4687320000000  0.5724280000000  0.4796240000000 1.0
C      1  0.5646640000000  0.5443790000000  0.4875850000000 1.0
C      1  0.4363670000000  0.4519970000000  0.4900950000000 1.0
C      1  0.4363020000000  0.5459150000000  0.5095290000000 1.0
C      1  0.5643930000000  0.4579500000000  0.5104600000000 1.0
C      1  0.5417190000000  0.5624730000000  0.4820560000000 1.0
C      1  0.4537110000000  0.4294570000000  0.4903190000000 1.0
C      1  0.5411490000000  0.4419400000000  0.5112310000000 1.0
C      1  0.4563400000000  0.5670070000000  0.5088840000000 1.0
C      1  0.5111900000000  0.5355580000000  0.4191240000000 1.0
C      1  0.4906270000000  0.4707300000000  0.4186880000000 1.0
C      1  0.5031570000000  0.5377080000000  0.5740790000000 1.0
C      1  0.5109980000000  0.4731230000000  0.5799130000000 1.0
C      1  0.5341570000000  0.5143950000000  0.4216490000000 1.0
C      1  0.4702040000000  0.4940090000000  0.4306270000000 1.0
C      1  0.5312090000000  0.4980770000000  0.5806740000000 1.0
C      1  0.4647570000000  0.5021100000000  0.5753900000000 1.0
C      1  0.4979610000000  0.5050550000000  0.5822150000000 1.0
C      1  0.5019760000000  0.5027890000000  0.4201760000000 1.0
END
