TITL C-2622963-3633-381 -0.00173663771658242 125000 -694.366997641392 0 0 127 (C1) n - 1
REM
REM in /nfs/bkarasulu/CARBON/AIRSS/Generating-Clusters/AIREBO/with-SteepDescent/Higher-Symm/SD-CG/HFTN-CG
REM
REM
REM
REM
REM
REM ./C.cell (b20cbc046b6831c77cfcea5457e17084)
REM
REM compiler GCC version 9.2.1 20190827 (Red Hat 9.2.1-1)
REM options -cpp -mtune=generic -march=x86-64 -g -O0 -fpre-include=/usr/include/finclude/math-vector-fortran.h
REM seed -1403861944 -1510899953 -187862052 -538952791 -1098644057 -1258843021 131219542 1523173603 1528148481 -990106253 -526303593 272833937 2027475595 1716417089 1668196484 1128497481 1018197059 2077671785 723166965 -933222351 1815488847 1849478855 1939979571 2020990064 1738534656 -289345790 2065351701 563541053 -1489912208 -1142913460 288855881 -1616700596 -1050807461
REM
CELL 1.54180   50.00000   50.00000   50.00000   90.00000   90.00000   90.00000
LATT -1
SFAC C  
C      1  0.4484860000000  0.4449310000000  0.4408580000000 1.0
C      1  0.4216550000000  0.4486340000000  0.5153320000000 1.0
C      1  0.4843270000000  0.4469020000000  0.5815690000000 1.0
C      1  0.5591480000000  0.4426660000000  0.5575840000000 1.0
C      1  0.5706800000000  0.4458880000000  0.4802870000000 1.0
C      1  0.5181780000000  0.4492470000000  0.4271490000000 1.0
C      1  0.4547310000000  0.5527400000000  0.4383200000000 1.0
C      1  0.4317140000000  0.5603110000000  0.5122810000000 1.0
C      1  0.4696990000000  0.5568500000000  0.5740380000000 1.0
C      1  0.5544570000000  0.5555580000000  0.5591410000000 1.0
C      1  0.5679690000000  0.5579650000000  0.4908190000000 1.0
C      1  0.5405180000000  0.5722150000000  0.4272090000000 1.0
C      1  0.5146210000000  0.4804590000000  0.4396040000000 1.0
C      1  0.4655220000000  0.4944840000000  0.4551700000000 1.0
C      1  0.4212650000000  0.4808940000000  0.5152870000000 1.0
C      1  0.4800290000000  0.4960820000000  0.5570800000000 1.0
C      1  0.5376550000000  0.4894620000000  0.5552810000000 1.0
C      1  0.5591610000000  0.4758410000000  0.4892600000000 1.0
C      1  0.5184690000000  0.5098000000000  0.4286070000000 1.0
C      1  0.4475050000000  0.5203200000000  0.4450910000000 1.0
C      1  0.4364750000000  0.5054870000000  0.4979570000000 1.0
C      1  0.4832430000000  0.5256620000000  0.5734150000000 1.0
C      1  0.5468590000000  0.5221430000000  0.5572310000000 1.0
C      1  0.5677060000000  0.5229940000000  0.4889710000000 1.0
C      1  0.5209340000000  0.4394950000000  0.4801060000000 1.0
C      1  0.4934350000000  0.4375340000000  0.4690210000000 1.0
C      1  0.4690450000000  0.4368650000000  0.4891230000000 1.0
C      1  0.4720070000000  0.4422480000000  0.5216770000000 1.0
C      1  0.4998350000000  0.4327310000000  0.5301900000000 1.0
C      1  0.5285130000000  0.4382720000000  0.5127440000000 1.0
C      1  0.5230480000000  0.5675800000000  0.4826460000000 1.0
C      1  0.4976800000000  0.5586300000000  0.4657860000000 1.0
C      1  0.4744460000000  0.5620400000000  0.4859640000000 1.0
C      1  0.4737230000000  0.5567230000000  0.5150050000000 1.0
C      1  0.4998220000000  0.5605650000000  0.5306630000000 1.0
C      1  0.5248790000000  0.5668310000000  0.5129870000000 1.0
C      1  0.4271390000000  0.5031380000000  0.4591620000000 1.0
C      1  0.4046640000000  0.5055340000000  0.5628790000000 1.0
C      1  0.4776750000000  0.5025610000000  0.5961340000000 1.0
C      1  0.5750140000000  0.5063140000000  0.5472290000000 1.0
C      1  0.5719020000000  0.5196280000000  0.4575510000000 1.0
C      1  0.5008340000000  0.4931050000000  0.4047630000000 1.0
C      1  0.4400480000000  0.4718830000000  0.4555150000000 1.0
C      1  0.4209360000000  0.4914440000000  0.5424410000000 1.0
C      1  0.4934290000000  0.4766800000000  0.5818540000000 1.0
C      1  0.5650220000000  0.4734040000000  0.5495480000000 1.0
C      1  0.5812200000000  0.4908210000000  0.4695500000000 1.0
C      1  0.4913840000000  0.4645210000000  0.4002250000000 1.0
C      1  0.5388990000000  0.5949850000000  0.4707200000000 1.0
C      1  0.4975010000000  0.5851160000000  0.4472550000000 1.0
C      1  0.4556550000000  0.5892090000000  0.4784790000000 1.0
C      1  0.4644590000000  0.5826830000000  0.5343770000000 1.0
C      1  0.5098580000000  0.5821360000000  0.5541680000000 1.0
C      1  0.5460970000000  0.5916170000000  0.5225590000000 1.0
C      1  0.5358520000000  0.4118060000000  0.4554530000000 1.0
C      1  0.4869600000000  0.4121270000000  0.4473610000000 1.0
C      1  0.4413560000000  0.4087350000000  0.4870570000000 1.0
C      1  0.4616130000000  0.4114500000000  0.5446010000000 1.0
C      1  0.5181050000000  0.4074430000000  0.5552230000000 1.0
C      1  0.5510910000000  0.4056310000000  0.5108140000000 1.0
C      1  0.4104990000000  0.5192470000000  0.4808750000000 1.0
C      1  0.4366140000000  0.5129290000000  0.5718580000000 1.0
C      1  0.5398450000000  0.5234800000000  0.5904780000000 1.0
C      1  0.5856580000000  0.5110950000000  0.5152890000000 1.0
C      1  0.5511330000000  0.5149850000000  0.4310310000000 1.0
C      1  0.4773140000000  0.5154890000000  0.4026330000000 1.0
C      1  0.4212010000000  0.4717940000000  0.4828450000000 1.0
C      1  0.4499930000000  0.4869630000000  0.5538040000000 1.0
C      1  0.5241930000000  0.4786930000000  0.5837270000000 1.0
C      1  0.5727510000000  0.4797320000000  0.5177910000000 1.0
C      1  0.5561140000000  0.4847520000000  0.4474380000000 1.0
C      1  0.4706970000000  0.4784300000000  0.4311090000000 1.0
C      1  0.4294570000000  0.4388470000000  0.4843620000000 1.0
C      1  0.4576490000000  0.4432210000000  0.5708720000000 1.0
C      1  0.5319960000000  0.4520430000000  0.5678820000000 1.0
C      1  0.5812260000000  0.4312020000000  0.5055690000000 1.0
C      1  0.5490900000000  0.4592310000000  0.4274730000000 1.0
C      1  0.4670250000000  0.4441110000000  0.4123570000000 1.0
C      1  0.4246920000000  0.5465820000000  0.4883800000000 1.0
C      1  0.4477080000000  0.5395790000000  0.5617010000000 1.0
C      1  0.5279490000000  0.5498720000000  0.5787590000000 1.0
C      1  0.5830450000000  0.5448610000000  0.5183330000000 1.0
C      1  0.5476490000000  0.5481260000000  0.4378020000000 1.0
C      1  0.4767440000000  0.5353750000000  0.4226720000000 1.0
C      1  0.5409580000000  0.5315150000000  0.5036540000000 1.0
C      1  0.5214850000000  0.5283950000000  0.4763950000000 1.0
C      1  0.4911070000000  0.5201990000000  0.4738300000000 1.0
C      1  0.4620640000000  0.5240790000000  0.4846200000000 1.0
C      1  0.4614860000000  0.5185250000000  0.5169600000000 1.0
C      1  0.5218220000000  0.5282900000000  0.5388020000000 1.0
C      1  0.5295540000000  0.4888230000000  0.4998970000000 1.0
C      1  0.5164490000000  0.4795600000000  0.4722320000000 1.0
C      1  0.4877070000000  0.4898180000000  0.4757730000000 1.0
C      1  0.4753750000000  0.4806160000000  0.5005760000000 1.0
C      1  0.4873740000000  0.4978160000000  0.5247560000000 1.0
C      1  0.5165030000000  0.4812710000000  0.5306910000000 1.0
C      1  0.4898110000000  0.4220980000000  0.5603390000000 1.0
C      1  0.5409510000000  0.4210900000000  0.5393250000000 1.0
C      1  0.5494930000000  0.4213260000000  0.4833220000000 1.0
C      1  0.5152510000000  0.4205080000000  0.4402070000000 1.0
C      1  0.4576580000000  0.4224230000000  0.4605260000000 1.0
C      1  0.4442160000000  0.4232840000000  0.5178220000000 1.0
C      1  0.4790550000000  0.5799070000000  0.5587390000000 1.0
C      1  0.5379420000000  0.5832940000000  0.5499500000000 1.0
C      1  0.5561230000000  0.5863810000000  0.4946570000000 1.0
C      1  0.5255480000000  0.5903600000000  0.4440000000000 1.0
C      1  0.4675620000000  0.5804040000000  0.4511590000000 1.0
C      1  0.4469330000000  0.5854450000000  0.5079260000000 1.0
C      1  0.4544630000000  0.4565330000000  0.5470700000000 1.0
C      1  0.5142370000000  0.4551210000000  0.5457930000000 1.0
C      1  0.5603540000000  0.4487300000000  0.5185080000000 1.0
C      1  0.5392860000000  0.4576010000000  0.4599890000000 1.0
C      1  0.4877400000000  0.4512120000000  0.4383680000000 1.0
C      1  0.4520080000000  0.4633820000000  0.4945180000000 1.0
C      1  0.4482940000000  0.5423250000000  0.5323850000000 1.0
C      1  0.5042160000000  0.5431460000000  0.5595340000000 1.0
C      1  0.5515000000000  0.5522240000000  0.5267090000000 1.0
C      1  0.5456460000000  0.5484690000000  0.4677440000000 1.0
C      1  0.4990080000000  0.5324520000000  0.4440240000000 1.0
C      1  0.4491670000000  0.5505970000000  0.4704500000000 1.0
C      1  0.4496730000000  0.5032090000000  0.5990270000000 1.0
C      1  0.5354020000000  0.5000930000000  0.6028220000000 1.0
C      1  0.3830380000000  0.5184830000000  0.4811990000000 1.0
C      1  0.6052640000000  0.4977480000000  0.4909160000000 1.0
C      1  0.4613100000000  0.4905700000000  0.4084120000000 1.0
C      1  0.5648550000000  0.5133780000000  0.4053510000000 1.0
C      1  0.5133070000000  0.5160130000000  0.5124010000000 1.0
END
