TITL C-2622968-4806-723 0.00312448604903935 125000 -1001.66882191495 0 0 177 (C1) n - 1
REM
REM in /nfs/bkarasulu/CARBON/AIRSS/Generating-Clusters/AIREBO/with-SteepDescent/Higher-Symm/SD-CG/HFTN-CG
REM
REM
REM
REM
REM
REM ./C.cell (b20cbc046b6831c77cfcea5457e17084)
REM
REM compiler GCC version 9.2.1 20190827 (Red Hat 9.2.1-1)
REM options -cpp -mtune=generic -march=x86-64 -g -O0 -fpre-include=/usr/include/finclude/math-vector-fortran.h
REM seed 992760452 529074179 1241696883 82310634 1043856631 632419495 977472571 -412708853 -463294226 1425022887 -1491849696 1253285882 1782423455 564661151 1083053893 -71070531 340125655 -120127885 -260344814 1194475976 326847356 -48469769 751216368 -2095323477 -1082996429 1823126139 486837893 -993320045 -2109957944 1684637243 -350644303 -988897768 -356209313
REM
CELL 1.54180   50.00000   50.00000   50.00000   90.00000   90.00000   90.00000
LATT -1
SFAC C  
C      1  0.5620260000000  0.4151660000000  0.4980050000000 1.0
C      1  0.5280910000000  0.4159810000000  0.5385170000000 1.0
C      1  0.4851490000000  0.4179120000000  0.5541980000000 1.0
C      1  0.4463950000000  0.4127340000000  0.5206860000000 1.0
C      1  0.4506090000000  0.4214150000000  0.4718320000000 1.0
C      1  0.4875340000000  0.4132520000000  0.4361580000000 1.0
C      1  0.5426730000000  0.4228410000000  0.4558990000000 1.0
C      1  0.4707260000000  0.5228510000000  0.3929280000000 1.0
C      1  0.5582680000000  0.5310400000000  0.4122100000000 1.0
C      1  0.6097880000000  0.5207570000000  0.4998820000000 1.0
C      1  0.5974130000000  0.5381260000000  0.5851870000000 1.0
C      1  0.4746080000000  0.5304030000000  0.6116550000000 1.0
C      1  0.4040940000000  0.5305110000000  0.5442710000000 1.0
C      1  0.4063730000000  0.5286800000000  0.4500720000000 1.0
C      1  0.4493130000000  0.5587990000000  0.4512200000000 1.0
C      1  0.4970040000000  0.5451870000000  0.4288560000000 1.0
C      1  0.5609750000000  0.5515680000000  0.4562050000000 1.0
C      1  0.5726500000000  0.5426910000000  0.5211210000000 1.0
C      1  0.5189710000000  0.5472190000000  0.5687490000000 1.0
C      1  0.4606100000000  0.5569800000000  0.5672120000000 1.0
C      1  0.4277310000000  0.5616070000000  0.5085730000000 1.0
C      1  0.4253620000000  0.4332210000000  0.4674900000000 1.0
C      1  0.4591880000000  0.4276860000000  0.4241500000000 1.0
C      1  0.5307600000000  0.4338810000000  0.4274940000000 1.0
C      1  0.5817620000000  0.4258110000000  0.4724460000000 1.0
C      1  0.5526490000000  0.4298310000000  0.5529070000000 1.0
C      1  0.5002700000000  0.4312340000000  0.5815880000000 1.0
C      1  0.4417850000000  0.4344410000000  0.5460060000000 1.0
C      1  0.4953040000000  0.4003380000000  0.4606370000000 1.0
C      1  0.5254650000000  0.4006590000000  0.4664440000000 1.0
C      1  0.5386080000000  0.3983950000000  0.4943620000000 1.0
C      1  0.5217830000000  0.3951790000000  0.5184450000000 1.0
C      1  0.4916620000000  0.4015410000000  0.5307350000000 1.0
C      1  0.4702540000000  0.4008680000000  0.5109400000000 1.0
C      1  0.4740920000000  0.4037730000000  0.4818900000000 1.0
C      1  0.4238290000000  0.4535900000000  0.4437610000000 1.0
C      1  0.4871840000000  0.4389090000000  0.4129940000000 1.0
C      1  0.5625610000000  0.4485170000000  0.4457820000000 1.0
C      1  0.5891880000000  0.4361880000000  0.5030450000000 1.0
C      1  0.5391270000000  0.4532340000000  0.5718390000000 1.0
C      1  0.4711560000000  0.4451930000000  0.5708990000000 1.0
C      1  0.4275930000000  0.4407750000000  0.5161520000000 1.0
C      1  0.4768290000000  0.5531170000000  0.5936550000000 1.0
C      1  0.4201880000000  0.5539400000000  0.5377830000000 1.0
C      1  0.4157370000000  0.5563070000000  0.4464650000000 1.0
C      1  0.4747290000000  0.5481290000000  0.4064100000000 1.0
C      1  0.5606430000000  0.5561020000000  0.4260180000000 1.0
C      1  0.6000970000000  0.5463090000000  0.5089830000000 1.0
C      1  0.5717160000000  0.5457060000000  0.5920140000000 1.0
C      1  0.5193390000000  0.5536910000000  0.4056540000000 1.0
C      1  0.5921960000000  0.5474000000000  0.4652090000000 1.0
C      1  0.5763930000000  0.5469240000000  0.5523410000000 1.0
C      1  0.5161990000000  0.5499090000000  0.6175790000000 1.0
C      1  0.4153120000000  0.5515980000000  0.5833180000000 1.0
C      1  0.4020240000000  0.5570150000000  0.4896010000000 1.0
C      1  0.4309450000000  0.5469270000000  0.3991310000000 1.0
C      1  0.5253260000000  0.5709100000000  0.5287280000000 1.0
C      1  0.4762410000000  0.5724380000000  0.5467420000000 1.0
C      1  0.4594090000000  0.5719440000000  0.5015530000000 1.0
C      1  0.4724000000000  0.5776160000000  0.4678820000000 1.0
C      1  0.5018590000000  0.5667810000000  0.4546700000000 1.0
C      1  0.5334440000000  0.5625280000000  0.4678480000000 1.0
C      1  0.5341030000000  0.5744480000000  0.4977960000000 1.0
C      1  0.5097130000000  0.4550670000000  0.5592120000000 1.0
C      1  0.4654290000000  0.4585370000000  0.5419780000000 1.0
C      1  0.4405420000000  0.4672440000000  0.5075400000000 1.0
C      1  0.4575400000000  0.4523260000000  0.4476810000000 1.0
C      1  0.5063970000000  0.4483060000000  0.4366040000000 1.0
C      1  0.5592860000000  0.4503340000000  0.4795750000000 1.0
C      1  0.5656400000000  0.4442370000000  0.5249690000000 1.0
C      1  0.5938830000000  0.4502760000000  0.4542970000000 1.0
C      1  0.5811590000000  0.4481660000000  0.5557080000000 1.0
C      1  0.5187670000000  0.4517210000000  0.5979520000000 1.0
C      1  0.4375160000000  0.4489140000000  0.5757120000000 1.0
C      1  0.4119070000000  0.4457710000000  0.4898340000000 1.0
C      1  0.4356000000000  0.4472880000000  0.4151640000000 1.0
C      1  0.5396460000000  0.4435600000000  0.4033680000000 1.0
C      1  0.4431770000000  0.4845280000000  0.4820670000000 1.0
C      1  0.4925550000000  0.4770640000000  0.4422700000000 1.0
C      1  0.5476070000000  0.4705550000000  0.4316900000000 1.0
C      1  0.5649180000000  0.4713570000000  0.5042300000000 1.0
C      1  0.5533910000000  0.4765150000000  0.5593890000000 1.0
C      1  0.4830640000000  0.4756810000000  0.5802810000000 1.0
C      1  0.4395400000000  0.4865830000000  0.5305060000000 1.0
C      1  0.5461250000000  0.4786750000000  0.5293000000000 1.0
C      1  0.4997940000000  0.4860150000000  0.5525350000000 1.0
C      1  0.4725210000000  0.4910520000000  0.5349660000000 1.0
C      1  0.4834250000000  0.4873050000000  0.5050730000000 1.0
C      1  0.4659850000000  0.4811640000000  0.4631060000000 1.0
C      1  0.5255900000000  0.4810040000000  0.4493090000000 1.0
C      1  0.5355170000000  0.4828790000000  0.4803290000000 1.0
C      1  0.4625760000000  0.6189450000000  0.4909580000000 1.0
C      1  0.4785990000000  0.6079740000000  0.4702330000000 1.0
C      1  0.5060590000000  0.6142560000000  0.4730260000000 1.0
C      1  0.5216260000000  0.6048420000000  0.4941580000000 1.0
C      1  0.5108220000000  0.5962160000000  0.5218030000000 1.0
C      1  0.4838920000000  0.5970440000000  0.5322920000000 1.0
C      1  0.4635590000000  0.6007000000000  0.5122660000000 1.0
C      1  0.5490590000000  0.5453130000000  0.5001690000000 1.0
C      1  0.4924120000000  0.5362930000000  0.4956150000000 1.0
C      1  0.5085260000000  0.5476290000000  0.5381990000000 1.0
C      1  0.4801730000000  0.5519130000000  0.5199190000000 1.0
C      1  0.4391500000000  0.5455590000000  0.4808520000000 1.0
C      1  0.4700340000000  0.5337570000000  0.4461290000000 1.0
C      1  0.5091030000000  0.5413260000000  0.4725690000000 1.0
C      1  0.4709320000000  0.4792760000000  0.6181730000000 1.0
C      1  0.4126270000000  0.4831710000000  0.5480540000000 1.0
C      1  0.4108810000000  0.4794750000000  0.4519890000000 1.0
C      1  0.4817270000000  0.4661460000000  0.3957330000000 1.0
C      1  0.5683750000000  0.4884980000000  0.4116180000000 1.0
C      1  0.6038070000000  0.4666100000000  0.4984890000000 1.0
C      1  0.5698650000000  0.4940140000000  0.5910570000000 1.0
C      1  0.5950460000000  0.4948210000000  0.5157340000000 1.0
C      1  0.5383740000000  0.5034060000000  0.5874390000000 1.0
C      1  0.4576940000000  0.5036340000000  0.6024630000000 1.0
C      1  0.3973190000000  0.5055380000000  0.5311770000000 1.0
C      1  0.4205800000000  0.5049280000000  0.4371020000000 1.0
C      1  0.4924250000000  0.4984080000000  0.4027330000000 1.0
C      1  0.5718240000000  0.5007430000000  0.4414050000000 1.0
C      1  0.5151590000000  0.5143860000000  0.5413150000000 1.0
C      1  0.4639090000000  0.5233120000000  0.5284970000000 1.0
C      1  0.4746820000000  0.5119320000000  0.4917660000000 1.0
C      1  0.4825000000000  0.5100580000000  0.4621900000000 1.0
C      1  0.5164230000000  0.5117600000000  0.4605500000000 1.0
C      1  0.5369260000000  0.5160260000000  0.4877740000000 1.0
C      1  0.5357130000000  0.5067560000000  0.5204910000000 1.0
C      1  0.5324210000000  0.5278250000000  0.3943460000000 1.0
C      1  0.6041060000000  0.5213680000000  0.4713600000000 1.0
C      1  0.6005360000000  0.5241790000000  0.5588360000000 1.0
C      1  0.5027750000000  0.5236600000000  0.6208020000000 1.0
C      1  0.4122170000000  0.5207390000000  0.5758640000000 1.0
C      1  0.3966540000000  0.5264800000000  0.4825930000000 1.0
C      1  0.4415170000000  0.5202970000000  0.3919230000000 1.0
C      1  0.4860370000000  0.4510430000000  0.5216690000000 1.0
C      1  0.4699350000000  0.4599140000000  0.4982020000000 1.0
C      1  0.4746400000000  0.4439750000000  0.4745790000000 1.0
C      1  0.5033640000000  0.4484380000000  0.4678160000000 1.0
C      1  0.5275760000000  0.4515790000000  0.4853290000000 1.0
C      1  0.5333490000000  0.4505010000000  0.5163280000000 1.0
C      1  0.5106680000000  0.4409830000000  0.5326090000000 1.0
C      1  0.5727700000000  0.4988750000000  0.4903600000000 1.0
C      1  0.5538510000000  0.5092470000000  0.5577190000000 1.0
C      1  0.4809850000000  0.5095660000000  0.5784130000000 1.0
C      1  0.4366930000000  0.5103240000000  0.5546790000000 1.0
C      1  0.4220040000000  0.5068720000000  0.4834190000000 1.0
C      1  0.4678870000000  0.4894960000000  0.4242890000000 1.0
C      1  0.5418120000000  0.5115730000000  0.4296440000000 1.0
C      1  0.4490330000000  0.4716500000000  0.4033120000000 1.0
C      1  0.5405520000000  0.4770550000000  0.3986060000000 1.0
C      1  0.6039640000000  0.4719900000000  0.4691450000000 1.0
C      1  0.5855710000000  0.4782210000000  0.5657120000000 1.0
C      1  0.5013380000000  0.4749830000000  0.6075280000000 1.0
C      1  0.4240760000000  0.4736050000000  0.5758160000000 1.0
C      1  0.4038810000000  0.4781190000000  0.4845920000000 1.0
C      1  0.4629180000000  0.5260230000000  0.5603720000000 1.0
C      1  0.4465520000000  0.5204490000000  0.4992920000000 1.0
C      1  0.4523650000000  0.5109320000000  0.4360250000000 1.0
C      1  0.5095720000000  0.5144510000000  0.4273480000000 1.0
C      1  0.5636920000000  0.5194590000000  0.4670680000000 1.0
C      1  0.5683000000000  0.5118420000000  0.5280810000000 1.0
C      1  0.5113070000000  0.5169340000000  0.5745920000000 1.0
C      1  0.6008370000000  0.5653570000000  0.4868480000000 1.0
C      1  0.5853630000000  0.5755540000000  0.5586820000000 1.0
C      1  0.5050280000000  0.5603400000000  0.5924730000000 1.0
C      1  0.4309190000000  0.5628410000000  0.5630680000000 1.0
C      1  0.4017890000000  0.5719140000000  0.4662120000000 1.0
C      1  0.4503680000000  0.5601000000000  0.4172390000000 1.0
C      1  0.5396500000000  0.5720300000000  0.4146600000000 1.0
C      1  0.6013710000000  0.4978310000000  0.5490080000000 1.0
C      1  0.5164790000000  0.5007870000000  0.6107270000000 1.0
C      1  0.4294180000000  0.4971530000000  0.5915040000000 1.0
C      1  0.3891240000000  0.5016560000000  0.5046120000000 1.0
C      1  0.4306230000000  0.4980660000000  0.4053070000000 1.0
C      1  0.5227420000000  0.5010460000000  0.3899980000000 1.0
C      1  0.5974440000000  0.4976110000000  0.4589580000000 1.0
C      1  0.5087930000000  0.4855260000000  0.4938910000000 1.0
C      1  0.5490200000000  0.5390700000000  0.5697860000000 1.0
END
