TITL C-2622961-1971-168 -3364.94774320413 125000 -634.888847358845 0 0 123 (C1) n - 1
REM
REM in /nfs/bkarasulu/CARBON/AIRSS/Generating-Clusters/AIREBO/with-SteepDescent/Higher-Symm/SD-CG/HFTN-CG
REM
REM
REM
REM
REM
REM ./C.cell (b20cbc046b6831c77cfcea5457e17084)
REM
REM compiler GCC version 9.2.1 20190827 (Red Hat 9.2.1-1)
REM options -cpp -mtune=generic -march=x86-64 -g -O0 -fpre-include=/usr/include/finclude/math-vector-fortran.h
REM seed 404932850 -564446208 1765143213 -925980535 -68008534 -2107350478 1461879614 1009960724 1733384946 -1590882307 -997606995 -1317331134 -1256745375 -181138724 -1067862867 342939969 1947698586 -1434932387 -220536746 -16417777 -1320223906 1231901326 -911109233 2103022531 -2126937285 413481171 365489426 1437081879 -2007926129 740486898 -1340755366 -1604897513 -631173095
REM
CELL 1.54180   50.00000   50.00000   50.00000   90.00000   90.00000   90.00000
LATT -1
SFAC C  
C      1  0.5440760000000  0.4543910000000  0.5321010000000 1.0
C      1  0.5148070000000  0.4572570000000  0.4387440000000 1.0
C      1  0.4341700000000  0.4593140000000  0.5253870000000 1.0
C      1  0.4818260000000  0.5144410000000  0.4923590000000 1.0
C      1  0.5027560000000  0.5146600000000  0.5188530000000 1.0
C      1  0.5150460000000  0.5145510000000  0.4886260000000 1.0
C      1  0.5399830000000  0.5840950000000  0.5109630000000 1.0
C      1  0.4882520000000  0.5829120000000  0.4595810000000 1.0
C      1  0.4697500000000  0.5832750000000  0.5300770000000 1.0
C      1  0.4749010000000  0.4699180000000  0.4476420000000 1.0
C      1  0.4634460000000  0.4675930000000  0.5405730000000 1.0
C      1  0.5571410000000  0.4705760000000  0.5061410000000 1.0
C      1  0.4765280000000  0.4233490000000  0.4513280000000 1.0
C      1  0.4661790000000  0.4220790000000  0.5452890000000 1.0
C      1  0.5584160000000  0.4229020000000  0.5120650000000 1.0
C      1  0.4765370000000  0.5458090000000  0.5723190000000 1.0
C      1  0.5742640000000  0.5477990000000  0.4846090000000 1.0
C      1  0.4452740000000  0.5488320000000  0.4439070000000 1.0
C      1  0.5109710000000  0.5462430000000  0.4769880000000 1.0
C      1  0.4715660000000  0.5459430000000  0.5000000000000 1.0
C      1  0.5135910000000  0.5465760000000  0.5233710000000 1.0
C      1  0.5277570000000  0.4606440000000  0.4961890000000 1.0
C      1  0.4826430000000  0.4592120000000  0.4762850000000 1.0
C      1  0.4880940000000  0.4612660000000  0.5212210000000 1.0
C      1  0.5374760000000  0.5712910000000  0.4548920000000 1.0
C      1  0.4402160000000  0.5721190000000  0.4900890000000 1.0
C      1  0.5201000000000  0.5709470000000  0.5563930000000 1.0
C      1  0.4468460000000  0.5715950000000  0.5180050000000 1.0
C      1  0.5413870000000  0.5718490000000  0.5368460000000 1.0
C      1  0.5100680000000  0.5709290000000  0.4456600000000 1.0
C      1  0.5765620000000  0.4732190000000  0.5456460000000 1.0
C      1  0.4995350000000  0.4691080000000  0.4107720000000 1.0
C      1  0.4249630000000  0.4703100000000  0.5562170000000 1.0
C      1  0.4502480000000  0.5018670000000  0.5132280000000 1.0
C      1  0.5347690000000  0.5002740000000  0.5375900000000 1.0
C      1  0.5170490000000  0.4990480000000  0.4522400000000 1.0
C      1  0.4318790000000  0.4855790000000  0.4572100000000 1.0
C      1  0.5020220000000  0.4830590000000  0.5776370000000 1.0
C      1  0.5668410000000  0.4833580000000  0.4602190000000 1.0
C      1  0.4233710000000  0.5382450000000  0.4591000000000 1.0
C      1  0.5023470000000  0.5285880000000  0.5759840000000 1.0
C      1  0.5651410000000  0.5292790000000  0.4612650000000 1.0
C      1  0.4820960000000  0.5774120000000  0.4925690000000 1.0
C      1  0.5014880000000  0.5780630000000  0.5190470000000 1.0
C      1  0.5149180000000  0.5778940000000  0.4888150000000 1.0
C      1  0.4785780000000  0.5448320000000  0.4667330000000 1.0
C      1  0.4809120000000  0.5450280000000  0.5326830000000 1.0
C      1  0.5370050000000  0.5462120000000  0.4988780000000 1.0
C      1  0.5658170000000  0.4971890000000  0.5240470000000 1.0
C      1  0.4905210000000  0.4943990000000  0.4316360000000 1.0
C      1  0.4455920000000  0.4959450000000  0.5463870000000 1.0
C      1  0.5394990000000  0.4909370000000  0.5888010000000 1.0
C      1  0.5588860000000  0.4926830000000  0.4223020000000 1.0
C      1  0.4053410000000  0.4951060000000  0.4854970000000 1.0
C      1  0.5796880000000  0.5352660000000  0.5139060000000 1.0
C      1  0.4692700000000  0.5368600000000  0.4268510000000 1.0
C      1  0.4484570000000  0.5341710000000  0.5608380000000 1.0
C      1  0.4956520000000  0.4279100000000  0.4790740000000 1.0
C      1  0.4836660000000  0.4297980000000  0.5171630000000 1.0
C      1  0.5260750000000  0.4305040000000  0.5048300000000 1.0
C      1  0.4035950000000  0.5091400000000  0.5105490000000 1.0
C      1  0.5595800000000  0.5084900000000  0.5778330000000 1.0
C      1  0.5393030000000  0.5096380000000  0.4099350000000 1.0
C      1  0.4188960000000  0.5540920000000  0.4827190000000 1.0
C      1  0.5237680000000  0.5507980000000  0.5766110000000 1.0
C      1  0.5539100000000  0.5512220000000  0.4424270000000 1.0
C      1  0.5912660000000  0.5058520000000  0.5032220000000 1.0
C      1  0.4625260000000  0.5065350000000  0.4166160000000 1.0
C      1  0.4530150000000  0.5055500000000  0.5781540000000 1.0
C      1  0.5522380000000  0.4644670000000  0.4357800000000 1.0
C      1  0.4159770000000  0.4672300000000  0.4812280000000 1.0
C      1  0.5289760000000  0.4627500000000  0.5786180000000 1.0
C      1  0.5110450000000  0.4193890000000  0.4499720000000 1.0
C      1  0.4501830000000  0.4245970000000  0.5142660000000 1.0
C      1  0.5337570000000  0.4162790000000  0.5347470000000 1.0
C      1  0.5126230000000  0.5068220000000  0.5995330000000 1.0
C      1  0.5806500000000  0.5077520000000  0.4409700000000 1.0
C      1  0.4118160000000  0.5127800000000  0.4608950000000 1.0
C      1  0.5538400000000  0.4206430000000  0.4783600000000 1.0
C      1  0.4568820000000  0.4366500000000  0.4767970000000 1.0
C      1  0.4993730000000  0.4238080000000  0.5533130000000 1.0
C      1  0.5909670000000  0.5016680000000  0.4756870000000 1.0
C      1  0.4387160000000  0.4967150000000  0.4258110000000 1.0
C      1  0.4771830000000  0.5017400000000  0.5914430000000 1.0
C      1  0.4090640000000  0.5388570000000  0.5055140000000 1.0
C      1  0.5495520000000  0.5376640000000  0.5747670000000 1.0
C      1  0.5397300000000  0.5383710000000  0.4209300000000 1.0
C      1  0.4313870000000  0.4588800000000  0.4361470000000 1.0
C      1  0.4802040000000  0.4606620000000  0.5884610000000 1.0
C      1  0.5888740000000  0.4599590000000  0.4712420000000 1.0
C      1  0.4748420000000  0.5161540000000  0.4532360000000 1.0
C      1  0.4727470000000  0.5167110000000  0.5452150000000 1.0
C      1  0.5521800000000  0.5195770000000  0.5022330000000 1.0
C      1  0.4570790000000  0.5708780000000  0.4627810000000 1.0
C      1  0.4877690000000  0.5696940000000  0.5550660000000 1.0
C      1  0.5535860000000  0.5715340000000  0.4833870000000 1.0
C      1  0.5193200000000  0.5320650000000  0.4473920000000 1.0
C      1  0.4424820000000  0.5331080000000  0.5080750000000 1.0
C      1  0.5368180000000  0.5327190000000  0.5436250000000 1.0
C      1  0.4702400000000  0.4091050000000  0.4915970000000 1.0
C      1  0.5046840000000  0.4047880000000  0.5265960000000 1.0
C      1  0.5233270000000  0.4081670000000  0.4799860000000 1.0
C      1  0.5004870000000  0.5470750000000  0.4233900000000 1.0
C      1  0.4318870000000  0.5477140000000  0.5368970000000 1.0
C      1  0.5664300000000  0.5491290000000  0.5404740000000 1.0
C      1  0.4626340000000  0.4529160000000  0.5700910000000 1.0
C      1  0.5819560000000  0.4531650000000  0.4966140000000 1.0
C      1  0.4571080000000  0.4518930000000  0.4317070000000 1.0
C      1  0.5730650000000  0.5172610000000  0.5503720000000 1.0
C      1  0.5084740000000  0.5157870000000  0.4125520000000 1.0
C      1  0.4199980000000  0.5158390000000  0.5361220000000 1.0
C      1  0.4599210000000  0.4964550000000  0.4734380000000 1.0
C      1  0.5040800000000  0.5050840000000  0.5514630000000 1.0
C      1  0.5436000000000  0.5054790000000  0.4725020000000 1.0
C      1  0.5765770000000  0.4445560000000  0.5290510000000 1.0
C      1  0.4883070000000  0.4403210000000  0.4246800000000 1.0
C      1  0.4383230000000  0.4389160000000  0.5522690000000 1.0
C      1  0.5282280000000  0.4415160000000  0.5569520000000 1.0
C      1  0.5391170000000  0.4383430000000  0.4531590000000 1.0
C      1  0.4332820000000  0.4481050000000  0.4963990000000 1.0
C      1  0.4689450000000  0.4783860000000  0.5007990000000 1.0
C      1  0.5171120000000  0.4738610000000  0.5254390000000 1.0
C      1  0.5142450000000  0.4701930000000  0.4702270000000 1.0
END
