TITL C-2622960-5345-336 -0.00278329096147578 125000 -466.41572335225 0 0 84 (C1) n - 1
REM
REM in /nfs/bkarasulu/CARBON/AIRSS/Generating-Clusters/AIREBO/with-SteepDescent/Higher-Symm/SD-CG/HFTN-CG
REM
REM
REM
REM
REM
REM ./C.cell (b20cbc046b6831c77cfcea5457e17084)
REM
REM compiler GCC version 9.2.1 20190827 (Red Hat 9.2.1-1)
REM options -cpp -mtune=generic -march=x86-64 -g -O0 -fpre-include=/usr/include/finclude/math-vector-fortran.h
REM seed 940726804 -167135851 -571671268 -1275707022 1895444285 1096498782 -675610068 1206713947 1789162053 724116647 -1284962573 304327363 1836887915 527761134 1657527390 1538033444 539674686 2033790192 281103334 -1937278722 -1933087508 -245010119 -1093387535 139710400 409650421 -1258015307 1340020538 756226988 -326158029 -1199366981 -922447516 1710993954 1859242214
REM
CELL 1.54180   50.00000   50.00000   50.00000   90.00000   90.00000   90.00000
LATT -1
SFAC C  
C      1  0.4334830000000  0.5357230000000  0.5189390000000 1.0
C      1  0.5109430000000  0.5302090000000  0.4419970000000 1.0
C      1  0.5391230000000  0.5296850000000  0.5517340000000 1.0
C      1  0.5908070000000  0.4766060000000  0.4904410000000 1.0
C      1  0.4680740000000  0.4857490000000  0.5852740000000 1.0
C      1  0.4500660000000  0.4630970000000  0.4311680000000 1.0
C      1  0.4685420000000  0.4340070000000  0.4946030000000 1.0
C      1  0.5267070000000  0.4325380000000  0.4716270000000 1.0
C      1  0.5121160000000  0.4325440000000  0.5299550000000 1.0
C      1  0.4719880000000  0.5676720000000  0.5194490000000 1.0
C      1  0.4996420000000  0.5720540000000  0.4665840000000 1.0
C      1  0.5313690000000  0.5662440000000  0.5162110000000 1.0
C      1  0.4268610000000  0.5104420000000  0.5296540000000 1.0
C      1  0.5069690000000  0.5036970000000  0.4239010000000 1.0
C      1  0.5563110000000  0.5086990000000  0.5483510000000 1.0
C      1  0.4695940000000  0.4853700000000  0.5070220000000 1.0
C      1  0.5104030000000  0.4910540000000  0.4688390000000 1.0
C      1  0.5212140000000  0.4843230000000  0.5177790000000 1.0
C      1  0.5284340000000  0.5268050000000  0.4709600000000 1.0
C      1  0.5079800000000  0.5249490000000  0.5419530000000 1.0
C      1  0.4452280000000  0.5315720000000  0.4882830000000 1.0
C      1  0.5415950000000  0.4287260000000  0.5231590000000 1.0
C      1  0.4556340000000  0.4347780000000  0.5253520000000 1.0
C      1  0.5029960000000  0.4273660000000  0.4514920000000 1.0
C      1  0.4942240000000  0.5145390000000  0.4873910000000 1.0
C      1  0.5253380000000  0.5099940000000  0.5003640000000 1.0
C      1  0.4867680000000  0.5095590000000  0.5202030000000 1.0
C      1  0.4788950000000  0.5534480000000  0.5460060000000 1.0
C      1  0.4735660000000  0.5574940000000  0.4605300000000 1.0
C      1  0.5512280000000  0.5540430000000  0.4948980000000 1.0
C      1  0.4791490000000  0.4974880000000  0.4201300000000 1.0
C      1  0.5709660000000  0.5074810000000  0.5243660000000 1.0
C      1  0.4415780000000  0.5090890000000  0.5541660000000 1.0
C      1  0.4819930000000  0.4922470000000  0.5554530000000 1.0
C      1  0.4547280000000  0.4806340000000  0.4596820000000 1.0
C      1  0.5602860000000  0.4773220000000  0.4751540000000 1.0
C      1  0.4446330000000  0.4627940000000  0.5383510000000 1.0
C      1  0.4996040000000  0.4547750000000  0.4326080000000 1.0
C      1  0.5580780000000  0.4581280000000  0.5276560000000 1.0
C      1  0.4653320000000  0.5063040000000  0.4437450000000 1.0
C      1  0.5757330000000  0.5050620000000  0.4849790000000 1.0
C      1  0.4875460000000  0.5090370000000  0.5911900000000 1.0
C      1  0.5187960000000  0.5931970000000  0.5098240000000 1.0
C      1  0.4869250000000  0.5925520000000  0.5126760000000 1.0
C      1  0.5000020000000  0.5964700000000  0.4838150000000 1.0
C      1  0.5176370000000  0.4554900000000  0.5054610000000 1.0
C      1  0.4839010000000  0.4577940000000  0.5090350000000 1.0
C      1  0.5064140000000  0.4599980000000  0.4738800000000 1.0
C      1  0.4744030000000  0.4686210000000  0.4176600000000 1.0
C      1  0.5795050000000  0.4810070000000  0.5181690000000 1.0
C      1  0.4445800000000  0.4830540000000  0.5656720000000 1.0
C      1  0.5425740000000  0.4163240000000  0.4973970000000 1.0
C      1  0.4810070000000  0.4188370000000  0.5293150000000 1.0
C      1  0.4802170000000  0.4187660000000  0.4662900000000 1.0
C      1  0.5099610000000  0.5138640000000  0.5740510000000 1.0
C      1  0.4169140000000  0.5214260000000  0.4792760000000 1.0
C      1  0.5504050000000  0.5271870000000  0.4456200000000 1.0
C      1  0.4769800000000  0.4649470000000  0.5405850000000 1.0
C      1  0.4783090000000  0.4579150000000  0.4588960000000 1.0
C      1  0.5499270000000  0.4553590000000  0.4947570000000 1.0
C      1  0.5605230000000  0.4302960000000  0.4743710000000 1.0
C      1  0.4954820000000  0.4461160000000  0.5541670000000 1.0
C      1  0.4528090000000  0.4362080000000  0.4645700000000 1.0
C      1  0.5119010000000  0.4834590000000  0.5485240000000 1.0
C      1  0.4436520000000  0.4827960000000  0.4870750000000 1.0
C      1  0.5400870000000  0.4820610000000  0.4548540000000 1.0
C      1  0.4820930000000  0.5270880000000  0.4582030000000 1.0
C      1  0.5553790000000  0.5237960000000  0.5003450000000 1.0
C      1  0.4690960000000  0.5223770000000  0.5462980000000 1.0
C      1  0.5293350000000  0.5581150000000  0.5470030000000 1.0
C      1  0.4417090000000  0.5651930000000  0.5081440000000 1.0
C      1  0.5253550000000  0.5601300000000  0.4495260000000 1.0
C      1  0.4146530000000  0.4962990000000  0.4835650000000 1.0
C      1  0.5516250000000  0.5040060000000  0.4347360000000 1.0
C      1  0.5313580000000  0.4925810000000  0.5750300000000 1.0
C      1  0.5474480000000  0.5617490000000  0.4679340000000 1.0
C      1  0.5025260000000  0.5627210000000  0.5568590000000 1.0
C      1  0.4504140000000  0.5622480000000  0.4766630000000 1.0
C      1  0.4762910000000  0.5412210000000  0.4985230000000 1.0
C      1  0.5126990000000  0.5497200000000  0.4855360000000 1.0
C      1  0.5047860000000  0.5450250000000  0.5167080000000 1.0
C      1  0.5200280000000  0.4790580000000  0.4307480000000 1.0
C      1  0.5453360000000  0.4772880000000  0.5488070000000 1.0
C      1  0.4312370000000  0.4843000000000  0.5178330000000 1.0
END
