TITL C-2622959-7779-641 416.603338193192 125000 -454.29159846848 0 0 80 (C1) n - 1
REM
REM in /nfs/bkarasulu/CARBON/AIRSS/Generating-Clusters/AIREBO/with-SteepDescent/Higher-Symm/SD-CG/HFTN-CG
REM
REM
REM
REM
REM
REM ./C.cell (b20cbc046b6831c77cfcea5457e17084)
REM
REM compiler GCC version 9.2.1 20190827 (Red Hat 9.2.1-1)
REM options -cpp -mtune=generic -march=x86-64 -g -O0 -fpre-include=/usr/include/finclude/math-vector-fortran.h
REM seed -136618096 886860370 1417225837 -2053237049 -1264263285 1085182043 524249129 625828970 1781894272 -48961331 -267185336 -1315423849 -1846693503 -2097103131 -1171911521 -19394262 -1607962024 786115613 -452322697 -1021466982 -747399391 -1743016334 294710959 -1300579032 297694943 -444795845 -478211903 889975432 1405677982 -1461175575 -746577311 -555967034 -1501039962
REM
CELL 1.54180   50.00000   50.00000   50.00000   90.00000   90.00000   90.00000
LATT -1
SFAC C  
C      1  0.5001110000000  0.5513500000000  0.4382100000000 1.0
C      1  0.4962570000000  0.5297360000000  0.5785870000000 1.0
C      1  0.4965010000000  0.4177090000000  0.4849880000000 1.0
C      1  0.5034880000000  0.4503620000000  0.4407850000000 1.0
C      1  0.5083410000000  0.4716900000000  0.5830220000000 1.0
C      1  0.5076250000000  0.5818620000000  0.4857900000000 1.0
C      1  0.5065290000000  0.4482370000000  0.5635760000000 1.0
C      1  0.5081460000000  0.4768080000000  0.4221110000000 1.0
C      1  0.5032160000000  0.5706140000000  0.5160770000000 1.0
C      1  0.4915250000000  0.5565970000000  0.5646300000000 1.0
C      1  0.4913640000000  0.5220740000000  0.4301280000000 1.0
C      1  0.4993540000000  0.4316090000000  0.5151010000000 1.0
C      1  0.5671280000000  0.5009860000000  0.5267780000000 1.0
C      1  0.5642620000000  0.4740900000000  0.4858450000000 1.0
C      1  0.5639940000000  0.5207200000000  0.4823170000000 1.0
C      1  0.4333100000000  0.5002300000000  0.5285780000000 1.0
C      1  0.4327360000000  0.5245210000000  0.4858270000000 1.0
C      1  0.4308130000000  0.4775130000000  0.4848020000000 1.0
C      1  0.4272710000000  0.5011180000000  0.4713310000000 1.0
C      1  0.4349010000000  0.5241890000000  0.5131680000000 1.0
C      1  0.4267440000000  0.4768630000000  0.5154550000000 1.0
C      1  0.5716240000000  0.4961370000000  0.4698460000000 1.0
C      1  0.5657020000000  0.4756730000000  0.5134500000000 1.0
C      1  0.5693460000000  0.5241050000000  0.5107020000000 1.0
C      1  0.4822830000000  0.5206020000000  0.5181970000000 1.0
C      1  0.4947060000000  0.4637710000000  0.5169780000000 1.0
C      1  0.4776880000000  0.5049270000000  0.4561180000000 1.0
C      1  0.5197590000000  0.4803030000000  0.5239120000000 1.0
C      1  0.5079580000000  0.5386530000000  0.5191370000000 1.0
C      1  0.5090490000000  0.4935540000000  0.4516890000000 1.0
C      1  0.5149660000000  0.4774920000000  0.4753120000000 1.0
C      1  0.5162350000000  0.5245400000000  0.4921100000000 1.0
C      1  0.5159800000000  0.4996980000000  0.5472380000000 1.0
C      1  0.4863170000000  0.5362560000000  0.4817760000000 1.0
C      1  0.4849350000000  0.4749490000000  0.4910940000000 1.0
C      1  0.4850080000000  0.5017240000000  0.5417590000000 1.0
C      1  0.4692170000000  0.5712530000000  0.5176640000000 1.0
C      1  0.4816410000000  0.4531430000000  0.5442020000000 1.0
C      1  0.4762280000000  0.4786000000000  0.4346350000000 1.0
C      1  0.5327250000000  0.4303900000000  0.5178060000000 1.0
C      1  0.5185430000000  0.5456060000000  0.5496370000000 1.0
C      1  0.5248950000000  0.5200980000000  0.4372920000000 1.0
C      1  0.5249440000000  0.4276350000000  0.4847250000000 1.0
C      1  0.5295880000000  0.5509740000000  0.4507670000000 1.0
C      1  0.5266280000000  0.5205440000000  0.5712740000000 1.0
C      1  0.4785340000000  0.5671600000000  0.4850570000000 1.0
C      1  0.4735820000000  0.4504550000000  0.4535860000000 1.0
C      1  0.4807120000000  0.4788830000000  0.5665830000000 1.0
C      1  0.4597710000000  0.4610860000000  0.4808740000000 1.0
C      1  0.4541600000000  0.5388480000000  0.4709650000000 1.0
C      1  0.4525560000000  0.5042510000000  0.5509630000000 1.0
C      1  0.5392460000000  0.5320170000000  0.4746490000000 1.0
C      1  0.5415520000000  0.4617480000000  0.4757330000000 1.0
C      1  0.5494550000000  0.4949940000000  0.5509470000000 1.0
C      1  0.5628920000000  0.5499230000000  0.5190860000000 1.0
C      1  0.5430650000000  0.4611880000000  0.5257010000000 1.0
C      1  0.5670260000000  0.4898630000000  0.4428580000000 1.0
C      1  0.4451790000000  0.4508630000000  0.5101360000000 1.0
C      1  0.4586760000000  0.5395180000000  0.5221400000000 1.0
C      1  0.4446400000000  0.5045470000000  0.4481280000000 1.0
C      1  0.5342280000000  0.4886070000000  0.5806770000000 1.0
C      1  0.5302370000000  0.4413520000000  0.4540580000000 1.0
C      1  0.5322550000000  0.5713250000000  0.4763620000000 1.0
C      1  0.4718590000000  0.5097010000000  0.5784200000000 1.0
C      1  0.4733120000000  0.5598150000000  0.4522660000000 1.0
C      1  0.4720500000000  0.4238480000000  0.4732950000000 1.0
C      1  0.4626740000000  0.5067410000000  0.4193850000000 1.0
C      1  0.4653190000000  0.5578160000000  0.5490030000000 1.0
C      1  0.4666900000000  0.4298590000000  0.5248340000000 1.0
C      1  0.5387020000000  0.4913410000000  0.4255070000000 1.0
C      1  0.5340100000000  0.4412820000000  0.5503690000000 1.0
C      1  0.5349180000000  0.5663900000000  0.5285050000000 1.0
C      1  0.4510740000000  0.5340910000000  0.5661020000000 1.0
C      1  0.5513710000000  0.4616150000000  0.4370460000000 1.0
C      1  0.5523910000000  0.4644660000000  0.5647480000000 1.0
C      1  0.4543090000000  0.5352670000000  0.4372180000000 1.0
C      1  0.5502160000000  0.5694580000000  0.4976240000000 1.0
C      1  0.4525430000000  0.4231130000000  0.4941400000000 1.0
C      1  0.5179990000000  0.4959410000000  0.4988130000000 1.0
C      1  0.4802360000000  0.5052960000000  0.4900240000000 1.0
END
