TITL C-2622960-5345-202 0.0014215435107011 125000 -666.82963236041 0 0 123 (C1) n - 1
REM
REM in /nfs/bkarasulu/CARBON/AIRSS/Generating-Clusters/AIREBO/with-SteepDescent/Higher-Symm/SD-CG/HFTN-CG
REM
REM
REM
REM
REM
REM ./C.cell (b20cbc046b6831c77cfcea5457e17084)
REM
REM compiler GCC version 9.2.1 20190827 (Red Hat 9.2.1-1)
REM options -cpp -mtune=generic -march=x86-64 -g -O0 -fpre-include=/usr/include/finclude/math-vector-fortran.h
REM seed 1645566067 -1430639020 -574108035 -1216938002 1138294590 542775135 -656378133 547777116 1670986969 -806541330 -839894579 -342386048 1477706 1541236374 -1348330046 1090017085 -1603505116 20899619 -274585332 155646212 1799261485 -1673497576 -1966049070 -2130709779 -499945973 -2121118386 -312979126 -1415800458 1115915929 -1499625916 5847516 905453229 -2143987184
REM
CELL 1.54180   50.00000   50.00000   50.00000   90.00000   90.00000   90.00000
LATT -1
SFAC C  
C      1  0.4720710000000  0.5418430000000  0.5301010000000 1.0
C      1  0.5796940000000  0.5640060000000  0.4922270000000 1.0
C      1  0.4581550000000  0.4590840000000  0.4644620000000 1.0
C      1  0.5227830000000  0.5957660000000  0.4864160000000 1.0
C      1  0.4485020000000  0.5205680000000  0.4602240000000 1.0
C      1  0.4221870000000  0.4246420000000  0.5120660000000 1.0
C      1  0.5673740000000  0.4806740000000  0.4698320000000 1.0
C      1  0.5141690000000  0.4475910000000  0.5266300000000 1.0
C      1  0.5254530000000  0.4191640000000  0.4331630000000 1.0
C      1  0.4942860000000  0.5370110000000  0.5520340000000 1.0
C      1  0.4114970000000  0.4756380000000  0.4996400000000 1.0
C      1  0.5010760000000  0.5581940000000  0.5079530000000 1.0
C      1  0.4447560000000  0.5162150000000  0.5535880000000 1.0
C      1  0.5831590000000  0.5086940000000  0.4663520000000 1.0
C      1  0.4762280000000  0.4455250000000  0.4898700000000 1.0
C      1  0.4307860000000  0.4765280000000  0.4260090000000 1.0
C      1  0.6003020000000  0.4925200000000  0.5077430000000 1.0
C      1  0.4930840000000  0.4794930000000  0.5382210000000 1.0
C      1  0.4491700000000  0.5686520000000  0.4897300000000 1.0
C      1  0.5247010000000  0.4165110000000  0.5305000000000 1.0
C      1  0.4167560000000  0.5801080000000  0.5169940000000 1.0
C      1  0.4981670000000  0.5052960000000  0.5050120000000 1.0
C      1  0.5139790000000  0.5583440000000  0.4186400000000 1.0
C      1  0.5583230000000  0.5041920000000  0.5318200000000 1.0
C      1  0.5204870000000  0.4590740000000  0.4655810000000 1.0
C      1  0.5081280000000  0.5899920000000  0.5658650000000 1.0
C      1  0.5311600000000  0.5560410000000  0.4460790000000 1.0
C      1  0.4648350000000  0.5360640000000  0.4455560000000 1.0
C      1  0.4517720000000  0.5479110000000  0.5563510000000 1.0
C      1  0.4780860000000  0.4152110000000  0.4393680000000 1.0
C      1  0.5954070000000  0.4857130000000  0.5497270000000 1.0
C      1  0.5342460000000  0.5790590000000  0.4676300000000 1.0
C      1  0.4392530000000  0.5638990000000  0.5290290000000 1.0
C      1  0.4939430000000  0.5021890000000  0.4419090000000 1.0
C      1  0.5754760000000  0.4758950000000  0.5239750000000 1.0
C      1  0.4770100000000  0.4861240000000  0.4634180000000 1.0
C      1  0.4367700000000  0.4972920000000  0.5213190000000 1.0
C      1  0.4696160000000  0.5175210000000  0.5111600000000 1.0
C      1  0.5568120000000  0.4645310000000  0.4978500000000 1.0
C      1  0.4948340000000  0.5948410000000  0.4854210000000 1.0
C      1  0.3976480000000  0.5005100000000  0.5136440000000 1.0
C      1  0.4086170000000  0.5359490000000  0.4711350000000 1.0
C      1  0.5311610000000  0.4293620000000  0.4622110000000 1.0
C      1  0.5428410000000  0.5323530000000  0.5246510000000 1.0
C      1  0.5596810000000  0.5235700000000  0.4257860000000 1.0
C      1  0.5220990000000  0.4605640000000  0.4967190000000 1.0
C      1  0.5573440000000  0.5562260000000  0.5345460000000 1.0
C      1  0.5187290000000  0.4292990000000  0.5610790000000 1.0
C      1  0.4303190000000  0.4653680000000  0.4545070000000 1.0
C      1  0.4990980000000  0.5592700000000  0.5772950000000 1.0
C      1  0.5425550000000  0.5324760000000  0.5756410000000 1.0
C      1  0.4575240000000  0.4749200000000  0.5093880000000 1.0
C      1  0.4911630000000  0.4720200000000  0.5051020000000 1.0
C      1  0.5755760000000  0.5029470000000  0.4359850000000 1.0
C      1  0.5485880000000  0.5559210000000  0.4820080000000 1.0
C      1  0.5990510000000  0.5142540000000  0.4918590000000 1.0
C      1  0.4427080000000  0.4125790000000  0.5032350000000 1.0
C      1  0.5299170000000  0.5147780000000  0.4246310000000 1.0
C      1  0.5058240000000  0.4837250000000  0.4174760000000 1.0
C      1  0.4340220000000  0.5310270000000  0.5249270000000 1.0
C      1  0.5593960000000  0.4411730000000  0.4730640000000 1.0
C      1  0.5223030000000  0.5423930000000  0.5914170000000 1.0
C      1  0.5386320000000  0.4832530000000  0.4173280000000 1.0
C      1  0.4712290000000  0.4014680000000  0.5379220000000 1.0
C      1  0.4697620000000  0.5467150000000  0.5819250000000 1.0
C      1  0.5199430000000  0.5928260000000  0.5342360000000 1.0
C      1  0.5285590000000  0.5406640000000  0.4982000000000 1.0
C      1  0.4969780000000  0.5096040000000  0.4000670000000 1.0
C      1  0.5359390000000  0.5095960000000  0.5566810000000 1.0
C      1  0.5111350000000  0.5335800000000  0.4070190000000 1.0
C      1  0.5050910000000  0.4670080000000  0.5867690000000 1.0
C      1  0.5650570000000  0.4158670000000  0.4925590000000 1.0
C      1  0.4394380000000  0.5012440000000  0.5798220000000 1.0
C      1  0.5592270000000  0.5543180000000  0.5638870000000 1.0
C      1  0.5620670000000  0.4644520000000  0.5530830000000 1.0
C      1  0.5133540000000  0.5610370000000  0.5392490000000 1.0
C      1  0.5327770000000  0.4579950000000  0.5691010000000 1.0
C      1  0.4585040000000  0.4494210000000  0.5318610000000 1.0
C      1  0.6025430000000  0.5408140000000  0.4968110000000 1.0
C      1  0.4930050000000  0.4503170000000  0.5525240000000 1.0
C      1  0.5131460000000  0.5179580000000  0.5328130000000 1.0
C      1  0.5636890000000  0.4779910000000  0.4301050000000 1.0
C      1  0.5157860000000  0.4118910000000  0.4829510000000 1.0
C      1  0.4742460000000  0.5038830000000  0.5419890000000 1.0
C      1  0.4255380000000  0.4869140000000  0.4758240000000 1.0
C      1  0.5369620000000  0.4852990000000  0.4693670000000 1.0
C      1  0.4322620000000  0.4957670000000  0.3770910000000 1.0
C      1  0.4098280000000  0.5118780000000  0.4651740000000 1.0
C      1  0.4834580000000  0.5635500000000  0.4793560000000 1.0
C      1  0.4960180000000  0.4544320000000  0.4231100000000 1.0
C      1  0.4699640000000  0.5697990000000  0.5156200000000 1.0
C      1  0.4701550000000  0.4294140000000  0.4604240000000 1.0
C      1  0.4792200000000  0.5150990000000  0.5737200000000 1.0
C      1  0.5225710000000  0.5122990000000  0.4823900000000 1.0
C      1  0.4955770000000  0.4636180000000  0.4511920000000 1.0
C      1  0.4652360000000  0.5978400000000  0.4869160000000 1.0
C      1  0.5554490000000  0.4419390000000  0.5306650000000 1.0
C      1  0.4721040000000  0.4231240000000  0.5151170000000 1.0
C      1  0.5602270000000  0.5470740000000  0.4412690000000 1.0
C      1  0.4769160000000  0.4665900000000  0.5855710000000 1.0
C      1  0.5540190000000  0.4165600000000  0.5172050000000 1.0
C      1  0.5750890000000  0.5405340000000  0.4677950000000 1.0
C      1  0.4477790000000  0.4234270000000  0.5768600000000 1.0
C      1  0.4554300000000  0.4995270000000  0.4860170000000 1.0
C      1  0.4258990000000  0.4542010000000  0.5218630000000 1.0
C      1  0.4872460000000  0.5454760000000  0.4569410000000 1.0
C      1  0.5372250000000  0.5951200000000  0.5119550000000 1.0
C      1  0.5346650000000  0.5712410000000  0.5637920000000 1.0
C      1  0.4067660000000  0.5261820000000  0.5097570000000 1.0
C      1  0.4314510000000  0.4861280000000  0.4014420000000 1.0
C      1  0.4200340000000  0.5540690000000  0.4953780000000 1.0
C      1  0.5601170000000  0.5762250000000  0.5144600000000 1.0
C      1  0.5161310000000  0.4858220000000  0.5619900000000 1.0
C      1  0.5146630000000  0.5269860000000  0.4524890000000 1.0
C      1  0.4645720000000  0.4909830000000  0.5886610000000 1.0
C      1  0.4122920000000  0.4814930000000  0.5369120000000 1.0
C      1  0.4992880000000  0.4264190000000  0.4236290000000 1.0
C      1  0.5735980000000  0.4560370000000  0.4479670000000 1.0
C      1  0.5363850000000  0.4961890000000  0.5089750000000 1.0
C      1  0.5038930000000  0.4140230000000  0.5074700000000 1.0
C      1  0.5367280000000  0.4707740000000  0.5315770000000 1.0
C      1  0.4106720000000  0.4420670000000  0.4568290000000 1.0
C      1  0.4637990000000  0.4456790000000  0.5645560000000 1.0
END
