TITL C-2622965-4321-510 -0.00587221316864834 125000 -577.303526153931 0 0 120 (C1) n - 1
REM
REM in /nfs/bkarasulu/CARBON/AIRSS/Generating-Clusters/AIREBO/with-SteepDescent/Higher-Symm/SD-CG/HFTN-CG
REM
REM
REM
REM
REM
REM ./C.cell (b20cbc046b6831c77cfcea5457e17084)
REM
REM compiler GCC version 9.2.1 20190827 (Red Hat 9.2.1-1)
REM options -cpp -mtune=generic -march=x86-64 -g -O0 -fpre-include=/usr/include/finclude/math-vector-fortran.h
REM seed -736246147 2105097632 1027214088 -329758503 2074787173 1357014899 -897933074 1836182345 1037082618 141796384 1696069090 1844342904 -888999154 1951692445 -558420292 -280938054 -1042997982 1648458028 718304486 -1010178343 1565860071 1980894712 -952624349 1814883014 -1786503615 1376544634 -602470058 53758703 855768993 -162513992 757318382 2070738282 -978807239
REM
CELL 1.54180   50.00000   50.00000   50.00000   90.00000   90.00000   90.00000
LATT -1
SFAC C  
C      1  0.5957080000000  0.5041740000000  0.4755490000000 1.0
C      1  0.4887280000000  0.5952230000000  0.4949550000000 1.0
C      1  0.4960030000000  0.4805330000000  0.5981720000000 1.0
C      1  0.6023700000000  0.5098420000000  0.5084120000000 1.0
C      1  0.4008660000000  0.4988660000000  0.4754020000000 1.0
C      1  0.4034750000000  0.4962970000000  0.5095650000000 1.0
C      1  0.4831290000000  0.4020090000000  0.5054030000000 1.0
C      1  0.5162220000000  0.4087310000000  0.4994360000000 1.0
C      1  0.5226490000000  0.5948700000000  0.5014900000000 1.0
C      1  0.4946460000000  0.5145580000000  0.4018190000000 1.0
C      1  0.5052900000000  0.5131620000000  0.6034480000000 1.0
C      1  0.4986050000000  0.4797970000000  0.4013930000000 1.0
C      1  0.4177540000000  0.4695350000000  0.4796740000000 1.0
C      1  0.4857260000000  0.4088830000000  0.4720970000000 1.0
C      1  0.4681970000000  0.4821770000000  0.4164210000000 1.0
C      1  0.4106590000000  0.5294540000000  0.5118420000000 1.0
C      1  0.5853470000000  0.5349670000000  0.4826040000000 1.0
C      1  0.5938140000000  0.4780400000000  0.5052420000000 1.0
C      1  0.4918100000000  0.6003250000000  0.5271210000000 1.0
C      1  0.5194860000000  0.5832240000000  0.4696780000000 1.0
C      1  0.5171330000000  0.4183050000000  0.5322240000000 1.0
C      1  0.4735880000000  0.5133580000000  0.5913970000000 1.0
C      1  0.5265070000000  0.5137830000000  0.4137060000000 1.0
C      1  0.5286050000000  0.4809170000000  0.5910000000000 1.0
C      1  0.5544410000000  0.5036720000000  0.5353480000000 1.0
C      1  0.5431010000000  0.5632780000000  0.5148540000000 1.0
C      1  0.5061920000000  0.5384460000000  0.5592930000000 1.0
C      1  0.5668610000000  0.4887340000000  0.4432140000000 1.0
C      1  0.4444260000000  0.4931150000000  0.5404440000000 1.0
C      1  0.4469490000000  0.5085740000000  0.4576040000000 1.0
C      1  0.5402450000000  0.4462330000000  0.4893680000000 1.0
C      1  0.4583770000000  0.4466390000000  0.5087780000000 1.0
C      1  0.4562990000000  0.5673440000000  0.4892440000000 1.0
C      1  0.5106300000000  0.4568530000000  0.4492860000000 1.0
C      1  0.4871320000000  0.4510480000000  0.5678430000000 1.0
C      1  0.4898760000000  0.5411060000000  0.4493100000000 1.0
C      1  0.4750060000000  0.5241510000000  0.5125320000000 1.0
C      1  0.4955940000000  0.4808100000000  0.5264120000000 1.0
C      1  0.5252890000000  0.4919200000000  0.4765870000000 1.0
C      1  0.4787010000000  0.4734160000000  0.5021290000000 1.0
C      1  0.5453690000000  0.4766510000000  0.4990110000000 1.0
C      1  0.5211180000000  0.5210070000000  0.4836020000000 1.0
C      1  0.4878520000000  0.5276050000000  0.4809810000000 1.0
C      1  0.4950950000000  0.5404760000000  0.5304890000000 1.0
C      1  0.4990000000000  0.4759560000000  0.4749500000000 1.0
C      1  0.5266380000000  0.4885290000000  0.5247880000000 1.0
C      1  0.4772000000000  0.4998580000000  0.4644330000000 1.0
C      1  0.4746460000000  0.5038850000000  0.5400180000000 1.0
C      1  0.5092860000000  0.5668660000000  0.5154180000000 1.0
C      1  0.5094460000000  0.5087130000000  0.5699890000000 1.0
C      1  0.5684170000000  0.5112710000000  0.5095770000000 1.0
C      1  0.5084820000000  0.4387050000000  0.4853620000000 1.0
C      1  0.4878380000000  0.4351450000000  0.5114300000000 1.0
C      1  0.4899740000000  0.5619850000000  0.4878490000000 1.0
C      1  0.5085170000000  0.4844480000000  0.4335890000000 1.0
C      1  0.4854040000000  0.4849660000000  0.5661610000000 1.0
C      1  0.4886840000000  0.5110620000000  0.4351160000000 1.0
C      1  0.5665930000000  0.4875250000000  0.4767140000000 1.0
C      1  0.4363100000000  0.4874540000000  0.5099900000000 1.0
C      1  0.4317360000000  0.5097020000000  0.4846830000000 1.0
C      1  0.5697200000000  0.4693670000000  0.5216090000000 1.0
C      1  0.5202100000000  0.5506470000000  0.4771950000000 1.0
C      1  0.4669030000000  0.5264150000000  0.5643040000000 1.0
C      1  0.5522270000000  0.5291460000000  0.4876500000000 1.0
C      1  0.4442100000000  0.5318360000000  0.5066290000000 1.0
C      1  0.4512360000000  0.4750010000000  0.4820810000000 1.0
C      1  0.5093130000000  0.4514080000000  0.5320970000000 1.0
C      1  0.4790570000000  0.4486180000000  0.4714960000000 1.0
C      1  0.4830920000000  0.5705230000000  0.5409720000000 1.0
C      1  0.4711540000000  0.4712110000000  0.4471200000000 1.0
C      1  0.5282520000000  0.4834970000000  0.5570850000000 1.0
C      1  0.5324600000000  0.5051140000000  0.4460700000000 1.0
C      1  0.4130660000000  0.4628180000000  0.5130360000000 1.0
C      1  0.5186250000000  0.4136410000000  0.4647380000000 1.0
C      1  0.4620770000000  0.5155620000000  0.4143850000000 1.0
C      1  0.4082380000000  0.5332300000000  0.4775610000000 1.0
C      1  0.5864940000000  0.5391720000000  0.5167030000000 1.0
C      1  0.5946730000000  0.4692760000000  0.4726200000000 1.0
C      1  0.5228410000000  0.5899520000000  0.5363990000000 1.0
C      1  0.4862520000000  0.5842190000000  0.4623840000000 1.0
C      1  0.4832670000000  0.4145270000000  0.5380960000000 1.0
C      1  0.4620140000000  0.4817690000000  0.5906700000000 1.0
C      1  0.5324730000000  0.4801310000000  0.4098260000000 1.0
C      1  0.5369750000000  0.5141950000000  0.5892030000000 1.0
C      1  0.4911700000000  0.5554820000000  0.5769270000000 1.0
C      1  0.5678520000000  0.4802900000000  0.5524810000000 1.0
C      1  0.5594330000000  0.5740640000000  0.4962770000000 1.0
C      1  0.4930190000000  0.4342040000000  0.4375510000000 1.0
C      1  0.5090160000000  0.4365090000000  0.5737620000000 1.0
C      1  0.5072660000000  0.5605080000000  0.4381130000000 1.0
C      1  0.5677730000000  0.5130100000000  0.4291220000000 1.0
C      1  0.4301950000000  0.5120590000000  0.5575530000000 1.0
C      1  0.4353340000000  0.4945920000000  0.4354640000000 1.0
C      1  0.5552570000000  0.4268400000000  0.5082140000000 1.0
C      1  0.4406330000000  0.4339200000000  0.4898950000000 1.0
C      1  0.4381670000000  0.5722120000000  0.5082660000000 1.0
C      1  0.4405590000000  0.4501550000000  0.4614560000000 1.0
C      1  0.4637460000000  0.4266710000000  0.4531810000000 1.0
C      1  0.4425590000000  0.4648630000000  0.4308470000000 1.0
C      1  0.4280120000000  0.5507530000000  0.5291290000000 1.0
C      1  0.5633610000000  0.5567390000000  0.4707950000000 1.0
C      1  0.5605140000000  0.4404040000000  0.5321280000000 1.0
C      1  0.4630720000000  0.5602000000000  0.5644720000000 1.0
C      1  0.5376290000000  0.5616250000000  0.4501350000000 1.0
C      1  0.5343550000000  0.4404460000000  0.5523240000000 1.0
C      1  0.4373440000000  0.5416020000000  0.5555450000000 1.0
C      1  0.5446040000000  0.5342840000000  0.4335100000000 1.0
C      1  0.5501100000000  0.4625540000000  0.5721220000000 1.0
C      1  0.4364880000000  0.5407930000000  0.4601470000000 1.0
C      1  0.4596820000000  0.4389810000000  0.5394470000000 1.0
C      1  0.5410450000000  0.4614780000000  0.4362180000000 1.0
C      1  0.4338490000000  0.4610860000000  0.5399510000000 1.0
C      1  0.5705090000000  0.4561870000000  0.4523480000000 1.0
C      1  0.5612160000000  0.5367460000000  0.5394130000000 1.0
C      1  0.4583140000000  0.5665050000000  0.4558230000000 1.0
C      1  0.5429580000000  0.5643980000000  0.5470610000000 1.0
C      1  0.5435210000000  0.4362180000000  0.4588440000000 1.0
C      1  0.5383660000000  0.5358590000000  0.5648220000000 1.0
C      1  0.4603090000000  0.5391780000000  0.4356920000000 1.0
C      1  0.4548880000000  0.4591300000000  0.5665890000000 1.0
END
