TITL C-2622968-4806-863 -0.00223290604888948 125000 -173.385501731858 0 0 31 (C2) n - 1
REM
REM in /nfs/bkarasulu/CARBON/AIRSS/Generating-Clusters/AIREBO/with-SteepDescent/Higher-Symm/SD-CG/HFTN-CG
REM
REM
REM
REM
REM
REM ./C.cell (b20cbc046b6831c77cfcea5457e17084)
REM
REM compiler GCC version 9.2.1 20190827 (Red Hat 9.2.1-1)
REM options -cpp -mtune=generic -march=x86-64 -g -O0 -fpre-include=/usr/include/finclude/math-vector-fortran.h
REM seed -1582599667 184427775 -766613549 -1542759083 495228670 818605094 1341404642 -1656756423 315667315 -1133871551 634401105 1463848476 103303767 1482062092 1369669894 -1952835669 19005829 -212978142 1901770082 -441484761 618133022 1075942171 1253045128 -697041213 -1502140954 -1545875302 354550328 628461819 -326075096 963046916 -212657336 -1816423603 995343449
REM
CELL 1.54180   50.00000   50.00000   50.00000   90.00000   90.00000   90.00000
LATT -1
SFAC C  
C      1  0.5473040000000  0.4781330000000  0.5249900000000 1.0
C      1  0.4966680000000  0.5546520000000  0.5224120000000 1.0
C      1  0.4614320000000  0.5057650000000  0.5236010000000 1.0
C      1  0.4912050000000  0.4609750000000  0.5231910000000 1.0
C      1  0.5490260000000  0.4776610000000  0.4769550000000 1.0
C      1  0.4965040000000  0.5528980000000  0.4743760000000 1.0
C      1  0.4599100000000  0.5070450000000  0.4761310000000 1.0
C      1  0.4906050000000  0.4628830000000  0.4757220000000 1.0
C      1  0.4980680000000  0.4816570000000  0.4530880000000 1.0
C      1  0.5320730000000  0.4838350000000  0.4555300000000 1.0
C      1  0.4956520000000  0.5328410000000  0.4544830000000 1.0
C      1  0.4764010000000  0.5079160000000  0.4530120000000 1.0
C      1  0.4980680000000  0.4759800000000  0.5463220000000 1.0
C      1  0.5283280000000  0.4847110000000  0.5448730000000 1.0
C      1  0.4961580000000  0.5366080000000  0.5438290000000 1.0
C      1  0.4816210000000  0.5057870000000  0.5462480000000 1.0
C      1  0.5665340000000  0.4581870000000  0.5161410000000 1.0
C      1  0.4851980000000  0.5791900000000  0.5118470000000 1.0
C      1  0.4340070000000  0.5032700000000  0.5152510000000 1.0
C      1  0.4784130000000  0.4369950000000  0.5127320000000 1.0
C      1  0.5676160000000  0.4579640000000  0.4875230000000 1.0
C      1  0.4850260000000  0.5781140000000  0.4832290000000 1.0
C      1  0.4328990000000  0.5039680000000  0.4865720000000 1.0
C      1  0.4781900000000  0.4382950000000  0.4840530000000 1.0
C      1  0.4760620000000  0.5086240000000  0.4995700000000 1.0
C      1  0.4986300000000  0.4754240000000  0.4997640000000 1.0
C      1  0.5404740000000  0.4922870000000  0.5005180000000 1.0
C      1  0.5071370000000  0.5413290000000  0.4988500000000 1.0
C      1  0.5127730000000  0.5104570000000  0.5334480000000 1.0
C      1  0.5138630000000  0.5089010000000  0.4659090000000 1.0
C      1  0.5100500000000  0.5074570000000  0.4996770000000 1.0
END
