TITL C-2622957-9142-386 0.000411602591907002 125000 -434.880232258268 0 0 80 (C1) n - 1
REM
REM in /nfs/bkarasulu/CARBON/AIRSS/Generating-Clusters/AIREBO/with-SteepDescent/Higher-Symm/SD-CG/HFTN-CG
REM
REM
REM
REM
REM
REM ./C.cell (b20cbc046b6831c77cfcea5457e17084)
REM
REM compiler GCC version 9.2.1 20190827 (Red Hat 9.2.1-1)
REM options -cpp -mtune=generic -march=x86-64 -g -O0 -fpre-include=/usr/include/finclude/math-vector-fortran.h
REM seed 1819999962 -2130814618 1762508669 192134708 -712272707 191721929 -1551492045 2024658686 1807067879 -1583994554 617425112 -1609159518 -47629618 470353569 -626736001 111599825 -863303075 1015275353 -566159350 -786444604 1035772048 -1948062473 1670603281 766057414 -611446936 746059265 -527037182 -991083967 -1818301774 1455579837 611360567 -291172530 1945188233
REM
CELL 1.54180   50.00000   50.00000   50.00000   90.00000   90.00000   90.00000
LATT -1
SFAC C  
C      1  0.4759480000000  0.4638820000000  0.5277410000000 1.0
C      1  0.5042810000000  0.4759930000000  0.5393300000000 1.0
C      1  0.5336460000000  0.4766460000000  0.5222340000000 1.0
C      1  0.5301100000000  0.4690510000000  0.4901950000000 1.0
C      1  0.5119470000000  0.4704610000000  0.4614020000000 1.0
C      1  0.4802140000000  0.4665770000000  0.4731030000000 1.0
C      1  0.4710550000000  0.4558100000000  0.4988240000000 1.0
C      1  0.5073310000000  0.4270140000000  0.5364200000000 1.0
C      1  0.5297330000000  0.4266370000000  0.5183430000000 1.0
C      1  0.5279550000000  0.4293910000000  0.4855590000000 1.0
C      1  0.5049760000000  0.4278370000000  0.4600710000000 1.0
C      1  0.4721760000000  0.4277290000000  0.4690330000000 1.0
C      1  0.4635560000000  0.4175780000000  0.5013020000000 1.0
C      1  0.4786460000000  0.4243290000000  0.5310530000000 1.0
C      1  0.5526960000000  0.4492950000000  0.4770570000000 1.0
C      1  0.5082920000000  0.4488980000000  0.4353680000000 1.0
C      1  0.4597870000000  0.4513510000000  0.4514570000000 1.0
C      1  0.4428600000000  0.4443610000000  0.4975670000000 1.0
C      1  0.4608000000000  0.4457000000000  0.5493520000000 1.0
C      1  0.5124220000000  0.4475200000000  0.5559030000000 1.0
C      1  0.5500640000000  0.4469290000000  0.5240760000000 1.0
C      1  0.4583870000000  0.5576580000000  0.4564700000000 1.0
C      1  0.4330700000000  0.5528470000000  0.5067270000000 1.0
C      1  0.4655930000000  0.5567870000000  0.5558210000000 1.0
C      1  0.5238550000000  0.5638980000000  0.5666200000000 1.0
C      1  0.5660570000000  0.5521350000000  0.5242120000000 1.0
C      1  0.5527790000000  0.5551100000000  0.4630020000000 1.0
C      1  0.5067550000000  0.5599160000000  0.4392120000000 1.0
C      1  0.5434110000000  0.5375080000000  0.5081180000000 1.0
C      1  0.5342130000000  0.5323070000000  0.4800900000000 1.0
C      1  0.5063050000000  0.5352780000000  0.4626560000000 1.0
C      1  0.4778210000000  0.5305990000000  0.4781480000000 1.0
C      1  0.4719890000000  0.5439540000000  0.5050370000000 1.0
C      1  0.4815260000000  0.5290360000000  0.5321310000000 1.0
C      1  0.5099220000000  0.5407370000000  0.5378470000000 1.0
C      1  0.5260070000000  0.5024900000000  0.5689200000000 1.0
C      1  0.5761320000000  0.5012240000000  0.5311870000000 1.0
C      1  0.5588690000000  0.4940100000000  0.4544890000000 1.0
C      1  0.5116730000000  0.5004340000000  0.4230280000000 1.0
C      1  0.4468790000000  0.4992680000000  0.4488320000000 1.0
C      1  0.4163090000000  0.4962180000000  0.5068820000000 1.0
C      1  0.4657630000000  0.4984180000000  0.5667790000000 1.0
C      1  0.4919630000000  0.4776900000000  0.4275310000000 1.0
C      1  0.4276100000000  0.4881990000000  0.4726600000000 1.0
C      1  0.4337420000000  0.4857710000000  0.5326610000000 1.0
C      1  0.4940420000000  0.4909100000000  0.5683680000000 1.0
C      1  0.5481900000000  0.4925780000000  0.5485240000000 1.0
C      1  0.5782800000000  0.4840060000000  0.5019440000000 1.0
C      1  0.5351390000000  0.4811360000000  0.4384740000000 1.0
C      1  0.5718710000000  0.4671800000000  0.5287330000000 1.0
C      1  0.5669420000000  0.4770880000000  0.4768820000000 1.0
C      1  0.5384950000000  0.4523940000000  0.4206200000000 1.0
C      1  0.4647530000000  0.4782610000000  0.4381370000000 1.0
C      1  0.4238090000000  0.4649540000000  0.4957210000000 1.0
C      1  0.4498200000000  0.4766520000000  0.5551870000000 1.0
C      1  0.5183710000000  0.4698400000000  0.5762260000000 1.0
C      1  0.4884380000000  0.5011200000000  0.5225390000000 1.0
C      1  0.5386030000000  0.5102670000000  0.5210160000000 1.0
C      1  0.5274730000000  0.4992390000000  0.4842810000000 1.0
C      1  0.5054220000000  0.5033720000000  0.4623030000000 1.0
C      1  0.4774920000000  0.4972570000000  0.4742890000000 1.0
C      1  0.4508550000000  0.5029020000000  0.4884220000000 1.0
C      1  0.4595190000000  0.4904890000000  0.5143920000000 1.0
C      1  0.5094870000000  0.5270500000000  0.4298160000000 1.0
C      1  0.4552900000000  0.5262540000000  0.4532070000000 1.0
C      1  0.4264740000000  0.5287110000000  0.5055170000000 1.0
C      1  0.4633880000000  0.5256000000000  0.5579090000000 1.0
C      1  0.5239790000000  0.5327880000000  0.5663570000000 1.0
C      1  0.5829080000000  0.5323510000000  0.5346860000000 1.0
C      1  0.5566380000000  0.5213310000000  0.4580510000000 1.0
C      1  0.4785880000000  0.5699100000000  0.5346920000000 1.0
C      1  0.5122780000000  0.5744250000000  0.5362510000000 1.0
C      1  0.5369010000000  0.5688940000000  0.5150880000000 1.0
C      1  0.5300690000000  0.5719750000000  0.4818670000000 1.0
C      1  0.5037350000000  0.5745800000000  0.4682980000000 1.0
C      1  0.4755540000000  0.5713670000000  0.4762080000000 1.0
C      1  0.4600730000000  0.5735430000000  0.5064040000000 1.0
C      1  0.5103850000000  0.5150920000000  0.5071700000000 1.0
C      1  0.5046490000000  0.5459450000000  0.5046250000000 1.0
C      1  0.4957460000000  0.4251300000000  0.4933690000000 1.0
END
