TITL C-2622955-8511-677 -0.00081538993518009 125000 -699.274227344148 0 0 129 (C1) n - 1
REM
REM in /nfs/bkarasulu/CARBON/AIRSS/Generating-Clusters/AIREBO/with-SteepDescent/Higher-Symm/SD-CG/HFTN-CG
REM
REM
REM
REM
REM
REM ./C.cell (b20cbc046b6831c77cfcea5457e17084)
REM
REM compiler GCC version 9.2.1 20190827 (Red Hat 9.2.1-1)
REM options -cpp -mtune=generic -march=x86-64 -g -O0 -fpre-include=/usr/include/finclude/math-vector-fortran.h
REM seed -1368479103 1530901667 -1001307560 874540898 -219029462 427218573 -546460243 -365262315 1247688915 1083373111 587420877 2041351006 -382623596 1802572748 -611225826 1060902440 -598671313 703170972 -1256071730 -1538341779 1296053269 334202479 -929399810 -354456025 -116906262 1624098629 -854286947 -419493142 -819579726 1952961615 2086684633 1133524964 -1284803752
REM
CELL 1.54180   50.00000   50.00000   50.00000   90.00000   90.00000   90.00000
LATT -1
SFAC C  
C      1  0.4680430000000  0.5410160000000  0.5757550000000 1.0
C      1  0.5428410000000  0.5327670000000  0.5770750000000 1.0
C      1  0.5343330000000  0.4587170000000  0.5789160000000 1.0
C      1  0.4595860000000  0.4662890000000  0.5763590000000 1.0
C      1  0.4649920000000  0.4584720000000  0.4207980000000 1.0
C      1  0.5378910000000  0.4673220000000  0.4215520000000 1.0
C      1  0.5347890000000  0.5422890000000  0.4197470000000 1.0
C      1  0.4608560000000  0.5322060000000  0.4217380000000 1.0
C      1  0.5446510000000  0.5713870000000  0.5392560000000 1.0
C      1  0.5733710000000  0.4576170000000  0.5409820000000 1.0
C      1  0.4584020000000  0.4268530000000  0.5383340000000 1.0
C      1  0.4207130000000  0.5432320000000  0.5367450000000 1.0
C      1  0.5424890000000  0.4253550000000  0.4613390000000 1.0
C      1  0.5757290000000  0.5421540000000  0.4591020000000 1.0
C      1  0.4572500000000  0.5740980000000  0.4617260000000 1.0
C      1  0.4246640000000  0.4582180000000  0.4600900000000 1.0
C      1  0.4894560000000  0.5178500000000  0.4332380000000 1.0
C      1  0.5225970000000  0.5145150000000  0.4290950000000 1.0
C      1  0.5104010000000  0.4835420000000  0.4329350000000 1.0
C      1  0.4768050000000  0.4870570000000  0.4290410000000 1.0
C      1  0.4912240000000  0.4775200000000  0.5708210000000 1.0
C      1  0.5230020000000  0.4896060000000  0.5703350000000 1.0
C      1  0.5111550000000  0.5215180000000  0.5714200000000 1.0
C      1  0.4794830000000  0.5091450000000  0.5716450000000 1.0
C      1  0.5116870000000  0.4225810000000  0.4757030000000 1.0
C      1  0.4223350000000  0.4896600000000  0.4728560000000 1.0
C      1  0.4888520000000  0.5768900000000  0.4740460000000 1.0
C      1  0.5782590000000  0.5106490000000  0.4719350000000 1.0
C      1  0.5128060000000  0.5765240000000  0.5284110000000 1.0
C      1  0.4203750000000  0.5111200000000  0.5241700000000 1.0
C      1  0.4899140000000  0.4221190000000  0.5261850000000 1.0
C      1  0.5780540000000  0.4884180000000  0.5269910000000 1.0
C      1  0.4663810000000  0.4541010000000  0.5106000000000 1.0
C      1  0.4497060000000  0.5347980000000  0.5108450000000 1.0
C      1  0.5348540000000  0.5455100000000  0.5107320000000 1.0
C      1  0.5506130000000  0.4653630000000  0.5094570000000 1.0
C      1  0.4656110000000  0.5460040000000  0.4887500000000 1.0
C      1  0.4495200000000  0.4660340000000  0.4900490000000 1.0
C      1  0.5341770000000  0.4530320000000  0.4885860000000 1.0
C      1  0.5513770000000  0.5343620000000  0.4894800000000 1.0
C      1  0.4803620000000  0.4782660000000  0.4819710000000 1.0
C      1  0.4813240000000  0.5178120000000  0.4776050000000 1.0
C      1  0.5205940000000  0.5213700000000  0.4822680000000 1.0
C      1  0.5198130000000  0.4819390000000  0.4774780000000 1.0
C      1  0.4804600000000  0.5212340000000  0.5163020000000 1.0
C      1  0.4804480000000  0.4832870000000  0.5212500000000 1.0
C      1  0.5195210000000  0.4775150000000  0.5166050000000 1.0
C      1  0.5197540000000  0.5168130000000  0.5213800000000 1.0
C      1  0.5069140000000  0.4572100000000  0.5485050000000 1.0
C      1  0.4543790000000  0.5013230000000  0.5500850000000 1.0
C      1  0.4997630000000  0.5472700000000  0.5522900000000 1.0
C      1  0.5454160000000  0.5041450000000  0.5493040000000 1.0
C      1  0.5046010000000  0.5416600000000  0.4522280000000 1.0
C      1  0.4559980000000  0.5031470000000  0.4505940000000 1.0
C      1  0.4949930000000  0.4587710000000  0.4504220000000 1.0
C      1  0.5437450000000  0.4976990000000  0.4497370000000 1.0
C      1  0.5359460000000  0.5793650000000  0.4728870000000 1.0
C      1  0.5809040000000  0.4656210000000  0.4707760000000 1.0
C      1  0.4636810000000  0.4200680000000  0.4732520000000 1.0
C      1  0.4185190000000  0.5366960000000  0.4709910000000 1.0
C      1  0.5372300000000  0.4196870000000  0.5281600000000 1.0
C      1  0.5830830000000  0.5341820000000  0.5274880000000 1.0
C      1  0.4610970000000  0.5816340000000  0.5258910000000 1.0
C      1  0.4170050000000  0.4629880000000  0.5266140000000 1.0
C      1  0.5622210000000  0.4653490000000  0.4355360000000 1.0
C      1  0.4646150000000  0.4364020000000  0.4369800000000 1.0
C      1  0.4369460000000  0.5349080000000  0.4356850000000 1.0
C      1  0.5358400000000  0.5642820000000  0.4360280000000 1.0
C      1  0.5666640000000  0.5347120000000  0.5638190000000 1.0
C      1  0.4638360000000  0.5635910000000  0.5611350000000 1.0
C      1  0.4365490000000  0.4649070000000  0.5612120000000 1.0
C      1  0.5360210000000  0.4352030000000  0.5647720000000 1.0
C      1  0.5263240000000  0.4550500000000  0.4577120000000 1.0
C      1  0.4556180000000  0.4722760000000  0.4594340000000 1.0
C      1  0.4727450000000  0.5441620000000  0.4579020000000 1.0
C      1  0.5447180000000  0.5282040000000  0.4593010000000 1.0
C      1  0.5278080000000  0.5419220000000  0.5413200000000 1.0
C      1  0.4504900000000  0.5303140000000  0.5415700000000 1.0
C      1  0.4754430000000  0.4561490000000  0.5411140000000 1.0
C      1  0.5433960000000  0.4736390000000  0.5399590000000 1.0
C      1  0.4201880000000  0.5335230000000  0.4988030000000 1.0
C      1  0.5317910000000  0.5756480000000  0.5002180000000 1.0
C      1  0.5792960000000  0.4698670000000  0.4985000000000 1.0
C      1  0.4676840000000  0.4237530000000  0.5006670000000 1.0
C      1  0.4203250000000  0.4683290000000  0.4993210000000 1.0
C      1  0.5339150000000  0.4228440000000  0.5006070000000 1.0
C      1  0.5804150000000  0.5301230000000  0.4997390000000 1.0
C      1  0.4660720000000  0.5766870000000  0.4989940000000 1.0
C      1  0.4415390000000  0.4339690000000  0.4568890000000 1.0
C      1  0.4331790000000  0.5583540000000  0.4551710000000 1.0
C      1  0.5584320000000  0.5661420000000  0.4563940000000 1.0
C      1  0.5657750000000  0.4429210000000  0.4562280000000 1.0
C      1  0.4386010000000  0.5680350000000  0.5420990000000 1.0
C      1  0.4332710000000  0.4412890000000  0.5420970000000 1.0
C      1  0.5597190000000  0.4322770000000  0.5454790000000 1.0
C      1  0.5697780000000  0.5573720000000  0.5435640000000 1.0
C      1  0.4353980000000  0.4964780000000  0.4251870000000 1.0
C      1  0.4970760000000  0.5626490000000  0.4268570000000 1.0
C      1  0.5634450000000  0.5033620000000  0.4234940000000 1.0
C      1  0.5031710000000  0.4360870000000  0.4268670000000 1.0
C      1  0.4308460000000  0.5017880000000  0.5746280000000 1.0
C      1  0.4971720000000  0.4363900000000  0.5735570000000 1.0
C      1  0.5650240000000  0.4964090000000  0.5748090000000 1.0
C      1  0.5000540000000  0.5724050000000  0.5751840000000 1.0
C      1  0.5234940000000  0.4440330000000  0.4110420000000 1.0
C      1  0.4437100000000  0.4764710000000  0.4092480000000 1.0
C      1  0.4774790000000  0.5541190000000  0.4106660000000 1.0
C      1  0.5551980000000  0.5236120000000  0.4077900000000 1.0
C      1  0.5161720000000  0.5504350000000  0.5885950000000 1.0
C      1  0.4520920000000  0.5154510000000  0.5908020000000 1.0
C      1  0.4768550000000  0.4448590000000  0.5887670000000 1.0
C      1  0.5550340000000  0.4773520000000  0.5909120000000 1.0
C      1  0.4897400000000  0.4191720000000  0.4521050000000 1.0
C      1  0.4169330000000  0.5111140000000  0.4494790000000 1.0
C      1  0.5104260000000  0.5811990000000  0.4510040000000 1.0
C      1  0.5827650000000  0.4897290000000  0.4473950000000 1.0
C      1  0.4864790000000  0.5842600000000  0.5463510000000 1.0
C      1  0.4166440000000  0.4888010000000  0.5473950000000 1.0
C      1  0.5111310000000  0.4174710000000  0.5498450000000 1.0
C      1  0.5849950000000  0.5093450000000  0.5505220000000 1.0
C      1  0.5053030000000  0.4483600000000  0.5156790000000 1.0
C      1  0.4497490000000  0.4956510000000  0.5168000000000 1.0
C      1  0.4960350000000  0.5488170000000  0.5180530000000 1.0
C      1  0.5503130000000  0.5044790000000  0.5156520000000 1.0
C      1  0.5047650000000  0.5504150000000  0.4851380000000 1.0
C      1  0.4504250000000  0.5051980000000  0.4840950000000 1.0
C      1  0.4950610000000  0.4497790000000  0.4832380000000 1.0
C      1  0.5506570000000  0.4951600000000  0.4829480000000 1.0
C      1  0.5004740000000  0.4996980000000  0.4991510000000 1.0
END
