TITL C-2622962-9663-25 -0.00840538124182209 125000 -940.492491725375 0 0 193 (C1) n - 1
REM
REM in /nfs/bkarasulu/CARBON/AIRSS/Generating-Clusters/AIREBO/with-SteepDescent/Higher-Symm/SD-CG/HFTN-CG
REM
REM
REM
REM
REM
REM ./C.cell (b20cbc046b6831c77cfcea5457e17084)
REM
REM compiler GCC version 9.2.1 20190827 (Red Hat 9.2.1-1)
REM options -cpp -mtune=generic -march=x86-64 -g -O0 -fpre-include=/usr/include/finclude/math-vector-fortran.h
REM seed -1533022033 1321321273 -1455351284 -1146166961 -1569223731 1888581463 316761530 -1355134927 666562395 518176424 -193479958 -1680372537 -699256005 296608881 313654738 -1276842074 -13991598 -83371959 93268754 -1556018252 45665582 -1073317738 -1926063038 -191086132 1697068440 283105182 -1661240385 243213452 -1238899060 -297973177 1901430102 -1988718971 -1499752972
REM
CELL 1.54180   50.00000   50.00000   50.00000   90.00000   90.00000   90.00000
LATT -1
SFAC C  
C      1  0.4775760000000  0.3915220000000  0.4607760000000 1.0
C      1  0.3903260000000  0.4532740000000  0.4733640000000 1.0
C      1  0.4516290000000  0.4823600000000  0.3924540000000 1.0
C      1  0.4788390000000  0.6148810000000  0.5425530000000 1.0
C      1  0.5215690000000  0.3905270000000  0.5422280000000 1.0
C      1  0.5187030000000  0.6096090000000  0.4611980000000 1.0
C      1  0.3886800000000  0.5441520000000  0.5156280000000 1.0
C      1  0.6093250000000  0.4530010000000  0.5219840000000 1.0
C      1  0.6017140000000  0.5484690000000  0.4793360000000 1.0
C      1  0.4483310000000  0.5143990000000  0.6045240000000 1.0
C      1  0.5417920000000  0.4871740000000  0.6083630000000 1.0
C      1  0.5624170000000  0.5190370000000  0.4001300000000 1.0
C      1  0.4718640000000  0.4550980000000  0.3889710000000 1.0
C      1  0.3948490000000  0.4825340000000  0.4542110000000 1.0
C      1  0.4565880000000  0.3936700000000  0.4886650000000 1.0
C      1  0.4674030000000  0.5435620000000  0.6046920000000 1.0
C      1  0.5096610000000  0.5546450000000  0.3963770000000 1.0
C      1  0.5197980000000  0.4616040000000  0.6028280000000 1.0
C      1  0.3955670000000  0.5217640000000  0.5418860000000 1.0
C      1  0.6006110000000  0.5197530000000  0.4607320000000 1.0
C      1  0.6024340000000  0.4784780000000  0.5446090000000 1.0
C      1  0.4552790000000  0.6077800000000  0.5176770000000 1.0
C      1  0.5396580000000  0.6082190000000  0.4896120000000 1.0
C      1  0.5431290000000  0.3967920000000  0.5151240000000 1.0
C      1  0.4382280000000  0.4614460000000  0.5816360000000 1.0
C      1  0.4633000000000  0.5891020000000  0.4391930000000 1.0
C      1  0.5869690000000  0.4383990000000  0.4590780000000 1.0
C      1  0.4409010000000  0.5355420000000  0.4192530000000 1.0
C      1  0.5731540000000  0.4705000000000  0.4089420000000 1.0
C      1  0.5745280000000  0.5297520000000  0.5901170000000 1.0
C      1  0.4654620000000  0.4171820000000  0.5575800000000 1.0
C      1  0.5342030000000  0.5892820000000  0.5608280000000 1.0
C      1  0.5321500000000  0.4097510000000  0.4444640000000 1.0
C      1  0.5847170000000  0.5624740000000  0.5426910000000 1.0
C      1  0.4149760000000  0.4364070000000  0.5354760000000 1.0
C      1  0.4149610000000  0.5635520000000  0.4634100000000 1.0
C      1  0.4395010000000  0.5875920000000  0.4639560000000 1.0
C      1  0.4646000000000  0.4396180000000  0.5836650000000 1.0
C      1  0.5935150000000  0.4619240000000  0.4348570000000 1.0
C      1  0.4359620000000  0.4111870000000  0.5417470000000 1.0
C      1  0.5621410000000  0.4148200000000  0.4597860000000 1.0
C      1  0.5638080000000  0.5893870000000  0.5440490000000 1.0
C      1  0.4640840000000  0.5606070000000  0.4203370000000 1.0
C      1  0.5302310000000  0.5649040000000  0.5844500000000 1.0
C      1  0.5186360000000  0.4267120000000  0.4176330000000 1.0
C      1  0.5920780000000  0.5367950000000  0.5640370000000 1.0
C      1  0.4139740000000  0.5387230000000  0.4401830000000 1.0
C      1  0.4117120000000  0.4594530000000  0.5604280000000 1.0
C      1  0.5643570000000  0.5448060000000  0.5268360000000 1.0
C      1  0.5529560000000  0.5185630000000  0.5692970000000 1.0
C      1  0.5236380000000  0.5625960000000  0.5454580000000 1.0
C      1  0.5660090000000  0.4542530000000  0.4757830000000 1.0
C      1  0.4351290000000  0.5447390000000  0.4814970000000 1.0
C      1  0.4341480000000  0.4539590000000  0.5186350000000 1.0
C      1  0.5542160000000  0.4665660000000  0.4319170000000 1.0
C      1  0.4610170000000  0.5194280000000  0.4414350000000 1.0
C      1  0.4489990000000  0.4831940000000  0.5581460000000 1.0
C      1  0.5232810000000  0.4383620000000  0.4590810000000 1.0
C      1  0.4783140000000  0.5662800000000  0.4570520000000 1.0
C      1  0.4783230000000  0.4447190000000  0.5464980000000 1.0
C      1  0.5656220000000  0.5159100000000  0.5425880000000 1.0
C      1  0.5375440000000  0.5585040000000  0.5177560000000 1.0
C      1  0.5302330000000  0.5386370000000  0.5664020000000 1.0
C      1  0.5641810000000  0.4793950000000  0.4571340000000 1.0
C      1  0.4315420000000  0.4819510000000  0.5307990000000 1.0
C      1  0.4337050000000  0.5206400000000  0.4612360000000 1.0
C      1  0.5405570000000  0.4410470000000  0.4826300000000 1.0
C      1  0.4621640000000  0.4400820000000  0.5195370000000 1.0
C      1  0.4591480000000  0.5668390000000  0.4823790000000 1.0
C      1  0.5365560000000  0.4471260000000  0.4317580000000 1.0
C      1  0.4747970000000  0.4667430000000  0.5669540000000 1.0
C      1  0.4835580000000  0.5404510000000  0.4390180000000 1.0
C      1  0.4337340000000  0.5395070000000  0.5225290000000 1.0
C      1  0.5498430000000  0.5264130000000  0.4289820000000 1.0
C      1  0.5194090000000  0.4363020000000  0.5393390000000 1.0
C      1  0.4287410000000  0.4616300000000  0.4799260000000 1.0
C      1  0.5643410000000  0.5351150000000  0.4816070000000 1.0
C      1  0.5706610000000  0.4599790000000  0.5149770000000 1.0
C      1  0.5361970000000  0.4823380000000  0.5603880000000 1.0
C      1  0.4737980000000  0.5196640000000  0.5658770000000 1.0
C      1  0.4526100000000  0.4737570000000  0.4312330000000 1.0
C      1  0.5238590000000  0.5679250000000  0.4628340000000 1.0
C      1  0.4744960000000  0.4313390000000  0.4597860000000 1.0
C      1  0.4801000000000  0.5686330000000  0.5423120000000 1.0
C      1  0.4463360000000  0.5241870000000  0.5501500000000 1.0
C      1  0.5473770000000  0.4371420000000  0.5217640000000 1.0
C      1  0.5209970000000  0.5329790000000  0.4270990000000 1.0
C      1  0.4363710000000  0.4799400000000  0.4550260000000 1.0
C      1  0.5629620000000  0.4740080000000  0.5435060000000 1.0
C      1  0.5608970000000  0.5191970000000  0.4565700000000 1.0
C      1  0.5504420000000  0.5617170000000  0.4800330000000 1.0
C      1  0.4567640000000  0.5619670000000  0.5218520000000 1.0
C      1  0.4517840000000  0.4379340000000  0.4808720000000 1.0
C      1  0.5227880000000  0.4542990000000  0.5638980000000 1.0
C      1  0.4833880000000  0.4653060000000  0.4253250000000 1.0
C      1  0.4886600000000  0.5464860000000  0.5655320000000 1.0
C      1  0.5260860000000  0.5402220000000  0.6061340000000 1.0
C      1  0.5419870000000  0.6073340000000  0.5249620000000 1.0
C      1  0.6051000000000  0.5123470000000  0.5518840000000 1.0
C      1  0.4993550000000  0.4378660000000  0.4009930000000 1.0
C      1  0.4793710000000  0.5385980000000  0.3993270000000 1.0
C      1  0.4848420000000  0.4586100000000  0.6046210000000 1.0
C      1  0.5429910000000  0.3950440000000  0.4799380000000 1.0
C      1  0.4565800000000  0.6110100000000  0.4825830000000 1.0
C      1  0.4581160000000  0.3924380000000  0.5239070000000 1.0
C      1  0.6050330000000  0.4894350000000  0.4450650000000 1.0
C      1  0.3912970000000  0.5177900000000  0.4556520000000 1.0
C      1  0.3949140000000  0.4885220000000  0.5547940000000 1.0
C      1  0.5139190000000  0.6119250000000  0.5455340000000 1.0
C      1  0.5493660000000  0.5206010000000  0.6089620000000 1.0
C      1  0.5999860000000  0.5558920000000  0.5130020000000 1.0
C      1  0.5127440000000  0.3896920000000  0.4621790000000 1.0
C      1  0.4864550000000  0.3936660000000  0.5445980000000 1.0
C      1  0.4837480000000  0.6055830000000  0.4609370000000 1.0
C      1  0.5512320000000  0.4920380000000  0.3964170000000 1.0
C      1  0.4584940000000  0.4814980000000  0.6002140000000 1.0
C      1  0.4535930000000  0.5172060000000  0.3924430000000 1.0
C      1  0.6025990000000  0.4459560000000  0.4884190000000 1.0
C      1  0.3977200000000  0.4428960000000  0.5067940000000 1.0
C      1  0.3956710000000  0.5417380000000  0.4812060000000 1.0
C      1  0.4962620000000  0.5910630000000  0.5256890000000 1.0
C      1  0.5897420000000  0.5262680000000  0.5021400000000 1.0
C      1  0.5259760000000  0.5026860000000  0.5826260000000 1.0
C      1  0.4956750000000  0.4138880000000  0.4788970000000 1.0
C      1  0.5037800000000  0.5864800000000  0.4806890000000 1.0
C      1  0.5045660000000  0.4124710000000  0.5232260000000 1.0
C      1  0.5969490000000  0.4769560000000  0.5012560000000 1.0
C      1  0.4112780000000  0.5219150000000  0.5040180000000 1.0
C      1  0.4023010000000  0.4749340000000  0.4966810000000 1.0
C      1  0.5211450000000  0.4930600000000  0.3938030000000 1.0
C      1  0.4641580000000  0.4994460000000  0.4177350000000 1.0
C      1  0.4798470000000  0.5072180000000  0.5939560000000 1.0
C      1  0.4989400000000  0.5313930000000  0.6083570000000 1.0
C      1  0.5898800000000  0.5018570000000  0.5233270000000 1.0
C      1  0.5235720000000  0.5847990000000  0.5082910000000 1.0
C      1  0.5005730000000  0.4714310000000  0.3970670000000 1.0
C      1  0.4994820000000  0.4819370000000  0.5846580000000 1.0
C      1  0.5084030000000  0.5209100000000  0.4004750000000 1.0
C      1  0.5905910000000  0.4902430000000  0.4742830000000 1.0
C      1  0.4036000000000  0.4947060000000  0.5229110000000 1.0
C      1  0.4108770000000  0.5013060000000  0.4771250000000 1.0
C      1  0.5237050000000  0.4173830000000  0.4962890000000 1.0
C      1  0.4764530000000  0.4146490000000  0.5064950000000 1.0
C      1  0.4770130000000  0.5899060000000  0.4993080000000 1.0
C      1  0.4954810000000  0.4757430000000  0.4498810000000 1.0
C      1  0.4802270000000  0.4521420000000  0.4933740000000 1.0
C      1  0.4516550000000  0.4974870000000  0.4784960000000 1.0
C      1  0.5089430000000  0.5256130000000  0.5478530000000 1.0
C      1  0.4968120000000  0.4864880000000  0.5268250000000 1.0
C      1  0.5073420000000  0.5254270000000  0.4518900000000 1.0
C      1  0.4793000000000  0.5468380000000  0.5012230000000 1.0
C      1  0.5258450000000  0.4569220000000  0.5056930000000 1.0
C      1  0.5264950000000  0.5412770000000  0.4929820000000 1.0
C      1  0.4514940000000  0.5039840000000  0.5244720000000 1.0
C      1  0.5478740000000  0.4961360000000  0.5231810000000 1.0
C      1  0.5420360000000  0.4969700000000  0.4684290000000 1.0
C      1  0.4981950000000  0.4513510000000  0.4652610000000 1.0
C      1  0.4786970000000  0.4999540000000  0.4631140000000 1.0
C      1  0.4541920000000  0.4733670000000  0.4991990000000 1.0
C      1  0.5001600000000  0.5474340000000  0.5260640000000 1.0
C      1  0.5004460000000  0.5471470000000  0.4745920000000 1.0
C      1  0.4984680000000  0.4566020000000  0.5217240000000 1.0
C      1  0.4754500000000  0.4980890000000  0.5426500000000 1.0
C      1  0.5152000000000  0.4982810000000  0.4601470000000 1.0
C      1  0.5202690000000  0.4995590000000  0.5383080000000 1.0
C      1  0.4540380000000  0.5241360000000  0.4996210000000 1.0
C      1  0.5501840000000  0.5224970000000  0.5064850000000 1.0
C      1  0.5501140000000  0.4779570000000  0.4945320000000 1.0
C      1  0.5817980000000  0.5434870000000  0.4451740000000 1.0
C      1  0.5376660000000  0.4370490000000  0.5874070000000 1.0
C      1  0.4356230000000  0.5849010000000  0.5335250000000 1.0
C      1  0.5830820000000  0.4607430000000  0.5662720000000 1.0
C      1  0.4186880000000  0.5380470000000  0.5594810000000 1.0
C      1  0.4154690000000  0.4607070000000  0.4380260000000 1.0
C      1  0.5354170000000  0.5623320000000  0.4177660000000 1.0
C      1  0.4627410000000  0.4381460000000  0.4170090000000 1.0
C      1  0.4627990000000  0.5641310000000  0.5780120000000 1.0
C      1  0.4404920000000  0.4110130000000  0.4640780000000 1.0
C      1  0.5563350000000  0.5907030000000  0.4656710000000 1.0
C      1  0.5620820000000  0.4128110000000  0.5385060000000 1.0
C      1  0.5832080000000  0.4398020000000  0.5393070000000 1.0
C      1  0.5346310000000  0.5885340000000  0.4394300000000 1.0
C      1  0.4387700000000  0.5412470000000  0.5854730000000 1.0
C      1  0.5844160000000  0.5718920000000  0.4619450000000 1.0
C      1  0.4110510000000  0.5611740000000  0.5356560000000 1.0
C      1  0.4170030000000  0.4357110000000  0.4612970000000 1.0
C      1  0.5360370000000  0.4156130000000  0.5605950000000 1.0
C      1  0.4618320000000  0.4110210000000  0.4374890000000 1.0
C      1  0.4592450000000  0.5907560000000  0.5575460000000 1.0
C      1  0.4350870000000  0.4567010000000  0.4100600000000 1.0
C      1  0.5548320000000  0.4668760000000  0.5842660000000 1.0
C      1  0.5672780000000  0.5497770000000  0.4147850000000 1.0
C      1  0.5004930000000  0.4987350000000  0.4996960000000 1.0
END
