TITL C-2622960-5345-346 0.000453990034115621 125000 -211.959679692664 0 0 37 (C1) n - 1
REM
REM in /nfs/bkarasulu/CARBON/AIRSS/Generating-Clusters/AIREBO/with-SteepDescent/Higher-Symm/SD-CG/HFTN-CG
REM
REM
REM
REM
REM
REM ./C.cell (b20cbc046b6831c77cfcea5457e17084)
REM
REM compiler GCC version 9.2.1 20190827 (Red Hat 9.2.1-1)
REM options -cpp -mtune=generic -march=x86-64 -g -O0 -fpre-include=/usr/include/finclude/math-vector-fortran.h
REM seed -2110718876 2144274301 974157969 946626771 -217362496 -321187675 174313858 687883816 -878989168 -1754882623 -1761632220 769814305 -1161023587 -1105438555 2109708293 1251439716 -989856154 -1330530638 715385415 -1546783047 -103901395 2102987371 885375003 -642094062 -2077376904 -130215786 -321045562 -903536974 -67596246 994635758 167310047 1413193470 1580735900
REM
CELL 1.54180   50.00000   50.00000   50.00000   90.00000   90.00000   90.00000
LATT -1
SFAC C  
C      1  0.5428270000000  0.4562170000000  0.4981490000000 1.0
C      1  0.5371880000000  0.4699560000000  0.5250470000000 1.0
C      1  0.5124890000000  0.4587160000000  0.5367520000000 1.0
C      1  0.4804960000000  0.4497550000000  0.5319000000000 1.0
C      1  0.4610120000000  0.4699230000000  0.5221130000000 1.0
C      1  0.4417830000000  0.4594780000000  0.4973890000000 1.0
C      1  0.4776690000000  0.4683830000000  0.4597890000000 1.0
C      1  0.5017590000000  0.4527610000000  0.4705490000000 1.0
C      1  0.5296330000000  0.4659060000000  0.4720720000000 1.0
C      1  0.4516440000000  0.4576690000000  0.4732080000000 1.0
C      1  0.4758190000000  0.4667370000000  0.4314990000000 1.0
C      1  0.4996820000000  0.4268080000000  0.4742460000000 1.0
C      1  0.5454620000000  0.4585780000000  0.4494840000000 1.0
C      1  0.5553170000000  0.4330570000000  0.4981450000000 1.0
C      1  0.5595600000000  0.4657180000000  0.5423450000000 1.0
C      1  0.4942740000000  0.4553660000000  0.5625310000000 1.0
C      1  0.4756340000000  0.4234040000000  0.5241540000000 1.0
C      1  0.4276890000000  0.4634500000000  0.5252020000000 1.0
C      1  0.4809650000000  0.5487250000000  0.4669340000000 1.0
C      1  0.5058820000000  0.5369930000000  0.4599420000000 1.0
C      1  0.5306530000000  0.5483050000000  0.4679250000000 1.0
C      1  0.5415720000000  0.5384650000000  0.4922810000000 1.0
C      1  0.5390840000000  0.5536480000000  0.5161830000000 1.0
C      1  0.5190400000000  0.5458510000000  0.5343500000000 1.0
C      1  0.4878370000000  0.5424790000000  0.5330450000000 1.0
C      1  0.4692290000000  0.5533920000000  0.5145000000000 1.0
C      1  0.4680960000000  0.5383060000000  0.4901660000000 1.0
C      1  0.5391880000000  0.5100080000000  0.4951990000000 1.0
C      1  0.5332230000000  0.4995580000000  0.5205930000000 1.0
C      1  0.5162200000000  0.5148790000000  0.5368060000000 1.0
C      1  0.4852860000000  0.5115810000000  0.5364410000000 1.0
C      1  0.4702180000000  0.4977500000000  0.5175490000000 1.0
C      1  0.4687550000000  0.5095170000000  0.4917390000000 1.0
C      1  0.4807760000000  0.4969970000000  0.4692830000000 1.0
C      1  0.5054160000000  0.5085820000000  0.4618010000000 1.0
C      1  0.5276060000000  0.4961860000000  0.4736350000000 1.0
C      1  0.4556250000000  0.5762270000000  0.5184920000000 1.0
END
