TITL C-2622955-8511-721 -7.28863420284523e-06 125000 -99.85668157591 0 0 18 (C2) n - 1
REM
REM in /nfs/bkarasulu/CARBON/AIRSS/Generating-Clusters/AIREBO/with-SteepDescent/Higher-Symm/SD-CG/HFTN-CG
REM
REM
REM
REM
REM
REM ./C.cell (b20cbc046b6831c77cfcea5457e17084)
REM
REM compiler GCC version 9.2.1 20190827 (Red Hat 9.2.1-1)
REM options -cpp -mtune=generic -march=x86-64 -g -O0 -fpre-include=/usr/include/finclude/math-vector-fortran.h
REM seed -1936156469 -1415984546 1405804210 -83213229 645895516 2104382823 -482556056 -435259739 269278493 1006339373 2066459008 -1383951909 2003967820 -438366021 239901906 -1851738301 -257612175 -1588222072 -1592108135 -576180921 381497550 889141829 -624762755 433879242 -611083385 621233391 -2021699474 926543867 -1552000809 1697699661 -389441945 921425200 -1510642536
REM
CELL 1.54180   50.00000   50.00000   50.00000   90.00000   90.00000   90.00000
LATT -1
SFAC C  
C      1  0.4734500000000  0.5011920000000  0.5359590000000 1.0
C      1  0.4734190000000  0.4988920000000  0.4640630000000 1.0
C      1  0.5198290000000  0.4860660000000  0.5295190000000 1.0
C      1  0.5198470000000  0.5138840000000  0.4704670000000 1.0
C      1  0.4912500000000  0.4495760000000  0.5103220000000 1.0
C      1  0.4913890000000  0.5504560000000  0.4896860000000 1.0
C      1  0.5173540000000  0.4584670000000  0.5148820000000 1.0
C      1  0.5174630000000  0.5414890000000  0.4851070000000 1.0
C      1  0.4640180000000  0.4913520000000  0.5110770000000 1.0
C      1  0.4640350000000  0.5087590000000  0.4889530000000 1.0
C      1  0.5425230000000  0.4886960000000  0.5083780000000 1.0
C      1  0.5425490000000  0.5111870000000  0.4915910000000 1.0
C      1  0.5457580000000  0.5417140000000  0.4988610000000 1.0
C      1  0.5456370000000  0.4581600000000  0.5011060000000 1.0
C      1  0.4678830000000  0.5365250000000  0.4930070000000 1.0
C      1  0.4677820000000  0.4635750000000  0.5070200000000 1.0
C      1  0.4995770000000  0.5020420000000  0.4558530000000 1.0
C      1  0.4996050000000  0.4979660000000  0.5441490000000 1.0
END
