TITL C-2622963-3633-191 -0.00517597432822627 125000 -866.363967818365 0 0 160 (C1) n - 1
REM
REM in /nfs/bkarasulu/CARBON/AIRSS/Generating-Clusters/AIREBO/with-SteepDescent/Higher-Symm/SD-CG/HFTN-CG
REM
REM
REM
REM
REM
REM ./C.cell (b20cbc046b6831c77cfcea5457e17084)
REM
REM compiler GCC version 9.2.1 20190827 (Red Hat 9.2.1-1)
REM options -cpp -mtune=generic -march=x86-64 -g -O0 -fpre-include=/usr/include/finclude/math-vector-fortran.h
REM seed 287179930 1628894269 1118721676 -881973176 1781239447 565575839 1220910364 1596864561 1908301149 -1055546899 -1692298416 751927344 -1555515911 215939929 -1307310574 828308228 -1828554205 831223179 -671492175 1796616699 792385927 -1844688722 -1906079797 1555962942 -854006653 1579343554 2140728040 423986309 1935613702 -1380173619 416831141 -1946568334 27485013
REM
CELL 1.54180   50.00000   50.00000   50.00000   90.00000   90.00000   90.00000
LATT -1
SFAC C  
C      1  0.5333720000000  0.4778710000000  0.4911470000000 1.0
C      1  0.4808720000000  0.4833830000000  0.4927380000000 1.0
C      1  0.4829800000000  0.5141590000000  0.5061030000000 1.0
C      1  0.5219340000000  0.5207910000000  0.5112290000000 1.0
C      1  0.4992170000000  0.4795940000000  0.5173970000000 1.0
C      1  0.5068710000000  0.4802390000000  0.4710430000000 1.0
C      1  0.5076210000000  0.5181610000000  0.4830030000000 1.0
C      1  0.4970260000000  0.5291130000000  0.5332340000000 1.0
C      1  0.4361220000000  0.5425080000000  0.5426050000000 1.0
C      1  0.5650130000000  0.5436860000000  0.4578710000000 1.0
C      1  0.5675320000000  0.4569630000000  0.5444440000000 1.0
C      1  0.4325040000000  0.4483770000000  0.4483800000000 1.0
C      1  0.5533270000000  0.5434860000000  0.4298890000000 1.0
C      1  0.4516610000000  0.5433580000000  0.5725020000000 1.0
C      1  0.5485640000000  0.4565760000000  0.5678840000000 1.0
C      1  0.4467650000000  0.4559680000000  0.4255920000000 1.0
C      1  0.4333500000000  0.4985680000000  0.5849250000000 1.0
C      1  0.5688570000000  0.4934220000000  0.4208330000000 1.0
C      1  0.5580610000000  0.5091970000000  0.5736930000000 1.0
C      1  0.4445150000000  0.4892810000000  0.4189880000000 1.0
C      1  0.5911440000000  0.4961530000000  0.4418040000000 1.0
C      1  0.4088870000000  0.5005730000000  0.5660940000000 1.0
C      1  0.5854500000000  0.5024120000000  0.5557280000000 1.0
C      1  0.4192770000000  0.4989050000000  0.4384730000000 1.0
C      1  0.4125130000000  0.4422010000000  0.5036270000000 1.0
C      1  0.5803920000000  0.4373300000000  0.5013660000000 1.0
C      1  0.5803640000000  0.5637800000000  0.4975480000000 1.0
C      1  0.4148930000000  0.5612070000000  0.5015540000000 1.0
C      1  0.4976320000000  0.4401250000000  0.4061570000000 1.0
C      1  0.4989610000000  0.4418380000000  0.5791270000000 1.0
C      1  0.5024590000000  0.5613480000000  0.5863990000000 1.0
C      1  0.4968690000000  0.5552200000000  0.4175650000000 1.0
C      1  0.5751690000000  0.5714380000000  0.4683880000000 1.0
C      1  0.4217750000000  0.5688880000000  0.5339570000000 1.0
C      1  0.4163890000000  0.4308720000000  0.4717790000000 1.0
C      1  0.5786090000000  0.4291600000000  0.5324870000000 1.0
C      1  0.4699700000000  0.5704040000000  0.5820610000000 1.0
C      1  0.5293100000000  0.5607330000000  0.4265590000000 1.0
C      1  0.4702740000000  0.4356310000000  0.4180250000000 1.0
C      1  0.5295150000000  0.4378000000000  0.5661060000000 1.0
C      1  0.4444490000000  0.5898620000000  0.5346480000000 1.0
C      1  0.5513690000000  0.5882030000000  0.4721580000000 1.0
C      1  0.5551400000000  0.4119500000000  0.5266340000000 1.0
C      1  0.4490300000000  0.4194180000000  0.4695650000000 1.0
C      1  0.5286600000000  0.5811030000000  0.4534780000000 1.0
C      1  0.4675780000000  0.5819010000000  0.5508420000000 1.0
C      1  0.5310610000000  0.4196280000000  0.5413470000000 1.0
C      1  0.4725790000000  0.4253250000000  0.4485960000000 1.0
C      1  0.4644820000000  0.5485060000000  0.4095680000000 1.0
C      1  0.5336640000000  0.5558120000000  0.5912310000000 1.0
C      1  0.5275800000000  0.4408320000000  0.4168080000000 1.0
C      1  0.4695250000000  0.4467790000000  0.5906730000000 1.0
C      1  0.4098540000000  0.5531450000000  0.4688490000000 1.0
C      1  0.5838080000000  0.5571030000000  0.5273710000000 1.0
C      1  0.4071050000000  0.4505090000000  0.5356410000000 1.0
C      1  0.5804480000000  0.4443040000000  0.4715040000000 1.0
C      1  0.4237260000000  0.5303310000000  0.4477200000000 1.0
C      1  0.5757540000000  0.5341220000000  0.5481780000000 1.0
C      1  0.5740350000000  0.4677570000000  0.4503070000000 1.0
C      1  0.4223760000000  0.4713950000000  0.5577850000000 1.0
C      1  0.4470860000000  0.5232300000000  0.4242560000000 1.0
C      1  0.5516730000000  0.5429530000000  0.5705030000000 1.0
C      1  0.4495640000000  0.4712020000000  0.5782860000000 1.0
C      1  0.5501870000000  0.4654240000000  0.4261300000000 1.0
C      1  0.4195140000000  0.5225090000000  0.4940600000000 1.0
C      1  0.5807100000000  0.5133770000000  0.5105170000000 1.0
C      1  0.5823580000000  0.4778100000000  0.4931140000000 1.0
C      1  0.4215380000000  0.4854590000000  0.5086220000000 1.0
C      1  0.4811840000000  0.5060370000000  0.4146930000000 1.0
C      1  0.5247590000000  0.5151310000000  0.5795700000000 1.0
C      1  0.4844720000000  0.4904590000000  0.5814360000000 1.0
C      1  0.5163780000000  0.4875780000000  0.4190190000000 1.0
C      1  0.5000450000000  0.4145450000000  0.4575940000000 1.0
C      1  0.4967160000000  0.4183100000000  0.5546750000000 1.0
C      1  0.4976770000000  0.5793640000000  0.4395750000000 1.0
C      1  0.5006400000000  0.5811210000000  0.5587550000000 1.0
C      1  0.4400020000000  0.4222400000000  0.5022410000000 1.0
C      1  0.5503020000000  0.4080590000000  0.4976330000000 1.0
C      1  0.4447350000000  0.5779280000000  0.5027940000000 1.0
C      1  0.5438410000000  0.5909630000000  0.4995480000000 1.0
C      1  0.5557660000000  0.5171020000000  0.4163710000000 1.0
C      1  0.4490960000000  0.5201050000000  0.6026920000000 1.0
C      1  0.4656340000000  0.4746200000000  0.3967260000000 1.0
C      1  0.5467660000000  0.4818430000000  0.5875750000000 1.0
C      1  0.4038420000000  0.5173700000000  0.5444400000000 1.0
C      1  0.5958870000000  0.5185250000000  0.4587170000000 1.0
C      1  0.4133000000000  0.4814010000000  0.4598580000000 1.0
C      1  0.6010970000000  0.4780930000000  0.5429590000000 1.0
C      1  0.4731180000000  0.4416220000000  0.5471200000000 1.0
C      1  0.5263370000000  0.4341830000000  0.4501390000000 1.0
C      1  0.5280250000000  0.5656910000000  0.5457760000000 1.0
C      1  0.4750830000000  0.5565770000000  0.4509720000000 1.0
C      1  0.5512080000000  0.4294510000000  0.4717900000000 1.0
C      1  0.4501430000000  0.4441950000000  0.5250600000000 1.0
C      1  0.5527590000000  0.5708640000000  0.5251060000000 1.0
C      1  0.4539390000000  0.5569200000000  0.4776310000000 1.0
C      1  0.4409050000000  0.5288650000000  0.4746500000000 1.0
C      1  0.5560120000000  0.5146480000000  0.5306920000000 1.0
C      1  0.5595390000000  0.4820050000000  0.4748480000000 1.0
C      1  0.4396480000000  0.4726540000000  0.5305430000000 1.0
C      1  0.4768530000000  0.5270480000000  0.4402430000000 1.0
C      1  0.5240400000000  0.5342540000000  0.5527020000000 1.0
C      1  0.4767670000000  0.4691880000000  0.5585330000000 1.0
C      1  0.5219210000000  0.4675240000000  0.4449110000000 1.0
C      1  0.4918880000000  0.4617220000000  0.3877370000000 1.0
C      1  0.5204990000000  0.4609830000000  0.5971970000000 1.0
C      1  0.5123950000000  0.5333140000000  0.4029210000000 1.0
C      1  0.4810560000000  0.5380330000000  0.5990180000000 1.0
C      1  0.3998930000000  0.4651360000000  0.4819180000000 1.0
C      1  0.6039230000000  0.4554400000000  0.5180520000000 1.0
C      1  0.3977580000000  0.5402790000000  0.5222800000000 1.0
C      1  0.6022550000000  0.5448750000000  0.4795580000000 1.0
C      1  0.5218930000000  0.5227970000000  0.4524870000000 1.0
C      1  0.4866480000000  0.4973480000000  0.5422110000000 1.0
C      1  0.4864830000000  0.5059780000000  0.4604340000000 1.0
C      1  0.5205650000000  0.4763680000000  0.5432140000000 1.0
C      1  0.4593720000000  0.4987750000000  0.5251360000000 1.0
C      1  0.5439500000000  0.5097620000000  0.4694910000000 1.0
C      1  0.4583040000000  0.5030750000000  0.4766410000000 1.0
C      1  0.5353480000000  0.4937340000000  0.5192120000000 1.0
C      1  0.5138970000000  0.4799070000000  0.3882720000000 1.0
C      1  0.4973560000000  0.4793180000000  0.6067080000000 1.0
C      1  0.4927720000000  0.5168250000000  0.3922910000000 1.0
C      1  0.5091300000000  0.5248960000000  0.6013600000000 1.0
C      1  0.3889940000000  0.4825520000000  0.5041200000000 1.0
C      1  0.6094420000000  0.4679630000000  0.4896790000000 1.0
C      1  0.3910420000000  0.5286160000000  0.4938240000000 1.0
C      1  0.6059440000000  0.5312870000000  0.5063610000000 1.0
C      1  0.4757530000000  0.5530130000000  0.5007390000000 1.0
C      1  0.5350440000000  0.5504090000000  0.5079070000000 1.0
C      1  0.5283500000000  0.4442510000000  0.4922740000000 1.0
C      1  0.4746830000000  0.4392900000000  0.4927130000000 1.0
C      1  0.4921900000000  0.5679200000000  0.4773050000000 1.0
C      1  0.5044380000000  0.5565090000000  0.5144900000000 1.0
C      1  0.4889720000000  0.4360550000000  0.5200640000000 1.0
C      1  0.4980060000000  0.4491610000000  0.4771310000000 1.0
C      1  0.4299000000000  0.5146390000000  0.5241230000000 1.0
C      1  0.5716600000000  0.5196160000000  0.4809650000000 1.0
C      1  0.5747660000000  0.4822670000000  0.5229030000000 1.0
C      1  0.4367620000000  0.4805070000000  0.4819510000000 1.0
C      1  0.5259950000000  0.5152290000000  0.4232880000000 1.0
C      1  0.4706950000000  0.5155760000000  0.5772170000000 1.0
C      1  0.5165940000000  0.4834480000000  0.5719640000000 1.0
C      1  0.4850670000000  0.4755560000000  0.4246240000000 1.0
C      1  0.4748760000000  0.5487350000000  0.5495360000000 1.0
C      1  0.5145980000000  0.5518910000000  0.4626770000000 1.0
C      1  0.5154270000000  0.4473590000000  0.5299320000000 1.0
C      1  0.4835570000000  0.4575010000000  0.4480140000000 1.0
C      1  0.5416360000000  0.5499850000000  0.4787030000000 1.0
C      1  0.4603280000000  0.5403350000000  0.5221750000000 1.0
C      1  0.5475130000000  0.4505590000000  0.5196490000000 1.0
C      1  0.4490180000000  0.4524060000000  0.4778300000000 1.0
C      1  0.4693990000000  0.4068400000000  0.5014180000000 1.0
C      1  0.5195370000000  0.4134260000000  0.5036000000000 1.0
C      1  0.5188330000000  0.6018900000000  0.5040970000000 1.0
C      1  0.4715610000000  0.5977330000000  0.5071750000000 1.0
C      1  0.4970440000000  0.4067010000000  0.4842750000000 1.0
C      1  0.4950120000000  0.4034360000000  0.5240490000000 1.0
C      1  0.4980940000000  0.5854750000000  0.5254740000000 1.0
C      1  0.4945750000000  0.5961480000000  0.4873380000000 1.0
END
