TITL C-2622953-3516-462 -0.00105374148194802 125000 -835.318596747093 0 0 158 (C1) n - 1
REM
REM in /nfs/bkarasulu/CARBON/AIRSS/Generating-Clusters/AIREBO/with-SteepDescent/Higher-Symm/SD-CG/HFTN-CG
REM
REM
REM
REM
REM
REM ./C.cell (b20cbc046b6831c77cfcea5457e17084)
REM
REM compiler GCC version 9.2.1 20190827 (Red Hat 9.2.1-1)
REM options -cpp -mtune=generic -march=x86-64 -g -O0 -fpre-include=/usr/include/finclude/math-vector-fortran.h
REM seed 1903823034 -625227662 -468211618 1034219865 2110879103 -1079346846 -189659810 -716740266 1409112437 1485195403 -1650640509 -403704052 -2046042079 -365575888 1347892606 1315211465 -674947099 1594619805 -1822468251 1003637110 2027806074 657405544 212336615 -1677666406 854564699 -1421063983 -1442002143 544132247 482300133 -2084024778 1038056922 353109975 -322561518
REM
CELL 1.54180   50.00000   50.00000   50.00000   90.00000   90.00000   90.00000
LATT -1
SFAC C  
C      1  0.4673030000000  0.5750500000000  0.4811250000000 1.0
C      1  0.5360560000000  0.5725840000000  0.4852540000000 1.0
C      1  0.4953170000000  0.5734010000000  0.5362510000000 1.0
C      1  0.5814490000000  0.4833560000000  0.5415840000000 1.0
C      1  0.4208440000000  0.4844780000000  0.5524080000000 1.0
C      1  0.4953710000000  0.4861050000000  0.4062910000000 1.0
C      1  0.4463520000000  0.5011040000000  0.5441240000000 1.0
C      1  0.4876430000000  0.5047660000000  0.4315560000000 1.0
C      1  0.5618120000000  0.5044940000000  0.5253830000000 1.0
C      1  0.4212290000000  0.4131540000000  0.5350730000000 1.0
C      1  0.5157780000000  0.4139040000000  0.4093660000000 1.0
C      1  0.5707250000000  0.4108920000000  0.5541990000000 1.0
C      1  0.6003210000000  0.5592340000000  0.4778020000000 1.0
C      1  0.4736140000000  0.5659870000000  0.5962150000000 1.0
C      1  0.4273210000000  0.5561360000000  0.4405510000000 1.0
C      1  0.4694340000000  0.5303290000000  0.5047270000000 1.0
C      1  0.5110690000000  0.5326020000000  0.4684120000000 1.0
C      1  0.5188680000000  0.5322020000000  0.5209630000000 1.0
C      1  0.5116080000000  0.5470950000000  0.5506710000000 1.0
C      1  0.4468510000000  0.5482890000000  0.4867060000000 1.0
C      1  0.5383570000000  0.5507850000000  0.4592530000000 1.0
C      1  0.4031220000000  0.5128850000000  0.5155610000000 1.0
C      1  0.5367660000000  0.5143950000000  0.4074150000000 1.0
C      1  0.5576280000000  0.5118280000000  0.5755060000000 1.0
C      1  0.5605580000000  0.5825070000000  0.4468100000000 1.0
C      1  0.5166410000000  0.5919540000000  0.5759250000000 1.0
C      1  0.4236270000000  0.5924920000000  0.4788000000000 1.0
C      1  0.5644820000000  0.4384750000000  0.4816300000000 1.0
C      1  0.4854360000000  0.4426970000000  0.5685200000000 1.0
C      1  0.4532530000000  0.4392620000000  0.4515050000000 1.0
C      1  0.5536990000000  0.4643030000000  0.4113490000000 1.0
C      1  0.5422660000000  0.4596460000000  0.5861650000000 1.0
C      1  0.3996130000000  0.4614140000000  0.5003800000000 1.0
C      1  0.5124730000000  0.5032280000000  0.3863800000000 1.0
C      1  0.5882870000000  0.5011800000000  0.5665590000000 1.0
C      1  0.3955000000000  0.5014140000000  0.5463260000000 1.0
C      1  0.4439060000000  0.5635220000000  0.5582570000000 1.0
C      1  0.4747910000000  0.5536290000000  0.4327750000000 1.0
C      1  0.5711070000000  0.5502370000000  0.5174520000000 1.0
C      1  0.5733480000000  0.5170100000000  0.4954550000000 1.0
C      1  0.4636380000000  0.5230610000000  0.5611590000000 1.0
C      1  0.4582110000000  0.5163180000000  0.4375610000000 1.0
C      1  0.4309470000000  0.5687620000000  0.4657410000000 1.0
C      1  0.5717200000000  0.5569370000000  0.4616290000000 1.0
C      1  0.4995570000000  0.5665330000000  0.5755000000000 1.0
C      1  0.5066730000000  0.5084950000000  0.5417120000000 1.0
C      1  0.4607210000000  0.5122690000000  0.4772570000000 1.0
C      1  0.5388360000000  0.5143490000000  0.4756160000000 1.0
C      1  0.5899850000000  0.4457550000000  0.5517060000000 1.0
C      1  0.4085530000000  0.4464420000000  0.5532460000000 1.0
C      1  0.5024780000000  0.4494460000000  0.3920530000000 1.0
C      1  0.4586630000000  0.4611420000000  0.5856710000000 1.0
C      1  0.4476510000000  0.4539550000000  0.4201480000000 1.0
C      1  0.5952650000000  0.4507870000000  0.4881780000000 1.0
C      1  0.5367920000000  0.4566320000000  0.5470970000000 1.0
C      1  0.4391000000000  0.4604540000000  0.5060700000000 1.0
C      1  0.5280490000000  0.4602510000000  0.4415190000000 1.0
C      1  0.5165680000000  0.4290370000000  0.5677880000000 1.0
C      1  0.4278610000000  0.4341320000000  0.4735390000000 1.0
C      1  0.5595180000000  0.4353390000000  0.4481390000000 1.0
C      1  0.6067770000000  0.4958270000000  0.4907520000000 1.0
C      1  0.4524390000000  0.5049860000000  0.6081070000000 1.0
C      1  0.4404450000000  0.4873890000000  0.4146460000000 1.0
C      1  0.5065530000000  0.5168390000000  0.5916330000000 1.0
C      1  0.4151110000000  0.5136630000000  0.4645060000000 1.0
C      1  0.5760350000000  0.5148020000000  0.4446150000000 1.0
C      1  0.5863600000000  0.5289830000000  0.4709240000000 1.0
C      1  0.4846460000000  0.5366330000000  0.5834340000000 1.0
C      1  0.4285090000000  0.5263310000000  0.4434790000000 1.0
C      1  0.4604670000000  0.4767910000000  0.4398220000000 1.0
C      1  0.5749240000000  0.4844210000000  0.4942590000000 1.0
C      1  0.4734860000000  0.4804010000000  0.5647100000000 1.0
C      1  0.5326930000000  0.4153120000000  0.4883360000000 1.0
C      1  0.4928490000000  0.4150830000000  0.5297000000000 1.0
C      1  0.4766350000000  0.4166110000000  0.4746080000000 1.0
C      1  0.4734200000000  0.5813070000000  0.4482670000000 1.0
C      1  0.5577260000000  0.5769050000000  0.5088330000000 1.0
C      1  0.4633770000000  0.5803730000000  0.5468490000000 1.0
C      1  0.5288410000000  0.4240890000000  0.4581530000000 1.0
C      1  0.5230240000000  0.4191020000000  0.5393790000000 1.0
C      1  0.4529210000000  0.4248060000000  0.4950340000000 1.0
C      1  0.5273290000000  0.4845130000000  0.4178070000000 1.0
C      1  0.5546800000000  0.4807600000000  0.5624880000000 1.0
C      1  0.4171130000000  0.4831570000000  0.5186350000000 1.0
C      1  0.5226640000000  0.4315480000000  0.5089840000000 1.0
C      1  0.4821740000000  0.4328920000000  0.5103670000000 1.0
C      1  0.4998840000000  0.4325330000000  0.4738550000000 1.0
C      1  0.5049040000000  0.5813310000000  0.4456970000000 1.0
C      1  0.5395420000000  0.5883570000000  0.5309250000000 1.0
C      1  0.4537690000000  0.5898640000000  0.5193320000000 1.0
C      1  0.4785880000000  0.4125920000000  0.5542590000000 1.0
C      1  0.4628000000000  0.4066390000000  0.4503490000000 1.0
C      1  0.5607660000000  0.4054260000000  0.4887470000000 1.0
C      1  0.5558470000000  0.4918040000000  0.4698190000000 1.0
C      1  0.5037720000000  0.4893520000000  0.5629800000000 1.0
C      1  0.4469600000000  0.4896590000000  0.4653280000000 1.0
C      1  0.4138590000000  0.4436100000000  0.5218780000000 1.0
C      1  0.5279610000000  0.4453340000000  0.4107880000000 1.0
C      1  0.5606980000000  0.4414700000000  0.5650150000000 1.0
C      1  0.4988870000000  0.5639350000000  0.4734980000000 1.0
C      1  0.5202900000000  0.5655610000000  0.5145450000000 1.0
C      1  0.4736710000000  0.5631930000000  0.5123500000000 1.0
C      1  0.4481020000000  0.5494410000000  0.4178500000000 1.0
C      1  0.5995030000000  0.5456090000000  0.5048200000000 1.0
C      1  0.4488050000000  0.5543410000000  0.5844430000000 1.0
C      1  0.5461840000000  0.5340540000000  0.5007870000000 1.0
C      1  0.4816370000000  0.5227050000000  0.5355500000000 1.0
C      1  0.4783460000000  0.5322160000000  0.4591010000000 1.0
C      1  0.4837880000000  0.4441580000000  0.4373740000000 1.0
C      1  0.5607630000000  0.4422930000000  0.5146980000000 1.0
C      1  0.4584210000000  0.4472040000000  0.5483570000000 1.0
C      1  0.5529840000000  0.4199700000000  0.5322790000000 1.0
C      1  0.4480800000000  0.4245700000000  0.5286940000000 1.0
C      1  0.5060120000000  0.4232790000000  0.4357110000000 1.0
C      1  0.5095780000000  0.4648950000000  0.4699490000000 1.0
C      1  0.5207230000000  0.4643060000000  0.5179450000000 1.0
C      1  0.4730010000000  0.4653290000000  0.5058250000000 1.0
C      1  0.4442160000000  0.5195900000000  0.4069650000000 1.0
C      1  0.6123110000000  0.5199650000000  0.5039660000000 1.0
C      1  0.4469540000000  0.5253710000000  0.5899990000000 1.0
C      1  0.5532650000000  0.4737220000000  0.5149800000000 1.0
C      1  0.4636970000000  0.4766330000000  0.5346300000000 1.0
C      1  0.4912610000000  0.4755190000000  0.4445520000000 1.0
C      1  0.4195900000000  0.5282190000000  0.4901280000000 1.0
C      1  0.5498910000000  0.5307150000000  0.4343190000000 1.0
C      1  0.5286170000000  0.5298250000000  0.5745590000000 1.0
C      1  0.5636930000000  0.5465420000000  0.5490730000000 1.0
C      1  0.4291110000000  0.5494450000000  0.5386450000000 1.0
C      1  0.5017360000000  0.5489090000000  0.4166130000000 1.0
C      1  0.4789340000000  0.4593150000000  0.4079420000000 1.0
C      1  0.5898750000000  0.4586960000000  0.5209770000000 1.0
C      1  0.4324780000000  0.4583160000000  0.5669150000000 1.0
C      1  0.5695310000000  0.4580140000000  0.4335310000000 1.0
C      1  0.5103180000000  0.4569220000000  0.5868560000000 1.0
C      1  0.4097920000000  0.4567210000000  0.4750230000000 1.0
C      1  0.4155520000000  0.4820580000000  0.4598230000000 1.0
C      1  0.5804780000000  0.4814740000000  0.4497470000000 1.0
C      1  0.4979160000000  0.4863570000000  0.5962070000000 1.0
C      1  0.4995650000000  0.6018870000000  0.5181770000000 1.0
C      1  0.4787130000000  0.6051230000000  0.4921610000000 1.0
C      1  0.5101890000000  0.5927970000000  0.4871840000000 1.0
C      1  0.5464550000000  0.5243560000000  0.5392400000000 1.0
C      1  0.4432480000000  0.5260820000000  0.5260160000000 1.0
C      1  0.5091220000000  0.5249470000000  0.4353290000000 1.0
C      1  0.4120670000000  0.4794500000000  0.4285610000000 1.0
C      1  0.6040110000000  0.4727600000000  0.4700540000000 1.0
C      1  0.4686410000000  0.4835360000000  0.6041890000000 1.0
C      1  0.5043730000000  0.4617620000000  0.5476650000000 1.0
C      1  0.4559610000000  0.4620930000000  0.4765770000000 1.0
C      1  0.5435050000000  0.4633260000000  0.4716550000000 1.0
C      1  0.5584730000000  0.5455560000000  0.5787140000000 1.0
C      1  0.4090000000000  0.5448200000000  0.5178290000000 1.0
C      1  0.5313030000000  0.5464740000000  0.4106050000000 1.0
C      1  0.5322600000000  0.5804490000000  0.4429470000000 1.0
C      1  0.5294400000000  0.6004010000000  0.5533540000000 1.0
C      1  0.4385610000000  0.6019480000000  0.4999610000000 1.0
C      1  0.4999450000000  0.5174850000000  0.4968120000000 1.0
C      1  0.5009010000000  0.4831170000000  0.4974670000000 1.0
END
