TITL C-2622961-1971-517 0.000445332411546537 125000 -706.492230989338 0 0 132 (C1) n - 1
REM
REM in /nfs/bkarasulu/CARBON/AIRSS/Generating-Clusters/AIREBO/with-SteepDescent/Higher-Symm/SD-CG/HFTN-CG
REM
REM
REM
REM
REM
REM ./C.cell (b20cbc046b6831c77cfcea5457e17084)
REM
REM compiler GCC version 9.2.1 20190827 (Red Hat 9.2.1-1)
REM options -cpp -mtune=generic -march=x86-64 -g -O0 -fpre-include=/usr/include/finclude/math-vector-fortran.h
REM seed -1522221405 -827336777 1812796828 -1860452928 378354276 -100374579 -412929323 1679993627 -1036079037 -983260743 -157791308 -595109217 1560993865 -1791609297 -1282368104 -928786058 195489144 -1055818288 -362720125 1022989177 -728779945 -543543133 820406938 719696252 -42172897 -1958113586 1204134083 -1091696439 715032142 943282955 -1365176964 1525888351 1444376179
REM
CELL 1.54180   50.00000   50.00000   50.00000   90.00000   90.00000   90.00000
LATT -1
SFAC C  
C      1  0.4907590000000  0.4590670000000  0.5544740000000 1.0
C      1  0.4594160000000  0.4602950000000  0.5116390000000 1.0
C      1  0.4594730000000  0.4577570000000  0.4800300000000 1.0
C      1  0.4871890000000  0.4579080000000  0.4603080000000 1.0
C      1  0.5320840000000  0.4560530000000  0.4675700000000 1.0
C      1  0.5409850000000  0.4609790000000  0.5000160000000 1.0
C      1  0.5331320000000  0.4625940000000  0.5330670000000 1.0
C      1  0.4586740000000  0.4998360000000  0.4254360000000 1.0
C      1  0.5399370000000  0.4965800000000  0.4236070000000 1.0
C      1  0.5895770000000  0.4939920000000  0.4649620000000 1.0
C      1  0.5773320000000  0.4994960000000  0.5590260000000 1.0
C      1  0.4893270000000  0.5029840000000  0.6003890000000 1.0
C      1  0.4293680000000  0.4993660000000  0.5576230000000 1.0
C      1  0.4030670000000  0.5151690000000  0.4809130000000 1.0
C      1  0.5475680000000  0.5719680000000  0.5292190000000 1.0
C      1  0.5091200000000  0.5647720000000  0.5610820000000 1.0
C      1  0.4614100000000  0.5712200000000  0.5417970000000 1.0
C      1  0.4406720000000  0.5671010000000  0.4968750000000 1.0
C      1  0.4677990000000  0.5694330000000  0.4556760000000 1.0
C      1  0.5151360000000  0.5661490000000  0.4470850000000 1.0
C      1  0.5515750000000  0.5713030000000  0.4790780000000 1.0
C      1  0.4792840000000  0.5265410000000  0.4210640000000 1.0
C      1  0.5490230000000  0.5246030000000  0.4405970000000 1.0
C      1  0.5809550000000  0.5249780000000  0.5007360000000 1.0
C      1  0.5471020000000  0.5150350000000  0.5602970000000 1.0
C      1  0.4711190000000  0.5200040000000  0.5772450000000 1.0
C      1  0.4215210000000  0.5311030000000  0.5352840000000 1.0
C      1  0.4221570000000  0.5213390000000  0.4551560000000 1.0
C      1  0.4865150000000  0.4523820000000  0.5855280000000 1.0
C      1  0.4345910000000  0.4525360000000  0.5297090000000 1.0
C      1  0.4315890000000  0.4535950000000  0.4673030000000 1.0
C      1  0.4859850000000  0.4526220000000  0.4267230000000 1.0
C      1  0.5474700000000  0.4471940000000  0.4411520000000 1.0
C      1  0.5736060000000  0.4522380000000  0.4958910000000 1.0
C      1  0.5510630000000  0.4530810000000  0.5586780000000 1.0
C      1  0.4056550000000  0.5476880000000  0.5152020000000 1.0
C      1  0.4244290000000  0.5362060000000  0.4279550000000 1.0
C      1  0.5045600000000  0.5324090000000  0.4052520000000 1.0
C      1  0.5776020000000  0.5347880000000  0.4489040000000 1.0
C      1  0.5892350000000  0.5380460000000  0.5289420000000 1.0
C      1  0.5300680000000  0.5292100000000  0.5860850000000 1.0
C      1  0.4438390000000  0.5363630000000  0.5812020000000 1.0
C      1  0.4829580000000  0.5571630000000  0.5530620000000 1.0
C      1  0.4489700000000  0.5562500000000  0.5212360000000 1.0
C      1  0.4515500000000  0.5555940000000  0.4738480000000 1.0
C      1  0.4902710000000  0.5538820000000  0.4491210000000 1.0
C      1  0.5357660000000  0.5554160000000  0.4621660000000 1.0
C      1  0.5533920000000  0.5601110000000  0.5044860000000 1.0
C      1  0.5304060000000  0.5558920000000  0.5443980000000 1.0
C      1  0.4848240000000  0.5218920000000  0.4542860000000 1.0
C      1  0.5342620000000  0.5237250000000  0.4704140000000 1.0
C      1  0.5470890000000  0.5268680000000  0.5031970000000 1.0
C      1  0.5298740000000  0.5240690000000  0.5324070000000 1.0
C      1  0.4805160000000  0.5243250000000  0.5448480000000 1.0
C      1  0.4528650000000  0.5226960000000  0.5251220000000 1.0
C      1  0.4534900000000  0.5254890000000  0.4676890000000 1.0
C      1  0.5997610000000  0.4715820000000  0.4859860000000 1.0
C      1  0.5770350000000  0.4729040000000  0.5634830000000 1.0
C      1  0.4990070000000  0.4773870000000  0.6031120000000 1.0
C      1  0.4145750000000  0.4722030000000  0.5465780000000 1.0
C      1  0.4029320000000  0.4678090000000  0.4591740000000 1.0
C      1  0.4670990000000  0.4735610000000  0.4071170000000 1.0
C      1  0.5568770000000  0.4694650000000  0.4181890000000 1.0
C      1  0.4670870000000  0.4933380000000  0.5139740000000 1.0
C      1  0.4492240000000  0.4975480000000  0.4853410000000 1.0
C      1  0.4965920000000  0.4906150000000  0.4607240000000 1.0
C      1  0.5295600000000  0.4900590000000  0.4692570000000 1.0
C      1  0.5432850000000  0.4938700000000  0.5001410000000 1.0
C      1  0.5173680000000  0.4919850000000  0.5400150000000 1.0
C      1  0.4835160000000  0.4904700000000  0.5436240000000 1.0
C      1  0.4674080000000  0.4190690000000  0.4848090000000 1.0
C      1  0.4916720000000  0.4242590000000  0.4625650000000 1.0
C      1  0.5237210000000  0.4252300000000  0.4708320000000 1.0
C      1  0.5378980000000  0.4140450000000  0.4970420000000 1.0
C      1  0.5277920000000  0.4307240000000  0.5224120000000 1.0
C      1  0.4985880000000  0.4352260000000  0.5383130000000 1.0
C      1  0.4690550000000  0.4298060000000  0.5232440000000 1.0
C      1  0.5096640000000  0.4867480000000  0.4295500000000 1.0
C      1  0.5599040000000  0.4831190000000  0.4555180000000 1.0
C      1  0.5673640000000  0.4822380000000  0.5211950000000 1.0
C      1  0.5319640000000  0.4862320000000  0.5701870000000 1.0
C      1  0.4581870000000  0.4900560000000  0.5676520000000 1.0
C      1  0.4194260000000  0.4927620000000  0.4969110000000 1.0
C      1  0.4630030000000  0.4887520000000  0.4555120000000 1.0
C      1  0.4298950000000  0.5918190000000  0.4949960000000 1.0
C      1  0.4626130000000  0.5938410000000  0.4458120000000 1.0
C      1  0.5187670000000  0.5880300000000  0.4317100000000 1.0
C      1  0.5633910000000  0.5942100000000  0.4715440000000 1.0
C      1  0.5577760000000  0.5953670000000  0.5375680000000 1.0
C      1  0.5118350000000  0.5888510000000  0.5734550000000 1.0
C      1  0.4530620000000  0.5953970000000  0.5499950000000 1.0
C      1  0.5783090000000  0.5303570000000  0.5527510000000 1.0
C      1  0.5028240000000  0.5303960000000  0.5891640000000 1.0
C      1  0.4239690000000  0.5380630000000  0.5658270000000 1.0
C      1  0.3918910000000  0.5362490000000  0.4972950000000 1.0
C      1  0.4467500000000  0.5281250000000  0.4144850000000 1.0
C      1  0.5294030000000  0.5256020000000  0.4131370000000 1.0
C      1  0.5887690000000  0.5216200000000  0.4702940000000 1.0
C      1  0.4174470000000  0.4992920000000  0.5262040000000 1.0
C      1  0.4025700000000  0.4939600000000  0.4509220000000 1.0
C      1  0.4925360000000  0.4909050000000  0.4066280000000 1.0
C      1  0.5790010000000  0.4898970000000  0.4282100000000 1.0
C      1  0.5892130000000  0.4949910000000  0.5048930000000 1.0
C      1  0.5420820000000  0.5033580000000  0.5980240000000 1.0
C      1  0.4462600000000  0.4877690000000  0.5994120000000 1.0
C      1  0.5690530000000  0.4280630000000  0.4532730000000 1.0
C      1  0.5802500000000  0.4307030000000  0.5169610000000 1.0
C      1  0.5348750000000  0.4329060000000  0.5752100000000 1.0
C      1  0.4608750000000  0.4396110000000  0.5728220000000 1.0
C      1  0.4191940000000  0.4350400000000  0.5079850000000 1.0
C      1  0.4412950000000  0.4346770000000  0.4448300000000 1.0
C      1  0.5082010000000  0.4329610000000  0.4176940000000 1.0
C      1  0.5666030000000  0.4074380000000  0.5113450000000 1.0
C      1  0.5218230000000  0.4174070000000  0.5533030000000 1.0
C      1  0.4626930000000  0.4185200000000  0.5546800000000 1.0
C      1  0.4437090000000  0.4155020000000  0.5062410000000 1.0
C      1  0.4543040000000  0.4127800000000  0.4553760000000 1.0
C      1  0.5129150000000  0.4140730000000  0.4403410000000 1.0
C      1  0.5603470000000  0.4093010000000  0.4719190000000 1.0
C      1  0.5784540000000  0.4559190000000  0.4645640000000 1.0
C      1  0.5745140000000  0.4546720000000  0.5357250000000 1.0
C      1  0.5195110000000  0.4599100000000  0.5822650000000 1.0
C      1  0.4435690000000  0.4600980000000  0.5609530000000 1.0
C      1  0.4107850000000  0.4620630000000  0.4911790000000 1.0
C      1  0.4554230000000  0.4616640000000  0.4363810000000 1.0
C      1  0.5249550000000  0.4596210000000  0.4211010000000 1.0
C      1  0.4914460000000  0.4384200000000  0.4991450000000 1.0
C      1  0.5069850000000  0.4614410000000  0.5003040000000 1.0
C      1  0.5010560000000  0.5332620000000  0.5211650000000 1.0
C      1  0.4940790000000  0.4865980000000  0.4943990000000 1.0
C      1  0.4988240000000  0.5812780000000  0.5005760000000 1.0
C      1  0.4992700000000  0.5554060000000  0.5064880000000 1.0
END
