TITL C-2622964-2985-700 -0.00232079749945791 125000 -920.302106740071 0 0 183 (C1) n - 1
REM
REM in /nfs/bkarasulu/CARBON/AIRSS/Generating-Clusters/AIREBO/with-SteepDescent/Higher-Symm/SD-CG/HFTN-CG
REM
REM
REM
REM
REM
REM ./C.cell (b20cbc046b6831c77cfcea5457e17084)
REM
REM compiler GCC version 9.2.1 20190827 (Red Hat 9.2.1-1)
REM options -cpp -mtune=generic -march=x86-64 -g -O0 -fpre-include=/usr/include/finclude/math-vector-fortran.h
REM seed 476048887 -421436012 1962283435 950251769 1955551749 -1274010144 -189582811 912123723 -145734250 567505818 -1853653946 1279912509 127999611 -891474791 -187569904 1221895530 -1115088791 1835152662 -1478607190 1851786190 -1179415139 575500867 -692635519 -1982291299 -2038809462 -871603173 455757084 488164218 1706161716 -416271903 -329763844 1307835968 1443840119
REM
CELL 1.54180   50.00000   50.00000   50.00000   90.00000   90.00000   90.00000
LATT -1
SFAC C  
C      1  0.5300450000000  0.6073960000000  0.5338560000000 1.0
C      1  0.4670630000000  0.6121650000000  0.4659860000000 1.0
C      1  0.4972170000000  0.4691570000000  0.4140820000000 1.0
C      1  0.5058500000000  0.4625790000000  0.5894190000000 1.0
C      1  0.4791690000000  0.5960570000000  0.4474690000000 1.0
C      1  0.5140110000000  0.5822060000000  0.5420160000000 1.0
C      1  0.5059990000000  0.4416530000000  0.4208350000000 1.0
C      1  0.4993600000000  0.4300690000000  0.5843980000000 1.0
C      1  0.5346220000000  0.4993090000000  0.4652680000000 1.0
C      1  0.4670970000000  0.4995430000000  0.5367100000000 1.0
C      1  0.4394430000000  0.5235170000000  0.5213500000000 1.0
C      1  0.5605790000000  0.5293020000000  0.4791150000000 1.0
C      1  0.3957930000000  0.5113270000000  0.5030860000000 1.0
C      1  0.5960850000000  0.5061820000000  0.4971860000000 1.0
C      1  0.5393540000000  0.6016030000000  0.4713040000000 1.0
C      1  0.4684430000000  0.5953590000000  0.5243780000000 1.0
C      1  0.5848310000000  0.4524900000000  0.5058360000000 1.0
C      1  0.4196710000000  0.4553970000000  0.4862660000000 1.0
C      1  0.4701990000000  0.5667690000000  0.4480570000000 1.0
C      1  0.5412370000000  0.5643260000000  0.5477440000000 1.0
C      1  0.5351500000000  0.4718540000000  0.4504600000000 1.0
C      1  0.4492970000000  0.4733700000000  0.5447100000000 1.0
C      1  0.4826250000000  0.4678050000000  0.5655830000000 1.0
C      1  0.5141790000000  0.4881830000000  0.4331020000000 1.0
C      1  0.4894840000000  0.5078470000000  0.3835370000000 1.0
C      1  0.5103660000000  0.5060800000000  0.6082250000000 1.0
C      1  0.4786850000000  0.4614190000000  0.5324010000000 1.0
C      1  0.5188740000000  0.4605450000000  0.4780960000000 1.0
C      1  0.4895920000000  0.5642960000000  0.4104060000000 1.0
C      1  0.5108230000000  0.5504010000000  0.5830650000000 1.0
C      1  0.4713940000000  0.5339980000000  0.4436420000000 1.0
C      1  0.5268010000000  0.5370030000000  0.5587830000000 1.0
C      1  0.5195710000000  0.5390360000000  0.5256190000000 1.0
C      1  0.4883030000000  0.5373650000000  0.4807930000000 1.0
C      1  0.4778760000000  0.4018870000000  0.5186920000000 1.0
C      1  0.5229630000000  0.4040680000000  0.4825580000000 1.0
C      1  0.5038150000000  0.4844340000000  0.5365590000000 1.0
C      1  0.4968510000000  0.4857740000000  0.4720890000000 1.0
C      1  0.4759930000000  0.5384080000000  0.5103550000000 1.0
C      1  0.5259440000000  0.5420570000000  0.4939240000000 1.0
C      1  0.5301090000000  0.4347460000000  0.5708650000000 1.0
C      1  0.4653090000000  0.4222610000000  0.4379100000000 1.0
C      1  0.4454430000000  0.5199220000000  0.5532130000000 1.0
C      1  0.5494580000000  0.5237750000000  0.4474550000000 1.0
C      1  0.4544240000000  0.5241780000000  0.5918990000000 1.0
C      1  0.5451360000000  0.5280650000000  0.3998050000000 1.0
C      1  0.5780570000000  0.4375880000000  0.5518060000000 1.0
C      1  0.4135050000000  0.4329750000000  0.4393610000000 1.0
C      1  0.5801070000000  0.4325550000000  0.4681280000000 1.0
C      1  0.4285620000000  0.4502690000000  0.5370780000000 1.0
C      1  0.4943680000000  0.5744880000000  0.5672020000000 1.0
C      1  0.5051040000000  0.5863880000000  0.4301610000000 1.0
C      1  0.4386610000000  0.4993880000000  0.4100700000000 1.0
C      1  0.5584970000000  0.4966300000000  0.6068030000000 1.0
C      1  0.5603000000000  0.4492220000000  0.5706840000000 1.0
C      1  0.4419940000000  0.4457360000000  0.4308450000000 1.0
C      1  0.5683850000000  0.4788190000000  0.4889680000000 1.0
C      1  0.4281360000000  0.4835050000000  0.5034440000000 1.0
C      1  0.4945310000000  0.3867690000000  0.4755290000000 1.0
C      1  0.5077090000000  0.3878680000000  0.5271320000000 1.0
C      1  0.4508250000000  0.4138520000000  0.5538170000000 1.0
C      1  0.5372340000000  0.4096760000000  0.4389310000000 1.0
C      1  0.5646030000000  0.5387470000000  0.4252070000000 1.0
C      1  0.4322450000000  0.5397030000000  0.5746040000000 1.0
C      1  0.4639740000000  0.6020760000000  0.4912980000000 1.0
C      1  0.5457590000000  0.6084700000000  0.5040190000000 1.0
C      1  0.5262480000000  0.4308860000000  0.4631360000000 1.0
C      1  0.4739350000000  0.4281350000000  0.5376450000000 1.0
C      1  0.4842010000000  0.5302460000000  0.5766210000000 1.0
C      1  0.5170830000000  0.5450000000000  0.4089100000000 1.0
C      1  0.4134970000000  0.5285930000000  0.4614160000000 1.0
C      1  0.5910100000000  0.5352810000000  0.5490150000000 1.0
C      1  0.4420160000000  0.5586150000000  0.4330810000000 1.0
C      1  0.5586710000000  0.5723180000000  0.5758330000000 1.0
C      1  0.5727640000000  0.5095830000000  0.5576960000000 1.0
C      1  0.4334440000000  0.5010780000000  0.4630410000000 1.0
C      1  0.4067190000000  0.5283690000000  0.5573230000000 1.0
C      1  0.5891080000000  0.5269980000000  0.4456720000000 1.0
C      1  0.4943000000000  0.4997530000000  0.5653950000000 1.0
C      1  0.5105270000000  0.5207980000000  0.4313550000000 1.0
C      1  0.4708170000000  0.4777310000000  0.4295380000000 1.0
C      1  0.5305040000000  0.4753590000000  0.5735890000000 1.0
C      1  0.5209620000000  0.5300050000000  0.4625120000000 1.0
C      1  0.4755920000000  0.5321380000000  0.5437730000000 1.0
C      1  0.4826990000000  0.3754410000000  0.4989070000000 1.0
C      1  0.5222130000000  0.3790010000000  0.5032970000000 1.0
C      1  0.4931110000000  0.4310040000000  0.4853330000000 1.0
C      1  0.5077400000000  0.4282230000000  0.5169290000000 1.0
C      1  0.4033840000000  0.5472610000000  0.5331390000000 1.0
C      1  0.5898120000000  0.5457740000000  0.4734420000000 1.0
C      1  0.5229420000000  0.5769340000000  0.4546260000000 1.0
C      1  0.4749750000000  0.5659470000000  0.5401730000000 1.0
C      1  0.3849920000000  0.4768740000000  0.4595220000000 1.0
C      1  0.5947760000000  0.4820490000000  0.5397680000000 1.0
C      1  0.5833750000000  0.4027510000000  0.4852180000000 1.0
C      1  0.4175770000000  0.4098030000000  0.5111740000000 1.0
C      1  0.5155260000000  0.6199430000000  0.4874460000000 1.0
C      1  0.4977830000000  0.6057510000000  0.5104930000000 1.0
C      1  0.4408420000000  0.4478140000000  0.5831050000000 1.0
C      1  0.5523530000000  0.4493390000000  0.4224150000000 1.0
C      1  0.5478370000000  0.4563890000000  0.4913660000000 1.0
C      1  0.4562740000000  0.4634930000000  0.5068790000000 1.0
C      1  0.5631500000000  0.4824810000000  0.5762140000000 1.0
C      1  0.4377460000000  0.4791340000000  0.4373900000000 1.0
C      1  0.5904900000000  0.4557520000000  0.5341250000000 1.0
C      1  0.4147110000000  0.4616070000000  0.4552560000000 1.0
C      1  0.4109220000000  0.5080930000000  0.5303370000000 1.0
C      1  0.5793060000000  0.5030530000000  0.4677530000000 1.0
C      1  0.5767930000000  0.4967210000000  0.4344330000000 1.0
C      1  0.4154780000000  0.4948880000000  0.5613530000000 1.0
C      1  0.4949970000000  0.4313330000000  0.4513210000000 1.0
C      1  0.5032380000000  0.4285840000000  0.5506520000000 1.0
C      1  0.5158510000000  0.5260060000000  0.3807330000000 1.0
C      1  0.4836120000000  0.5241440000000  0.6100750000000 1.0
C      1  0.4034030000000  0.4551170000000  0.5161230000000 1.0
C      1  0.6000000000000  0.4566920000000  0.4776450000000 1.0
C      1  0.5405300000000  0.4351210000000  0.5386610000000 1.0
C      1  0.4589340000000  0.4394780000000  0.4664870000000 1.0
C      1  0.5358980000000  0.4952990000000  0.6228850000000 1.0
C      1  0.4576700000000  0.4989640000000  0.3866030000000 1.0
C      1  0.5377990000000  0.4966810000000  0.4019730000000 1.0
C      1  0.4594870000000  0.4929820000000  0.5930580000000 1.0
C      1  0.5759590000000  0.5056090000000  0.5240350000000 1.0
C      1  0.4052720000000  0.4918120000000  0.4796850000000 1.0
C      1  0.4395340000000  0.5835220000000  0.5392540000000 1.0
C      1  0.5620680000000  0.5822600000000  0.4544670000000 1.0
C      1  0.4830470000000  0.5067220000000  0.4169050000000 1.0
C      1  0.5244060000000  0.5086020000000  0.5773510000000 1.0
C      1  0.5299910000000  0.4635020000000  0.5434820000000 1.0
C      1  0.4759510000000  0.4659690000000  0.4572460000000 1.0
C      1  0.5459830000000  0.5593280000000  0.4725550000000 1.0
C      1  0.4485850000000  0.5562740000000  0.5210000000000 1.0
C      1  0.5669970000000  0.5424050000000  0.5080700000000 1.0
C      1  0.4503350000000  0.5272960000000  0.4766070000000 1.0
C      1  0.5425700000000  0.4851220000000  0.5272350000000 1.0
C      1  0.4565780000000  0.4779310000000  0.4767980000000 1.0
C      1  0.4031840000000  0.5343690000000  0.4876410000000 1.0
C      1  0.5941790000000  0.5408110000000  0.5202040000000 1.0
C      1  0.4216810000000  0.5538710000000  0.4506500000000 1.0
C      1  0.5752340000000  0.5637270000000  0.5469090000000 1.0
C      1  0.5332960000000  0.5734380000000  0.4162340000000 1.0
C      1  0.4669950000000  0.5596880000000  0.5787040000000 1.0
C      1  0.5435990000000  0.5499690000000  0.5923180000000 1.0
C      1  0.4630400000000  0.5564130000000  0.4101020000000 1.0
C      1  0.5184510000000  0.4969900000000  0.4944360000000 1.0
C      1  0.4877690000000  0.4977220000000  0.5096870000000 1.0
C      1  0.4370940000000  0.4354180000000  0.5077010000000 1.0
C      1  0.5634870000000  0.4275160000000  0.4973810000000 1.0
C      1  0.5588500000000  0.5697100000000  0.4278150000000 1.0
C      1  0.4408200000000  0.5705830000000  0.5670650000000 1.0
C      1  0.5373140000000  0.4151180000000  0.5113470000000 1.0
C      1  0.4630180000000  0.4188490000000  0.4932150000000 1.0
C      1  0.5381660000000  0.3928610000000  0.5371690000000 1.0
C      1  0.4717160000000  0.4018150000000  0.4643130000000 1.0
C      1  0.5308050000000  0.4369520000000  0.4104510000000 1.0
C      1  0.4697250000000  0.4460350000000  0.5858450000000 1.0
C      1  0.5553540000000  0.5205510000000  0.5848280000000 1.0
C      1  0.4567680000000  0.5253480000000  0.4165710000000 1.0
C      1  0.4849660000000  0.4853150000000  0.6013770000000 1.0
C      1  0.5122620000000  0.4883040000000  0.3934970000000 1.0
C      1  0.3989300000000  0.4770270000000  0.5372720000000 1.0
C      1  0.6064060000000  0.4834470000000  0.4739100000000 1.0
C      1  0.4769650000000  0.5736240000000  0.4921820000000 1.0
C      1  0.5224890000000  0.5837070000000  0.5027180000000 1.0
C      1  0.4320520000000  0.4323630000000  0.5612880000000 1.0
C      1  0.5571120000000  0.4356290000000  0.4496510000000 1.0
C      1  0.5994170000000  0.5621240000000  0.4960790000000 1.0
C      1  0.4184640000000  0.5569640000000  0.5052220000000 1.0
C      1  0.5508010000000  0.5052670000000  0.5011120000000 1.0
C      1  0.4553780000000  0.5033840000000  0.4990510000000 1.0
C      1  0.4234520000000  0.5710690000000  0.4763920000000 1.0
C      1  0.5812920000000  0.5783380000000  0.5168000000000 1.0
C      1  0.5489010000000  0.5667260000000  0.5158050000000 1.0
C      1  0.4532710000000  0.5569350000000  0.4749680000000 1.0
C      1  0.5249360000000  0.5094400000000  0.5311470000000 1.0
C      1  0.4773690000000  0.5101230000000  0.4663690000000 1.0
C      1  0.4390580000000  0.4784530000000  0.5758650000000 1.0
C      1  0.5528450000000  0.4816480000000  0.4237700000000 1.0
C      1  0.5652890000000  0.4118400000000  0.5396750000000 1.0
C      1  0.4319180000000  0.4203950000000  0.4598440000000 1.0
C      1  0.5070120000000  0.5656570000000  0.4784060000000 1.0
C      1  0.4987430000000  0.5643240000000  0.5174330000000 1.0
C      1  0.4982230000000  0.4569540000000  0.5048920000000 1.0
END
