TITL C-2622954-8726-274 0.00136827995270443 125000 -62.5868767888538 0 0 12 (D2h) n - 1
REM
REM in /nfs/bkarasulu/CARBON/AIRSS/Generating-Clusters/AIREBO/with-SteepDescent/Higher-Symm/SD-CG/HFTN-CG
REM
REM
REM
REM
REM
REM ./C.cell (b20cbc046b6831c77cfcea5457e17084)
REM
REM compiler GCC version 9.2.1 20190827 (Red Hat 9.2.1-1)
REM options -cpp -mtune=generic -march=x86-64 -g -O0 -fpre-include=/usr/include/finclude/math-vector-fortran.h
REM seed 472519685 -58416652 1804415415 -484753610 1884865095 -1787511575 2141404218 -120743330 -406422461 1565521007 1605234016 -1155247389 1123298215 -1692313305 1888094983 -1706658083 837724229 -1871986573 1071036604 -1037081715 -62314487 1213971568 -27466005 1156651625 -1180353804 1016806709 830877283 -319202334 -39578887 1395724383 1674591674 -1913984621 -2081427896
REM
CELL 1.54180   50.00000   50.00000   50.00000   90.00000   90.00000   90.00000
LATT -1
SFAC C  
C      1  0.4732980000000  0.4859770000000  0.4858510000000 1.0
C      1  0.4728800000000  0.5174430000000  0.4826220000000 1.0
C      1  0.4733090000000  0.5141140000000  0.5140780000000 1.0
C      1  0.4727620000000  0.4826490000000  0.5173050000000 1.0
C      1  0.5217170000000  0.5173510000000  0.4826950000000 1.0
C      1  0.5211700000000  0.4858860000000  0.4859220000000 1.0
C      1  0.5216000000000  0.4825570000000  0.5173780000000 1.0
C      1  0.5211820000000  0.5140240000000  0.5141490000000 1.0
C      1  0.4971440000000  0.4715990000000  0.5283110000000 1.0
C      1  0.4973360000000  0.5284010000000  0.4716890000000 1.0
C      1  0.4972500000000  0.5255460000000  0.5256270000000 1.0
C      1  0.4972300000000  0.4744540000000  0.4743730000000 1.0
END
