TITL C-2622964-2985-110 -0.00189295982637991 125000 -762.136379756841 0 0 138 (C1) n - 1
REM
REM in /nfs/bkarasulu/CARBON/AIRSS/Generating-Clusters/AIREBO/with-SteepDescent/Higher-Symm/SD-CG/HFTN-CG
REM
REM
REM
REM
REM
REM ./C.cell (b20cbc046b6831c77cfcea5457e17084)
REM
REM compiler GCC version 9.2.1 20190827 (Red Hat 9.2.1-1)
REM options -cpp -mtune=generic -march=x86-64 -g -O0 -fpre-include=/usr/include/finclude/math-vector-fortran.h
REM seed 2089855552 1560048624 -529741826 385251460 1019403288 -889782239 1904004870 517994971 -645682630 -529134275 840872561 718148845 -1311076919 1240646910 1582093573 335578173 -916976070 1518458833 651505785 1669016120 134630620 470530540 -983003615 -190141081 -1195326019 1864639979 1650555632 1329886374 830838240 711810868 -800290091 -1647509988 875222155
REM
CELL 1.54180   50.00000   50.00000   50.00000   90.00000   90.00000   90.00000
LATT -1
SFAC C  
C      1  0.4233960000000  0.4835210000000  0.4636270000000 1.0
C      1  0.5399990000000  0.4860710000000  0.6029830000000 1.0
C      1  0.5163060000000  0.5183230000000  0.5427110000000 1.0
C      1  0.4308680000000  0.4944660000000  0.5814030000000 1.0
C      1  0.5614550000000  0.5430790000000  0.4746710000000 1.0
C      1  0.5915860000000  0.5248340000000  0.5457170000000 1.0
C      1  0.5019210000000  0.5486330000000  0.5368790000000 1.0
C      1  0.4418970000000  0.6086910000000  0.5006220000000 1.0
C      1  0.5017930000000  0.4358890000000  0.4818690000000 1.0
C      1  0.4849930000000  0.5131260000000  0.5305090000000 1.0
C      1  0.5494700000000  0.4994840000000  0.5768140000000 1.0
C      1  0.4942450000000  0.4934040000000  0.5832590000000 1.0
C      1  0.4473970000000  0.5428980000000  0.4776790000000 1.0
C      1  0.5426840000000  0.5643350000000  0.4381530000000 1.0
C      1  0.5442830000000  0.5108620000000  0.3964770000000 1.0
C      1  0.4812500000000  0.4938940000000  0.4747790000000 1.0
C      1  0.5514750000000  0.4968050000000  0.4181950000000 1.0
C      1  0.4645050000000  0.4698370000000  0.4623100000000 1.0
C      1  0.5275330000000  0.4833970000000  0.4377890000000 1.0
C      1  0.5508930000000  0.5860180000000  0.4958140000000 1.0
C      1  0.4545590000000  0.5269440000000  0.5275980000000 1.0
C      1  0.5323860000000  0.5548910000000  0.5230990000000 1.0
C      1  0.5076730000000  0.5764280000000  0.4603680000000 1.0
C      1  0.4790650000000  0.5520150000000  0.5695120000000 1.0
C      1  0.4386140000000  0.4815140000000  0.4914670000000 1.0
C      1  0.4586680000000  0.4589610000000  0.6014310000000 1.0
C      1  0.4665960000000  0.4132420000000  0.4822250000000 1.0
C      1  0.3933350000000  0.5408020000000  0.5397810000000 1.0
C      1  0.5528970000000  0.4805920000000  0.4591910000000 1.0
C      1  0.5488590000000  0.4269070000000  0.5469440000000 1.0
C      1  0.5641140000000  0.5430280000000  0.5230960000000 1.0
C      1  0.5065590000000  0.4347640000000  0.4190220000000 1.0
C      1  0.4233740000000  0.5655790000000  0.4857830000000 1.0
C      1  0.4764190000000  0.5517730000000  0.4905860000000 1.0
C      1  0.5253560000000  0.5302500000000  0.4006000000000 1.0
C      1  0.4640720000000  0.4969420000000  0.5000820000000 1.0
C      1  0.5424690000000  0.4330230000000  0.4578990000000 1.0
C      1  0.4207180000000  0.5900580000000  0.5047120000000 1.0
C      1  0.4376610000000  0.4660820000000  0.4414200000000 1.0
C      1  0.5230610000000  0.5197620000000  0.4537210000000 1.0
C      1  0.5771380000000  0.4656550000000  0.4438630000000 1.0
C      1  0.5300600000000  0.4502280000000  0.4358940000000 1.0
C      1  0.5144450000000  0.4901580000000  0.4684370000000 1.0
C      1  0.4130680000000  0.5316310000000  0.5578660000000 1.0
C      1  0.3953320000000  0.5345310000000  0.5120840000000 1.0
C      1  0.4128630000000  0.5121390000000  0.5078510000000 1.0
C      1  0.5505100000000  0.5738910000000  0.4157870000000 1.0
C      1  0.4298150000000  0.5235360000000  0.5833800000000 1.0
C      1  0.5511130000000  0.5143160000000  0.5101700000000 1.0
C      1  0.6019990000000  0.4547460000000  0.5282800000000 1.0
C      1  0.5588710000000  0.4880340000000  0.5495830000000 1.0
C      1  0.4011530000000  0.5928950000000  0.5235410000000 1.0
C      1  0.6028920000000  0.5181220000000  0.5001060000000 1.0
C      1  0.4989230000000  0.4403370000000  0.5310480000000 1.0
C      1  0.5970640000000  0.5356100000000  0.5190980000000 1.0
C      1  0.4611380000000  0.4339550000000  0.5864560000000 1.0
C      1  0.5371220000000  0.4400050000000  0.4045830000000 1.0
C      1  0.4841550000000  0.5784900000000  0.4777720000000 1.0
C      1  0.6077620000000  0.4757370000000  0.5437480000000 1.0
C      1  0.5344370000000  0.5901260000000  0.4731060000000 1.0
C      1  0.4956340000000  0.4926320000000  0.4303840000000 1.0
C      1  0.5566060000000  0.5306180000000  0.5783430000000 1.0
C      1  0.4364020000000  0.4530640000000  0.5059650000000 1.0
C      1  0.4363820000000  0.5101170000000  0.4032100000000 1.0
C      1  0.5294200000000  0.5510050000000  0.4664840000000 1.0
C      1  0.4914460000000  0.5231380000000  0.4656530000000 1.0
C      1  0.4971030000000  0.5725700000000  0.4315770000000 1.0
C      1  0.5875170000000  0.4432970000000  0.5000920000000 1.0
C      1  0.4818450000000  0.5185800000000  0.5639300000000 1.0
C      1  0.5162530000000  0.4701370000000  0.5259730000000 1.0
C      1  0.5569380000000  0.5192580000000  0.4508330000000 1.0
C      1  0.5821200000000  0.4922480000000  0.4983010000000 1.0
C      1  0.5074500000000  0.5267630000000  0.6006270000000 1.0
C      1  0.5388390000000  0.4345230000000  0.3777830000000 1.0
C      1  0.4069870000000  0.4601830000000  0.4800120000000 1.0
C      1  0.3990660000000  0.5472140000000  0.4861070000000 1.0
C      1  0.5314590000000  0.4404200000000  0.5258970000000 1.0
C      1  0.5188680000000  0.4642820000000  0.4865730000000 1.0
C      1  0.5584490000000  0.5033220000000  0.4808290000000 1.0
C      1  0.4805210000000  0.4400370000000  0.4261470000000 1.0
C      1  0.4774770000000  0.4831110000000  0.5272230000000 1.0
C      1  0.5660700000000  0.5622250000000  0.4956140000000 1.0
C      1  0.5373430000000  0.4581760000000  0.6046200000000 1.0
C      1  0.4418770000000  0.5203480000000  0.4997800000000 1.0
C      1  0.6088630000000  0.4982770000000  0.4775810000000 1.0
C      1  0.5613000000000  0.4417340000000  0.4784990000000 1.0
C      1  0.4795230000000  0.5224200000000  0.4336710000000 1.0
C      1  0.4833050000000  0.5385160000000  0.5990340000000 1.0
C      1  0.4755730000000  0.5509760000000  0.5223410000000 1.0
C      1  0.4755970000000  0.4705750000000  0.4313670000000 1.0
C      1  0.5664880000000  0.4468990000000  0.4202980000000 1.0
C      1  0.5333570000000  0.4199550000000  0.5679230000000 1.0
C      1  0.4939480000000  0.5240480000000  0.4995350000000 1.0
C      1  0.4536520000000  0.5370370000000  0.5868070000000 1.0
C      1  0.6069230000000  0.4974040000000  0.4508600000000 1.0
C      1  0.4248970000000  0.4352290000000  0.4800560000000 1.0
C      1  0.4882030000000  0.4631370000000  0.5851150000000 1.0
C      1  0.5062740000000  0.4234950000000  0.5710800000000 1.0
C      1  0.4487210000000  0.5280570000000  0.4471320000000 1.0
C      1  0.5116800000000  0.4489000000000  0.6013460000000 1.0
C      1  0.5456630000000  0.4562770000000  0.5027210000000 1.0
C      1  0.4835050000000  0.4290980000000  0.5068830000000 1.0
C      1  0.5030120000000  0.5715700000000  0.5606550000000 1.0
C      1  0.4679850000000  0.5071310000000  0.4055670000000 1.0
C      1  0.4180400000000  0.4673880000000  0.5290630000000 1.0
C      1  0.4536760000000  0.4374810000000  0.4416320000000 1.0
C      1  0.4638830000000  0.4163590000000  0.5465300000000 1.0
C      1  0.5174620000000  0.5451790000000  0.4970730000000 1.0
C      1  0.5335720000000  0.4953340000000  0.5292230000000 1.0
C      1  0.5202100000000  0.5123890000000  0.5722220000000 1.0
C      1  0.4625000000000  0.4687350000000  0.5483690000000 1.0
C      1  0.3988710000000  0.4668500000000  0.5068150000000 1.0
C      1  0.4481450000000  0.4808530000000  0.4142910000000 1.0
C      1  0.5683290000000  0.4745290000000  0.5198150000000 1.0
C      1  0.4957290000000  0.4162700000000  0.4544340000000 1.0
C      1  0.4800990000000  0.4417690000000  0.5593280000000 1.0
C      1  0.5912400000000  0.4479660000000  0.4665540000000 1.0
C      1  0.4912500000000  0.4679020000000  0.5033130000000 1.0
C      1  0.5419930000000  0.5952660000000  0.5212430000000 1.0
C      1  0.4196300000000  0.5124960000000  0.4553970000000 1.0
C      1  0.5112730000000  0.5282860000000  0.4229900000000 1.0
C      1  0.5231880000000  0.4151980000000  0.4681580000000 1.0
C      1  0.4460780000000  0.4236920000000  0.4654080000000 1.0
C      1  0.4340750000000  0.4814270000000  0.5509370000000 1.0
C      1  0.4607650000000  0.6005910000000  0.4831470000000 1.0
C      1  0.5225700000000  0.5823930000000  0.5397960000000 1.0
C      1  0.4381100000000  0.4772180000000  0.6020380000000 1.0
C      1  0.5155330000000  0.4985400000000  0.6092770000000 1.0
C      1  0.4814040000000  0.5547930000000  0.4234190000000 1.0
C      1  0.4348250000000  0.5134280000000  0.5453780000000 1.0
C      1  0.4285560000000  0.5295920000000  0.4209060000000 1.0
C      1  0.5788760000000  0.4985190000000  0.4351920000000 1.0
C      1  0.5690580000000  0.5406060000000  0.5569990000000 1.0
C      1  0.3994810000000  0.5292870000000  0.4636600000000 1.0
C      1  0.4659730000000  0.4526050000000  0.4896570000000 1.0
C      1  0.5711100000000  0.4422210000000  0.5300710000000 1.0
C      1  0.4502220000000  0.5748230000000  0.4662990000000 1.0
C      1  0.5894710000000  0.4967460000000  0.5474900000000 1.0
END
