TITL C-2622956-4641-561 1051.05069130068 125000 -480.375523969396 0 0 94 (C1) n - 1
REM
REM in /nfs/bkarasulu/CARBON/AIRSS/Generating-Clusters/AIREBO/with-SteepDescent/Higher-Symm/SD-CG/HFTN-CG
REM
REM
REM
REM
REM
REM ./C.cell (b20cbc046b6831c77cfcea5457e17084)
REM
REM compiler GCC version 9.2.1 20190827 (Red Hat 9.2.1-1)
REM options -cpp -mtune=generic -march=x86-64 -g -O0 -fpre-include=/usr/include/finclude/math-vector-fortran.h
REM seed -1598558759 1693453981 -1013435844 1185706601 413179281 1139874700 -2077398903 180200756 682085675 -762454470 -1664095193 704859155 641366366 -1138690718 -1424622733 -424910907 105498592 -2112355713 685324413 -1674386940 602641060 805939187 2114823769 1267236285 -949880570 -1381180210 -1278065072 -1086680439 -313995405 1234853582 -713532551 548921977 -1192723265
REM
CELL 1.54180   50.00000   50.00000   50.00000   90.00000   90.00000   90.00000
LATT -1
SFAC C  
C      1  0.5425990000000  0.4337110000000  0.5388450000000 1.0
C      1  0.5513770000000  0.4481490000000  0.4866120000000 1.0
C      1  0.5133180000000  0.4472730000000  0.4430870000000 1.0
C      1  0.4757540000000  0.4511150000000  0.4557120000000 1.0
C      1  0.4381560000000  0.4406640000000  0.4914280000000 1.0
C      1  0.4529740000000  0.4497370000000  0.5274050000000 1.0
C      1  0.5045030000000  0.4526170000000  0.5585120000000 1.0
C      1  0.5368940000000  0.5556570000000  0.5443280000000 1.0
C      1  0.5502580000000  0.5640930000000  0.4998520000000 1.0
C      1  0.5279570000000  0.5612060000000  0.4540780000000 1.0
C      1  0.4809820000000  0.5666180000000  0.4379990000000 1.0
C      1  0.4436430000000  0.5635960000000  0.4821200000000 1.0
C      1  0.4503810000000  0.5573870000000  0.5207570000000 1.0
C      1  0.4942010000000  0.5498260000000  0.5469620000000 1.0
C      1  0.4241160000000  0.5308720000000  0.5054940000000 1.0
C      1  0.4511720000000  0.5263790000000  0.5648160000000 1.0
C      1  0.5062860000000  0.5245590000000  0.5865420000000 1.0
C      1  0.5784100000000  0.5369450000000  0.5274240000000 1.0
C      1  0.5829420000000  0.5318750000000  0.4815750000000 1.0
C      1  0.5129330000000  0.5316870000000  0.4249110000000 1.0
C      1  0.4469070000000  0.5324130000000  0.4411370000000 1.0
C      1  0.4859720000000  0.5006270000000  0.4221090000000 1.0
C      1  0.4279430000000  0.5062870000000  0.4548070000000 1.0
C      1  0.4179650000000  0.5074880000000  0.5296810000000 1.0
C      1  0.4763320000000  0.5040620000000  0.5698100000000 1.0
C      1  0.5528640000000  0.5057450000000  0.5586620000000 1.0
C      1  0.5771420000000  0.4894540000000  0.5026590000000 1.0
C      1  0.5601170000000  0.5161830000000  0.4421870000000 1.0
C      1  0.4989520000000  0.4287260000000  0.4677030000000 1.0
C      1  0.4665140000000  0.4270450000000  0.4777780000000 1.0
C      1  0.4565550000000  0.4208420000000  0.5098350000000 1.0
C      1  0.4775130000000  0.4264300000000  0.5339790000000 1.0
C      1  0.5089750000000  0.4296070000000  0.5347630000000 1.0
C      1  0.5234600000000  0.4120440000000  0.5106890000000 1.0
C      1  0.5262630000000  0.4252110000000  0.4856020000000 1.0
C      1  0.4301180000000  0.4668960000000  0.4612890000000 1.0
C      1  0.4217540000000  0.4653570000000  0.5003710000000 1.0
C      1  0.4697850000000  0.4659330000000  0.5673630000000 1.0
C      1  0.5469330000000  0.4699940000000  0.5748800000000 1.0
C      1  0.5686930000000  0.4551830000000  0.5340130000000 1.0
C      1  0.5611710000000  0.4690060000000  0.4345670000000 1.0
C      1  0.5099900000000  0.4665420000000  0.4208230000000 1.0
C      1  0.5108920000000  0.4992120000000  0.5407100000000 1.0
C      1  0.5381250000000  0.4917910000000  0.5243310000000 1.0
C      1  0.5397040000000  0.5001260000000  0.4938070000000 1.0
C      1  0.5288730000000  0.5006460000000  0.4615690000000 1.0
C      1  0.4837420000000  0.5021520000000  0.4615380000000 1.0
C      1  0.4578090000000  0.4999780000000  0.4795120000000 1.0
C      1  0.4589280000000  0.4981480000000  0.5191300000000 1.0
C      1  0.5185470000000  0.4632130000000  0.4694960000000 1.0
C      1  0.4578520000000  0.4659830000000  0.4801450000000 1.0
C      1  0.4741050000000  0.4691710000000  0.5098570000000 1.0
C      1  0.4881220000000  0.4760190000000  0.5400680000000 1.0
C      1  0.5317450000000  0.4653870000000  0.5448010000000 1.0
C      1  0.5321420000000  0.4535460000000  0.5129260000000 1.0
C      1  0.5503290000000  0.4744960000000  0.4651340000000 1.0
C      1  0.5683700000000  0.5066680000000  0.5283220000000 1.0
C      1  0.5670910000000  0.5030010000000  0.4731190000000 1.0
C      1  0.5191900000000  0.4983870000000  0.4290480000000 1.0
C      1  0.4581850000000  0.5003560000000  0.4412830000000 1.0
C      1  0.4310060000000  0.4980750000000  0.4997200000000 1.0
C      1  0.4507490000000  0.4957500000000  0.5490150000000 1.0
C      1  0.5219350000000  0.5040010000000  0.5710500000000 1.0
C      1  0.5316320000000  0.5308810000000  0.4880460000000 1.0
C      1  0.5138070000000  0.5310120000000  0.4588980000000 1.0
C      1  0.4841140000000  0.5324320000000  0.4742720000000 1.0
C      1  0.4678870000000  0.5439470000000  0.4956330000000 1.0
C      1  0.4720740000000  0.5240460000000  0.5179270000000 1.0
C      1  0.5027160000000  0.5256610000000  0.5262750000000 1.0
C      1  0.5261260000000  0.5468200000000  0.5151100000000 1.0
C      1  0.4780190000000  0.5740870000000  0.5314040000000 1.0
C      1  0.5115970000000  0.5770710000000  0.5365230000000 1.0
C      1  0.5276770000000  0.5866240000000  0.5119190000000 1.0
C      1  0.5299610000000  0.5817790000000  0.4790860000000 1.0
C      1  0.5031660000000  0.5831660000000  0.4582600000000 1.0
C      1  0.4738160000000  0.5740070000000  0.4704040000000 1.0
C      1  0.4640990000000  0.5830660000000  0.5017120000000 1.0
C      1  0.4989010000000  0.4799600000000  0.5779570000000 1.0
C      1  0.5690290000000  0.4761560000000  0.5539960000000 1.0
C      1  0.5722070000000  0.4619490000000  0.5072360000000 1.0
C      1  0.5525530000000  0.4941220000000  0.4240730000000 1.0
C      1  0.4801480000000  0.4685020000000  0.4316360000000 1.0
C      1  0.4104730000000  0.4868230000000  0.4750520000000 1.0
C      1  0.4296100000000  0.4746780000000  0.5321240000000 1.0
C      1  0.5754830000000  0.5485420000000  0.5021730000000 1.0
C      1  0.5449010000000  0.5395330000000  0.4355110000000 1.0
C      1  0.4802970000000  0.5327260000000  0.4344800000000 1.0
C      1  0.4369850000000  0.5315140000000  0.4740080000000 1.0
C      1  0.4352380000000  0.5355340000000  0.5381320000000 1.0
C      1  0.4830610000000  0.5370100000000  0.5708750000000 1.0
C      1  0.5583470000000  0.5381860000000  0.5504820000000 1.0
C      1  0.5050710000000  0.4592280000000  0.5000730000000 1.0
C      1  0.4994230000000  0.4864710000000  0.4842330000000 1.0
C      1  0.5029560000000  0.5151970000000  0.4939460000000 1.0
END
