TITL C-2622954-8726-426 0.00236719311771351 125000 -827.028336871357 0 0 143 (C1) n - 1
REM
REM in /nfs/bkarasulu/CARBON/AIRSS/Generating-Clusters/AIREBO/with-SteepDescent/Higher-Symm/SD-CG/HFTN-CG
REM
REM
REM
REM
REM
REM ./C.cell (b20cbc046b6831c77cfcea5457e17084)
REM
REM compiler GCC version 9.2.1 20190827 (Red Hat 9.2.1-1)
REM options -cpp -mtune=generic -march=x86-64 -g -O0 -fpre-include=/usr/include/finclude/math-vector-fortran.h
REM seed -1481592307 2004012148 -1739684140 166032839 -1315668458 -1011769944 1169929504 1482167077 -623461430 -1786594548 1835561855 -66968199 1870772796 -2074748572 323757204 -953036694 1326224975 -991506521 -1618092264 51137491 -1760611602 -865236830 1596793691 1357910405 1743816144 -418216748 -756509250 1184391590 373642439 343815969 440146548 1784883169 -746354509
REM
CELL 1.54180   50.00000   50.00000   50.00000   90.00000   90.00000   90.00000
LATT -1
SFAC C  
C      1  0.4632800000000  0.5691500000000  0.4519160000000 1.0
C      1  0.5480840000000  0.5566760000000  0.4505280000000 1.0
C      1  0.5834610000000  0.4578400000000  0.4437310000000 1.0
C      1  0.4928330000000  0.4214380000000  0.4519370000000 1.0
C      1  0.4240930000000  0.4839250000000  0.4541210000000 1.0
C      1  0.4593610000000  0.4382400000000  0.5577990000000 1.0
C      1  0.5606400000000  0.4357770000000  0.5518960000000 1.0
C      1  0.5756670000000  0.5341940000000  0.5476420000000 1.0
C      1  0.4843600000000  0.5828060000000  0.5692340000000 1.0
C      1  0.4168640000000  0.5110820000000  0.5712970000000 1.0
C      1  0.5543590000000  0.5809430000000  0.5259180000000 1.0
C      1  0.5933800000000  0.4810110000000  0.5286320000000 1.0
C      1  0.5059780000000  0.4089480000000  0.5353600000000 1.0
C      1  0.4051700000000  0.4521880000000  0.5300910000000 1.0
C      1  0.4369110000000  0.5768930000000  0.5121110000000 1.0
C      1  0.5465690000000  0.4059140000000  0.4781140000000 1.0
C      1  0.5953740000000  0.5278840000000  0.4738060000000 1.0
C      1  0.5072220000000  0.5961030000000  0.4740550000000 1.0
C      1  0.4154220000000  0.5368700000000  0.4680070000000 1.0
C      1  0.4342600000000  0.4269020000000  0.4657680000000 1.0
C      1  0.5355150000000  0.4836970000000  0.4857680000000 1.0
C      1  0.5038010000000  0.4595730000000  0.4869810000000 1.0
C      1  0.4728550000000  0.4847930000000  0.4884880000000 1.0
C      1  0.4763790000000  0.5304370000000  0.4846830000000 1.0
C      1  0.5177800000000  0.5218070000000  0.4817460000000 1.0
C      1  0.5311440000000  0.5082750000000  0.5090080000000 1.0
C      1  0.4824990000000  0.5426850000000  0.5140190000000 1.0
C      1  0.4624510000000  0.5090730000000  0.5073300000000 1.0
C      1  0.4850500000000  0.4648590000000  0.5132150000000 1.0
C      1  0.5247600000000  0.4693880000000  0.5146960000000 1.0
C      1  0.4116950000000  0.4256140000000  0.4834540000000 1.0
C      1  0.4044880000000  0.5593290000000  0.4814290000000 1.0
C      1  0.5268120000000  0.6080100000000  0.4907490000000 1.0
C      1  0.6122520000000  0.5161000000000  0.4928260000000 1.0
C      1  0.5338310000000  0.3895330000000  0.4957680000000 1.0
C      1  0.4115590000000  0.5776970000000  0.5011040000000 1.0
C      1  0.4018120000000  0.4392480000000  0.5056190000000 1.0
C      1  0.5202010000000  0.3906450000000  0.5196300000000 1.0
C      1  0.6097610000000  0.4950780000000  0.5104360000000 1.0
C      1  0.5477360000000  0.6013840000000  0.5074640000000 1.0
C      1  0.5510190000000  0.5019780000000  0.5798430000000 1.0
C      1  0.5285120000000  0.4543380000000  0.5871740000000 1.0
C      1  0.4572330000000  0.4672430000000  0.5849080000000 1.0
C      1  0.4502380000000  0.5323040000000  0.5758510000000 1.0
C      1  0.5233730000000  0.5500310000000  0.5800860000000 1.0
C      1  0.5646820000000  0.5005420000000  0.4201080000000 1.0
C      1  0.5157230000000  0.5516770000000  0.4131220000000 1.0
C      1  0.4617570000000  0.5334500000000  0.4120650000000 1.0
C      1  0.4507670000000  0.4700120000000  0.4152790000000 1.0
C      1  0.5171800000000  0.4626860000000  0.4261710000000 1.0
C      1  0.4195100000000  0.5103670000000  0.5303130000000 1.0
C      1  0.4850760000000  0.5734400000000  0.5387210000000 1.0
C      1  0.5600940000000  0.5318400000000  0.5230240000000 1.0
C      1  0.5543780000000  0.4454670000000  0.5261180000000 1.0
C      1  0.4599230000000  0.4390170000000  0.5305400000000 1.0
C      1  0.4306020000000  0.4893120000000  0.4800230000000 1.0
C      1  0.4823790000000  0.4269070000000  0.4786530000000 1.0
C      1  0.5616060000000  0.4600040000000  0.4673260000000 1.0
C      1  0.5475380000000  0.5477390000000  0.4761120000000 1.0
C      1  0.4668890000000  0.5686320000000  0.4793870000000 1.0
C      1  0.5654210000000  0.4923270000000  0.4780950000000 1.0
C      1  0.5158830000000  0.4308110000000  0.4831450000000 1.0
C      1  0.4481940000000  0.4646050000000  0.4915890000000 1.0
C      1  0.4483900000000  0.5436110000000  0.4931620000000 1.0
C      1  0.5165940000000  0.5513610000000  0.4897290000000 1.0
C      1  0.5621920000000  0.5003200000000  0.5104230000000 1.0
C      1  0.5106520000000  0.5591190000000  0.5214650000000 1.0
C      1  0.4404250000000  0.5279420000000  0.5222680000000 1.0
C      1  0.4429650000000  0.4581980000000  0.5193970000000 1.0
C      1  0.5233930000000  0.4379820000000  0.5142840000000 1.0
C      1  0.5582430000000  0.4939930000000  0.3938950000000 1.0
C      1  0.5140380000000  0.4755750000000  0.3981190000000 1.0
C      1  0.4596960000000  0.4752370000000  0.3907370000000 1.0
C      1  0.4670770000000  0.5275030000000  0.3791150000000 1.0
C      1  0.5293260000000  0.5430210000000  0.3844050000000 1.0
C      1  0.5475870000000  0.5105260000000  0.6091350000000 1.0
C      1  0.5180110000000  0.5365530000000  0.6027180000000 1.0
C      1  0.4628230000000  0.5292470000000  0.5999140000000 1.0
C      1  0.4613920000000  0.4769340000000  0.6096680000000 1.0
C      1  0.5248030000000  0.4610480000000  0.6169930000000 1.0
C      1  0.5929080000000  0.4817260000000  0.5570110000000 1.0
C      1  0.5068970000000  0.4155680000000  0.5627230000000 1.0
C      1  0.4082670000000  0.4544760000000  0.5602040000000 1.0
C      1  0.4377420000000  0.5793010000000  0.5731620000000 1.0
C      1  0.5604460000000  0.5780450000000  0.5537830000000 1.0
C      1  0.5845860000000  0.5349000000000  0.4465690000000 1.0
C      1  0.5038760000000  0.5943790000000  0.4458690000000 1.0
C      1  0.4203320000000  0.5319090000000  0.4404210000000 1.0
C      1  0.4402700000000  0.4278640000000  0.4378960000000 1.0
C      1  0.5406850000000  0.4186140000000  0.4158630000000 1.0
C      1  0.5581760000000  0.4807650000000  0.4406180000000 1.0
C      1  0.4883390000000  0.4474110000000  0.4357050000000 1.0
C      1  0.4471860000000  0.4917180000000  0.4353270000000 1.0
C      1  0.4789970000000  0.5460880000000  0.4353230000000 1.0
C      1  0.5335010000000  0.5359930000000  0.4319670000000 1.0
C      1  0.5454980000000  0.5236890000000  0.5592850000000 1.0
C      1  0.5009320000000  0.5538580000000  0.5615490000000 1.0
C      1  0.4474190000000  0.5055990000000  0.5585610000000 1.0
C      1  0.4820700000000  0.4580310000000  0.5678470000000 1.0
C      1  0.5577480000000  0.4525540000000  0.5743460000000 1.0
C      1  0.4652220000000  0.5065110000000  0.6237010000000 1.0
C      1  0.4908240000000  0.5272350000000  0.6184110000000 1.0
C      1  0.5184140000000  0.5087630000000  0.6224100000000 1.0
C      1  0.5100850000000  0.4807370000000  0.6281680000000 1.0
C      1  0.4828110000000  0.4788240000000  0.6324000000000 1.0
C      1  0.4728080000000  0.4959310000000  0.3697400000000 1.0
C      1  0.4902290000000  0.4718640000000  0.3852140000000 1.0
C      1  0.5314160000000  0.4940010000000  0.3858510000000 1.0
C      1  0.5207850000000  0.5179320000000  0.3740280000000 1.0
C      1  0.4954930000000  0.5179360000000  0.3626620000000 1.0
C      1  0.4292720000000  0.5164760000000  0.4857330000000 1.0
C      1  0.4941930000000  0.5735170000000  0.4860370000000 1.0
C      1  0.5652620000000  0.5262680000000  0.4804740000000 1.0
C      1  0.5417500000000  0.4354710000000  0.4633100000000 1.0
C      1  0.4565980000000  0.4380280000000  0.4791480000000 1.0
C      1  0.4245950000000  0.4797920000000  0.5347150000000 1.0
C      1  0.4903960000000  0.4319800000000  0.5200300000000 1.0
C      1  0.5679490000000  0.4682810000000  0.5180920000000 1.0
C      1  0.5440810000000  0.5550330000000  0.5179370000000 1.0
C      1  0.4561590000000  0.5570860000000  0.5299980000000 1.0
C      1  0.4466870000000  0.5559370000000  0.5618490000000 1.0
C      1  0.5493750000000  0.5563690000000  0.5678320000000 1.0
C      1  0.5699960000000  0.4776000000000  0.5728370000000 1.0
C      1  0.5055770000000  0.4397550000000  0.5748050000000 1.0
C      1  0.4341290000000  0.4754630000000  0.5670620000000 1.0
C      1  0.4590820000000  0.4461230000000  0.4265500000000 1.0
C      1  0.5339030000000  0.4365290000000  0.4335800000000 1.0
C      1  0.5638870000000  0.5267010000000  0.4293540000000 1.0
C      1  0.4997100000000  0.5726870000000  0.4308290000000 1.0
C      1  0.4394060000000  0.5195130000000  0.4254720000000 1.0
C      1  0.4714860000000  0.5052890000000  0.5395470000000 1.0
C      1  0.4951390000000  0.5287520000000  0.5423420000000 1.0
C      1  0.5222970000000  0.5144960000000  0.5389780000000 1.0
C      1  0.5179910000000  0.4832230000000  0.5411070000000 1.0
C      1  0.4874970000000  0.4781540000000  0.5426630000000 1.0
C      1  0.4718070000000  0.4937490000000  0.4556930000000 1.0
C      1  0.4950890000000  0.4710700000000  0.4582570000000 1.0
C      1  0.5265400000000  0.4828610000000  0.4529390000000 1.0
C      1  0.5182610000000  0.5156890000000  0.4495650000000 1.0
C      1  0.4867920000000  0.5232720000000  0.4559380000000 1.0
C      1  0.4921580000000  0.5387570000000  0.3976880000000 1.0
C      1  0.5300940000000  0.4807470000000  0.5695350000000 1.0
C      1  0.4997540000000  0.4988680000000  0.4864630000000 1.0
END
