TITL C-2622957-9142-360 0.000863973429928856 125000 -839.061033271234 0 0 161 (C1) n - 1
REM
REM in /nfs/bkarasulu/CARBON/AIRSS/Generating-Clusters/AIREBO/with-SteepDescent/Higher-Symm/SD-CG/HFTN-CG
REM
REM
REM
REM
REM
REM ./C.cell (b20cbc046b6831c77cfcea5457e17084)
REM
REM compiler GCC version 9.2.1 20190827 (Red Hat 9.2.1-1)
REM options -cpp -mtune=generic -march=x86-64 -g -O0 -fpre-include=/usr/include/finclude/math-vector-fortran.h
REM seed 875734333 -1724776340 -1170885051 797798699 -1640794813 -963215057 397773928 2145715367 453104245 -1149441720 443270007 -1992174049 -486475545 321422677 1132174680 -1238661616 1281543931 -280808747 -2074790461 961929910 -2022698084 -578025384 35367118 1889848546 1986038230 -1448387979 -366278089 -1874617211 1031458689 -814816702 300309430 1494107292 -1684028546
REM
CELL 1.54180   50.00000   50.00000   50.00000   90.00000   90.00000   90.00000
LATT -1
SFAC C  
C      1  0.4315360000000  0.4892240000000  0.4905980000000 1.0
C      1  0.4898240000000  0.4950170000000  0.4179920000000 1.0
C      1  0.4945280000000  0.4305210000000  0.4836050000000 1.0
C      1  0.5809820000000  0.5129080000000  0.4843390000000 1.0
C      1  0.4250940000000  0.5169150000000  0.5096030000000 1.0
C      1  0.5788380000000  0.4851300000000  0.5162620000000 1.0
C      1  0.5187130000000  0.5079520000000  0.4185880000000 1.0
C      1  0.4875360000000  0.5084910000000  0.5702320000000 1.0
C      1  0.5174680000000  0.4925170000000  0.5724880000000 1.0
C      1  0.5138850000000  0.5779940000000  0.4921000000000 1.0
C      1  0.4932980000000  0.5765200000000  0.5177910000000 1.0
C      1  0.5062460000000  0.4227410000000  0.5146530000000 1.0
C      1  0.4727920000000  0.5154110000000  0.4058520000000 1.0
C      1  0.5218380000000  0.4119240000000  0.4741220000000 1.0
C      1  0.4055000000000  0.4822140000000  0.5113400000000 1.0
C      1  0.5240840000000  0.4870440000000  0.3949490000000 1.0
C      1  0.4763200000000  0.4883450000000  0.5944360000000 1.0
C      1  0.5204410000000  0.5179560000000  0.5933290000000 1.0
C      1  0.4895420000000  0.5952030000000  0.4785350000000 1.0
C      1  0.5014960000000  0.5960220000000  0.5357850000000 1.0
C      1  0.4821680000000  0.4072800000000  0.5330640000000 1.0
C      1  0.5984870000000  0.5198800000000  0.5126850000000 1.0
C      1  0.4050520000000  0.5236970000000  0.4835960000000 1.0
C      1  0.5958220000000  0.4767680000000  0.4928660000000 1.0
C      1  0.5509790000000  0.5002210000000  0.3963030000000 1.0
C      1  0.4817620000000  0.4088420000000  0.5604870000000 1.0
C      1  0.4182150000000  0.5527150000000  0.4911140000000 1.0
C      1  0.4420270000000  0.5077510000000  0.4106870000000 1.0
C      1  0.5506060000000  0.5119290000000  0.5830440000000 1.0
C      1  0.4494720000000  0.4960770000000  0.5996450000000 1.0
C      1  0.5012690000000  0.5902000000000  0.5647830000000 1.0
C      1  0.5013300000000  0.5848770000000  0.4482760000000 1.0
C      1  0.5069640000000  0.4375650000000  0.4408950000000 1.0
C      1  0.5831760000000  0.4476430000000  0.5035030000000 1.0
C      1  0.4142080000000  0.4491500000000  0.5108500000000 1.0
C      1  0.5784900000000  0.5458360000000  0.5035960000000 1.0
C      1  0.4314860000000  0.4349970000000  0.4778590000000 1.0
C      1  0.4313790000000  0.4678620000000  0.4368580000000 1.0
C      1  0.4801390000000  0.4419280000000  0.4296060000000 1.0
C      1  0.5607400000000  0.5607760000000  0.4711360000000 1.0
C      1  0.4365300000000  0.5706350000000  0.5295060000000 1.0
C      1  0.5632100000000  0.4290810000000  0.5327220000000 1.0
C      1  0.5719080000000  0.5277640000000  0.4308740000000 1.0
C      1  0.4304750000000  0.5284060000000  0.5642260000000 1.0
C      1  0.5682680000000  0.4777640000000  0.5729490000000 1.0
C      1  0.5203940000000  0.5598810000000  0.4353060000000 1.0
C      1  0.4646770000000  0.5620550000000  0.5738590000000 1.0
C      1  0.5345040000000  0.4399810000000  0.5742410000000 1.0
C      1  0.5231540000000  0.5441110000000  0.4070500000000 1.0
C      1  0.5655560000000  0.4044250000000  0.5188470000000 1.0
C      1  0.4058860000000  0.5322920000000  0.5410540000000 1.0
C      1  0.4742600000000  0.4600960000000  0.4026270000000 1.0
C      1  0.5239510000000  0.4598780000000  0.5944280000000 1.0
C      1  0.4655680000000  0.5433460000000  0.5994420000000 1.0
C      1  0.4583830000000  0.5944560000000  0.5294410000000 1.0
C      1  0.5492400000000  0.5916490000000  0.4795570000000 1.0
C      1  0.4411510000000  0.4124810000000  0.4904280000000 1.0
C      1  0.5888170000000  0.4777110000000  0.5539380000000 1.0
C      1  0.4064640000000  0.4754380000000  0.4566300000000 1.0
C      1  0.5973380000000  0.5249810000000  0.4505850000000 1.0
C      1  0.4398460000000  0.4834630000000  0.5376090000000 1.0
C      1  0.4770430000000  0.5281160000000  0.4433350000000 1.0
C      1  0.5403980000000  0.4366660000000  0.4864600000000 1.0
C      1  0.5634460000000  0.5100880000000  0.5274300000000 1.0
C      1  0.4431640000000  0.5166190000000  0.4741330000000 1.0
C      1  0.5673780000000  0.4756420000000  0.4649020000000 1.0
C      1  0.5317980000000  0.4671820000000  0.4310550000000 1.0
C      1  0.4793060000000  0.4614460000000  0.5609020000000 1.0
C      1  0.5080340000000  0.5329910000000  0.5585690000000 1.0
C      1  0.4722700000000  0.5600820000000  0.4789710000000 1.0
C      1  0.5308730000000  0.5529950000000  0.5192210000000 1.0
C      1  0.4718350000000  0.4421480000000  0.5187420000000 1.0
C      1  0.4141850000000  0.5549360000000  0.5220290000000 1.0
C      1  0.5524090000000  0.5267950000000  0.4083270000000 1.0
C      1  0.5783340000000  0.3817630000000  0.5270270000000 1.0
C      1  0.5878660000000  0.4521300000000  0.5368830000000 1.0
C      1  0.4056410000000  0.4555260000000  0.4785240000000 1.0
C      1  0.5921880000000  0.5485630000000  0.4725220000000 1.0
C      1  0.4456060000000  0.4749970000000  0.4133080000000 1.0
C      1  0.5466850000000  0.4810360000000  0.5967500000000 1.0
C      1  0.4443420000000  0.5236470000000  0.5950360000000 1.0
C      1  0.4714320000000  0.5846180000000  0.5592880000000 1.0
C      1  0.5283600000000  0.6004560000000  0.4619830000000 1.0
C      1  0.4381060000000  0.3867980000000  0.4814370000000 1.0
C      1  0.4577650000000  0.5018850000000  0.4402520000000 1.0
C      1  0.5155790000000  0.4511860000000  0.4708380000000 1.0
C      1  0.4416820000000  0.4663290000000  0.5111100000000 1.0
C      1  0.5265680000000  0.4953730000000  0.4473310000000 1.0
C      1  0.4775940000000  0.4894550000000  0.5486040000000 1.0
C      1  0.5305110000000  0.4992140000000  0.5441750000000 1.0
C      1  0.4995000000000  0.5501240000000  0.4679040000000 1.0
C      1  0.5088980000000  0.5320200000000  0.5080160000000 1.0
C      1  0.4981880000000  0.4475790000000  0.5364410000000 1.0
C      1  0.5485930000000  0.5296290000000  0.5042380000000 1.0
C      1  0.4583610000000  0.5214150000000  0.5041720000000 1.0
C      1  0.5545490000000  0.4632630000000  0.4938570000000 1.0
C      1  0.4314930000000  0.4789340000000  0.5873080000000 1.0
C      1  0.4484490000000  0.5813920000000  0.4452390000000 1.0
C      1  0.5822250000000  0.4304450000000  0.4564380000000 1.0
C      1  0.5493380000000  0.5516750000000  0.5790200000000 1.0
C      1  0.4471110000000  0.5536680000000  0.4270420000000 1.0
C      1  0.5765830000000  0.4604270000000  0.4145360000000 1.0
C      1  0.5379010000000  0.4267420000000  0.4478850000000 1.0
C      1  0.4465170000000  0.4277190000000  0.5607400000000 1.0
C      1  0.5417770000000  0.5796390000000  0.5626120000000 1.0
C      1  0.4207320000000  0.5530090000000  0.4572000000000 1.0
C      1  0.5720420000000  0.5522880000000  0.5347500000000 1.0
C      1  0.4165020000000  0.4518600000000  0.5504110000000 1.0
C      1  0.5964660000000  0.4935540000000  0.4636360000000 1.0
C      1  0.4902120000000  0.4573700000000  0.5910350000000 1.0
C      1  0.4614920000000  0.5874030000000  0.4961240000000 1.0
C      1  0.4145320000000  0.5073450000000  0.4582860000000 1.0
C      1  0.5911470000000  0.5103790000000  0.5445930000000 1.0
C      1  0.4094830000000  0.4984490000000  0.5409780000000 1.0
C      1  0.4981800000000  0.5415220000000  0.5899770000000 1.0
C      1  0.4899860000000  0.5430830000000  0.4156490000000 1.0
C      1  0.5081870000000  0.4613390000000  0.4072800000000 1.0
C      1  0.5518190000000  0.4065760000000  0.4906240000000 1.0
C      1  0.4527280000000  0.4172490000000  0.5186750000000 1.0
C      1  0.5418150000000  0.5839180000000  0.5101940000000 1.0
C      1  0.4447140000000  0.5318170000000  0.5335260000000 1.0
C      1  0.5317560000000  0.5286190000000  0.4423920000000 1.0
C      1  0.5314580000000  0.4399890000000  0.5296550000000 1.0
C      1  0.5521750000000  0.4668730000000  0.5276040000000 1.0
C      1  0.4428900000000  0.4655990000000  0.4686120000000 1.0
C      1  0.5595200000000  0.5278660000000  0.4625520000000 1.0
C      1  0.4754510000000  0.4728280000000  0.4396100000000 1.0
C      1  0.5395000000000  0.4699730000000  0.5590180000000 1.0
C      1  0.4642290000000  0.5316110000000  0.5615430000000 1.0
C      1  0.4669030000000  0.5564300000000  0.5254270000000 1.0
C      1  0.5282240000000  0.5607510000000  0.4664980000000 1.0
C      1  0.4744210000000  0.4528410000000  0.4672180000000 1.0
C      1  0.4250190000000  0.4264810000000  0.5339190000000 1.0
C      1  0.4273200000000  0.5269610000000  0.4346180000000 1.0
C      1  0.5297390000000  0.4364980000000  0.4159120000000 1.0
C      1  0.5579670000000  0.5766960000000  0.5363810000000 1.0
C      1  0.4365750000000  0.5770830000000  0.4752640000000 1.0
C      1  0.5784170000000  0.4247290000000  0.4832570000000 1.0
C      1  0.5725200000000  0.4820180000000  0.3983120000000 1.0
C      1  0.4095970000000  0.4769050000000  0.5656870000000 1.0
C      1  0.5689440000000  0.5303920000000  0.5610790000000 1.0
C      1  0.4766600000000  0.5714080000000  0.4290740000000 1.0
C      1  0.5177840000000  0.5667480000000  0.5829660000000 1.0
C      1  0.4730060000000  0.4289510000000  0.5820610000000 1.0
C      1  0.4702810000000  0.4624370000000  0.4972950000000 1.0
C      1  0.4692680000000  0.4949930000000  0.4714980000000 1.0
C      1  0.5017160000000  0.4889280000000  0.4638460000000 1.0
C      1  0.5247520000000  0.5223010000000  0.4810580000000 1.0
C      1  0.4817860000000  0.5415230000000  0.5023050000000 1.0
C      1  0.5224710000000  0.4746310000000  0.4944900000000 1.0
C      1  0.5466320000000  0.4978710000000  0.4720690000000 1.0
C      1  0.4660200000000  0.4962140000000  0.5200490000000 1.0
C      1  0.5356310000000  0.4989550000000  0.5111610000000 1.0
C      1  0.4989210000000  0.5202040000000  0.4632430000000 1.0
C      1  0.5043670000000  0.5131260000000  0.5312090000000 1.0
C      1  0.5009820000000  0.4794460000000  0.5276770000000 1.0
C      1  0.4464010000000  0.4616980000000  0.5621990000000 1.0
C      1  0.4535500000000  0.5442570000000  0.4590840000000 1.0
C      1  0.5601360000000  0.4517560000000  0.4418100000000 1.0
C      1  0.5314610000000  0.5499660000000  0.5495900000000 1.0
C      1  0.4916400000000  0.4888790000000  0.4963740000000 1.0
END
