TITL C-2622953-3516-100 -0.000829962135158575 125000 -254.693318757038 0 0 44 (C1) n - 1
REM
REM in /nfs/bkarasulu/CARBON/AIRSS/Generating-Clusters/AIREBO/with-SteepDescent/Higher-Symm/SD-CG/HFTN-CG
REM
REM
REM
REM
REM
REM ./C.cell (b20cbc046b6831c77cfcea5457e17084)
REM
REM compiler GCC version 9.2.1 20190827 (Red Hat 9.2.1-1)
REM options -cpp -mtune=generic -march=x86-64 -g -O0 -fpre-include=/usr/include/finclude/math-vector-fortran.h
REM seed -448497059 -1637416797 185652131 -1658912592 -1266483260 1267134996 -662087811 568115396 20025960 59033509 -824105859 -205755388 -1649118525 576931427 599952466 -235755925 1036989377 -750676694 455184813 263072881 1355383626 1631640991 2108620916 728704858 -254964694 667074011 -1941897651 1925626020 1587885844 -1821167208 229518948 -687736828 2119705356
REM
CELL 1.54180   50.00000   50.00000   50.00000   90.00000   90.00000   90.00000
LATT -1
SFAC C  
C      1  0.4724620000000  0.5135260000000  0.4589030000000 1.0
C      1  0.5208310000000  0.4508130000000  0.4798910000000 1.0
C      1  0.4485680000000  0.4777410000000  0.5190460000000 1.0
C      1  0.4689530000000  0.4863940000000  0.5432400000000 1.0
C      1  0.5214500000000  0.5132230000000  0.5532410000000 1.0
C      1  0.5308430000000  0.4824790000000  0.4392120000000 1.0
C      1  0.5146990000000  0.5533200000000  0.5252690000000 1.0
C      1  0.4873750000000  0.4421940000000  0.5257940000000 1.0
C      1  0.4866290000000  0.5597880000000  0.4765100000000 1.0
C      1  0.4478090000000  0.5228670000000  0.4794150000000 1.0
C      1  0.5490040000000  0.4680600000000  0.4850680000000 1.0
C      1  0.5507840000000  0.5248400000000  0.5172470000000 1.0
C      1  0.5223980000000  0.5122730000000  0.4470920000000 1.0
C      1  0.4886960000000  0.4560760000000  0.4747730000000 1.0
C      1  0.5609520000000  0.4734920000000  0.5142680000000 1.0
C      1  0.5213960000000  0.4800110000000  0.5482480000000 1.0
C      1  0.4709730000000  0.5174030000000  0.5520170000000 1.0
C      1  0.4792630000000  0.4812510000000  0.4546910000000 1.0
C      1  0.4860810000000  0.5561740000000  0.5247660000000 1.0
C      1  0.5178010000000  0.4491750000000  0.5347510000000 1.0
C      1  0.5150290000000  0.5534390000000  0.4766840000000 1.0
C      1  0.5487310000000  0.5204040000000  0.4867940000000 1.0
C      1  0.4390150000000  0.4732100000000  0.4880190000000 1.0
C      1  0.4487210000000  0.5293180000000  0.5122320000000 1.0
C      1  0.4937690000000  0.5132490000000  0.4360600000000 1.0
C      1  0.5205260000000  0.4317320000000  0.5067760000000 1.0
C      1  0.4322390000000  0.5046020000000  0.5112450000000 1.0
C      1  0.4938520000000  0.4871200000000  0.5633900000000 1.0
C      1  0.4959800000000  0.5189420000000  0.5699500000000 1.0
C      1  0.5013420000000  0.4829710000000  0.4302010000000 1.0
C      1  0.5259270000000  0.5646240000000  0.5011230000000 1.0
C      1  0.4894980000000  0.4333480000000  0.4970480000000 1.0
C      1  0.4786690000000  0.5715130000000  0.5015520000000 1.0
C      1  0.4246790000000  0.4993090000000  0.4806940000000 1.0
C      1  0.5655330000000  0.4955370000000  0.4815590000000 1.0
C      1  0.5718170000000  0.5021470000000  0.5137140000000 1.0
C      1  0.4667710000000  0.5452400000000  0.4638300000000 1.0
C      1  0.5395210000000  0.4611030000000  0.4544350000000 1.0
C      1  0.4643670000000  0.4544070000000  0.5360860000000 1.0
C      1  0.5476270000000  0.4647630000000  0.5370250000000 1.0
C      1  0.5291060000000  0.5296560000000  0.4684430000000 1.0
C      1  0.4673440000000  0.5359650000000  0.5315230000000 1.0
C      1  0.5300950000000  0.5316630000000  0.5345730000000 1.0
C      1  0.4566310000000  0.4623580000000  0.4696370000000 1.0
END
