TITL C-2622966-9038-281 0.00215661769344904 125000 -751.96454134145 0 0 138 (C1) n - 1
REM
REM in /nfs/bkarasulu/CARBON/AIRSS/Generating-Clusters/AIREBO/with-SteepDescent/Higher-Symm/SD-CG/HFTN-CG
REM
REM
REM
REM
REM
REM ./C.cell (b20cbc046b6831c77cfcea5457e17084)
REM
REM compiler GCC version 9.2.1 20190827 (Red Hat 9.2.1-1)
REM options -cpp -mtune=generic -march=x86-64 -g -O0 -fpre-include=/usr/include/finclude/math-vector-fortran.h
REM seed -125080474 882057397 1832859383 517590981 -804826670 1664404669 -728387396 1084588468 -502313836 1097394824 -1521917657 1443161459 1664906618 1508693403 2118044252 -2028087439 -1115804538 1111047903 1438286118 -1859837056 -1785279088 507408576 987874036 -2020368754 1819849402 -1687799377 1534309026 2090431118 1045208122 1081082720 -603010614 316911901 -705928818
REM
CELL 1.54180   50.00000   50.00000   50.00000   90.00000   90.00000   90.00000
LATT -1
SFAC C  
C      1  0.4761510000000  0.4748450000000  0.4093380000000 1.0
C      1  0.4802070000000  0.4171480000000  0.5319950000000 1.0
C      1  0.4861850000000  0.5359320000000  0.5873840000000 1.0
C      1  0.4719810000000  0.5985120000000  0.4711670000000 1.0
C      1  0.5256980000000  0.4745570000000  0.5909470000000 1.0
C      1  0.5189740000000  0.4125340000000  0.4609440000000 1.0
C      1  0.5261360000000  0.5084620000000  0.4038720000000 1.0
C      1  0.5287680000000  0.5976160000000  0.5296480000000 1.0
C      1  0.5337770000000  0.4249870000000  0.4382840000000 1.0
C      1  0.5317330000000  0.4463130000000  0.5809800000000 1.0
C      1  0.5356360000000  0.5794540000000  0.5550660000000 1.0
C      1  0.5373480000000  0.5539610000000  0.4323540000000 1.0
C      1  0.4659190000000  0.4267360000000  0.5553440000000 1.0
C      1  0.4675910000000  0.4475670000000  0.4177790000000 1.0
C      1  0.4669330000000  0.5744110000000  0.4477180000000 1.0
C      1  0.4711650000000  0.5603720000000  0.5790910000000 1.0
C      1  0.5116330000000  0.4839130000000  0.3941640000000 1.0
C      1  0.5078760000000  0.4020300000000  0.5076040000000 1.0
C      1  0.5182820000000  0.5063860000000  0.6004090000000 1.0
C      1  0.5133490000000  0.5965740000000  0.4990260000000 1.0
C      1  0.4906890000000  0.4922630000000  0.5944340000000 1.0
C      1  0.4920760000000  0.4010220000000  0.4880920000000 1.0
C      1  0.4864230000000  0.5049930000000  0.4009580000000 1.0
C      1  0.4813460000000  0.5944870000000  0.5041820000000 1.0
C      1  0.5711130000000  0.5672600000000  0.5083190000000 1.0
C      1  0.5752940000000  0.5020090000000  0.4345180000000 1.0
C      1  0.5646270000000  0.4268370000000  0.4916400000000 1.0
C      1  0.5692170000000  0.4915920000000  0.5683880000000 1.0
C      1  0.4249770000000  0.5614650000000  0.4931480000000 1.0
C      1  0.4303130000000  0.5113190000000  0.5610730000000 1.0
C      1  0.4338540000000  0.4327900000000  0.5058270000000 1.0
C      1  0.4272800000000  0.4898490000000  0.4287290000000 1.0
C      1  0.5819920000000  0.4708940000000  0.4976860000000 1.0
C      1  0.5860800000000  0.4953430000000  0.5208950000000 1.0
C      1  0.5937520000000  0.5233410000000  0.5032770000000 1.0
C      1  0.5903710000000  0.4995050000000  0.4813970000000 1.0
C      1  0.4123700000000  0.4749250000000  0.4964650000000 1.0
C      1  0.4176820000000  0.5002750000000  0.4747420000000 1.0
C      1  0.4125740000000  0.5136590000000  0.5055270000000 1.0
C      1  0.4016940000000  0.4892530000000  0.5241890000000 1.0
C      1  0.5284460000000  0.5113680000000  0.4312120000000 1.0
C      1  0.5217690000000  0.4336000000000  0.4873500000000 1.0
C      1  0.5227480000000  0.4895170000000  0.5645360000000 1.0
C      1  0.5207510000000  0.5677390000000  0.5155080000000 1.0
C      1  0.4736480000000  0.5107640000000  0.5726790000000 1.0
C      1  0.4754520000000  0.4355760000000  0.5071840000000 1.0
C      1  0.4759250000000  0.4914290000000  0.4368520000000 1.0
C      1  0.4667300000000  0.5694390000000  0.4872070000000 1.0
C      1  0.4864760000000  0.5287770000000  0.4912140000000 1.0
C      1  0.4873230000000  0.4879640000000  0.4743980000000 1.0
C      1  0.4841770000000  0.4658180000000  0.5138200000000 1.0
C      1  0.4869620000000  0.5176860000000  0.5294110000000 1.0
C      1  0.5134690000000  0.5286760000000  0.5118890000000 1.0
C      1  0.5098950000000  0.4926460000000  0.5275790000000 1.0
C      1  0.5142870000000  0.4722280000000  0.4826270000000 1.0
C      1  0.5124100000000  0.5223940000000  0.4700820000000 1.0
C      1  0.4651870000000  0.5393680000000  0.5283950000000 1.0
C      1  0.4605600000000  0.5298410000000  0.4724380000000 1.0
C      1  0.4658810000000  0.4670080000000  0.4693400000000 1.0
C      1  0.4645740000000  0.4784380000000  0.5352440000000 1.0
C      1  0.5392500000000  0.5355600000000  0.4693950000000 1.0
C      1  0.5344450000000  0.5300750000000  0.5308610000000 1.0
C      1  0.5344860000000  0.4731750000000  0.5281740000000 1.0
C      1  0.5349810000000  0.4704950000000  0.4563140000000 1.0
C      1  0.4228410000000  0.4495320000000  0.4846410000000 1.0
C      1  0.4166550000000  0.4837100000000  0.5471990000000 1.0
C      1  0.4186870000000  0.5423930000000  0.5142620000000 1.0
C      1  0.4181470000000  0.5103760000000  0.4480040000000 1.0
C      1  0.5741520000000  0.4463250000000  0.5110350000000 1.0
C      1  0.5842100000000  0.4848820000000  0.4549130000000 1.0
C      1  0.5833830000000  0.5482350000000  0.4888680000000 1.0
C      1  0.5774810000000  0.5104470000000  0.5475170000000 1.0
C      1  0.5134500000000  0.5656450000000  0.4402510000000 1.0
C      1  0.5142470000000  0.4353400000000  0.4194560000000 1.0
C      1  0.5110520000000  0.4316940000000  0.5671880000000 1.0
C      1  0.5163090000000  0.5677830000000  0.5710740000000 1.0
C      1  0.4895810000000  0.5769580000000  0.5665960000000 1.0
C      1  0.4842520000000  0.4378820000000  0.5733150000000 1.0
C      1  0.4873810000000  0.4305840000000  0.4281380000000 1.0
C      1  0.4866380000000  0.5597650000000  0.4329790000000 1.0
C      1  0.5770950000000  0.5459850000000  0.4617170000000 1.0
C      1  0.5746550000000  0.4587810000000  0.4571750000000 1.0
C      1  0.5608630000000  0.4436520000000  0.5376490000000 1.0
C      1  0.5661600000000  0.5386920000000  0.5534460000000 1.0
C      1  0.4298770000000  0.5478430000000  0.5429430000000 1.0
C      1  0.4318300000000  0.4594240000000  0.5535660000000 1.0
C      1  0.4356580000000  0.4439530000000  0.4577810000000 1.0
C      1  0.4302250000000  0.5361180000000  0.4418840000000 1.0
C      1  0.4473710000000  0.4873910000000  0.4825320000000 1.0
C      1  0.4399420000000  0.4829660000000  0.5147580000000 1.0
C      1  0.4443160000000  0.5126300000000  0.5308040000000 1.0
C      1  0.4452990000000  0.5179880000000  0.4972180000000 1.0
C      1  0.5529710000000  0.4925620000000  0.5136160000000 1.0
C      1  0.5542060000000  0.4832840000000  0.4812710000000 1.0
C      1  0.5606490000000  0.5160010000000  0.4823090000000 1.0
C      1  0.5614880000000  0.5254910000000  0.5141800000000 1.0
C      1  0.4909900000000  0.5608850000000  0.5302680000000 1.0
C      1  0.4835160000000  0.5208310000000  0.4521820000000 1.0
C      1  0.4915020000000  0.4471010000000  0.4795020000000 1.0
C      1  0.4902540000000  0.4870800000000  0.5548010000000 1.0
C      1  0.4981920000000  0.5606950000000  0.4910300000000 1.0
C      1  0.5267050000000  0.5179870000000  0.5563290000000 1.0
C      1  0.5137030000000  0.4503040000000  0.5158660000000 1.0
C      1  0.5081860000000  0.4899780000000  0.4476080000000 1.0
C      1  0.4347460000000  0.5826660000000  0.5088230000000 1.0
C      1  0.4338620000000  0.5074310000000  0.4060260000000 1.0
C      1  0.4446570000000  0.4105440000000  0.4903660000000 1.0
C      1  0.4352860000000  0.4914640000000  0.5861450000000 1.0
C      1  0.5598290000000  0.5801600000000  0.4844040000000 1.0
C      1  0.5653900000000  0.5103500000000  0.5908470000000 1.0
C      1  0.5547270000000  0.4060700000000  0.5093110000000 1.0
C      1  0.5626700000000  0.4871520000000  0.4145340000000 1.0
C      1  0.4765230000000  0.5296460000000  0.4208090000000 1.0
C      1  0.4857190000000  0.4196220000000  0.4603330000000 1.0
C      1  0.4770970000000  0.4659840000000  0.5783400000000 1.0
C      1  0.4780420000000  0.5912010000000  0.5379550000000 1.0
C      1  0.5199010000000  0.5355650000000  0.5829230000000 1.0
C      1  0.5137790000000  0.4219220000000  0.5345570000000 1.0
C      1  0.5218780000000  0.4606220000000  0.4083910000000 1.0
C      1  0.5137600000000  0.5792120000000  0.4695030000000 1.0
C      1  0.4511630000000  0.4682770000000  0.4397310000000 1.0
C      1  0.4530740000000  0.4467740000000  0.5302150000000 1.0
C      1  0.4521050000000  0.5362850000000  0.5660050000000 1.0
C      1  0.4440220000000  0.5565110000000  0.4653590000000 1.0
C      1  0.5476550000000  0.4671700000000  0.5584360000000 1.0
C      1  0.5474090000000  0.4401880000000  0.4654850000000 1.0
C      1  0.5563460000000  0.5274810000000  0.4421150000000 1.0
C      1  0.5501670000000  0.5594730000000  0.5317600000000 1.0
C      1  0.5411130000000  0.5657530000000  0.4714960000000 1.0
C      1  0.5433530000000  0.4697510000000  0.4244630000000 1.0
C      1  0.5457690000000  0.4183540000000  0.5342380000000 1.0
C      1  0.5538820000000  0.5359900000000  0.5815890000000 1.0
C      1  0.4525910000000  0.5707390000000  0.5321760000000 1.0
C      1  0.4461240000000  0.4675510000000  0.5777100000000 1.0
C      1  0.4525150000000  0.4195980000000  0.4635210000000 1.0
C      1  0.4456110000000  0.5315880000000  0.4174310000000 1.0
C      1  0.4792510000000  0.4978910000000  0.5036310000000 1.0
C      1  0.5182450000000  0.5006420000000  0.4955540000000 1.0
END
