TITL C-2622956-4641-814 -368623.190662564 125000 -203.424254225301 0 0 39 (C1) n - 1
REM
REM in /nfs/bkarasulu/CARBON/AIRSS/Generating-Clusters/AIREBO/with-SteepDescent/Higher-Symm/SD-CG/HFTN-CG
REM
REM
REM
REM
REM
REM ./C.cell (b20cbc046b6831c77cfcea5457e17084)
REM
REM compiler GCC version 9.2.1 20190827 (Red Hat 9.2.1-1)
REM options -cpp -mtune=generic -march=x86-64 -g -O0 -fpre-include=/usr/include/finclude/math-vector-fortran.h
REM seed 1272458920 1048354512 -749131573 -648891158 -5485010 -1585256723 364512520 -618344488 -1318960309 1681731550 716093421 159352952 -1856992389 -1124308448 833670078 2078411029 -1246905533 1470858278 714180682 -125485060 6687601 1567619554 -2051575098 -1419505055 929086249 -1606311260 -1725762598 -1919384727 -1937786158 15976940 160220643 2043095140 793937268
REM
CELL 1.54180   50.00000   50.00000   50.00000   90.00000   90.00000   90.00000
LATT -1
SFAC C  
C      1  0.5131100000000  0.4796150000000  0.5322910000000 1.0
C      1  0.5164160000000  0.4543700000000  0.4906040000000 1.0
C      1  0.5082230000000  0.4985300000000  0.4673330000000 1.0
C      1  0.4968070000000  0.5472220000000  0.4844090000000 1.0
C      1  0.5081580000000  0.5181850000000  0.5232050000000 1.0
C      1  0.5588810000000  0.4817810000000  0.5274290000000 1.0
C      1  0.5609710000000  0.4641150000000  0.4923470000000 1.0
C      1  0.5544790000000  0.4921970000000  0.4651520000000 1.0
C      1  0.5407050000000  0.5246040000000  0.4835750000000 1.0
C      1  0.5558710000000  0.5208380000000  0.5202770000000 1.0
C      1  0.4573240000000  0.5676060000000  0.5427990000000 1.0
C      1  0.4623030000000  0.4819830000000  0.5234840000000 1.0
C      1  0.4810950000000  0.4123330000000  0.5405830000000 1.0
C      1  0.4585760000000  0.4706000000000  0.4586270000000 1.0
C      1  0.4782550000000  0.5685610000000  0.4652800000000 1.0
C      1  0.5346000000000  0.4996230000000  0.4510680000000 1.0
C      1  0.5275670000000  0.5452100000000  0.4797500000000 1.0
C      1  0.5343530000000  0.5306190000000  0.5323920000000 1.0
C      1  0.5408460000000  0.4762060000000  0.5442730000000 1.0
C      1  0.5441080000000  0.4457150000000  0.4870900000000 1.0
C      1  0.4954270000000  0.5010200000000  0.5466760000000 1.0
C      1  0.5055790000000  0.4530470000000  0.5180340000000 1.0
C      1  0.5028040000000  0.4675080000000  0.4682060000000 1.0
C      1  0.4908080000000  0.5216020000000  0.4638230000000 1.0
C      1  0.4903300000000  0.5398210000000  0.5125580000000 1.0
C      1  0.4692110000000  0.4946900000000  0.5468110000000 1.0
C      1  0.4944270000000  0.4321230000000  0.5297430000000 1.0
C      1  0.4824840000000  0.4584060000000  0.4529040000000 1.0
C      1  0.4768740000000  0.5429780000000  0.4501210000000 1.0
C      1  0.4746960000000  0.5546000000000  0.5281030000000 1.0
C      1  0.4793010000000  0.4862420000000  0.5002240000000 1.0
C      1  0.5763720000000  0.5115210000000  0.4984150000000 1.0
C      1  0.4386660000000  0.5073740000000  0.4824990000000 1.0
C      1  0.3989910000000  0.5411030000000  0.4911120000000 1.0
C      1  0.6006610000000  0.5136030000000  0.4877440000000 1.0
C      1  0.5469010000000  0.4945310000000  0.4982450000000 1.0
C      1  0.5131620000000  0.4899910000000  0.4998910000000 1.0
C      1  0.4610500000000  0.4913990000000  0.4779040000000 1.0
C      1  0.4185380000000  0.5245490000000  0.4855680000000 1.0
END
