TITL C-2622968-4806-473 -0.000226700140071085 125000 -575.058260059819 0 0 96 (C1) n - 1
REM
REM in /nfs/bkarasulu/CARBON/AIRSS/Generating-Clusters/AIREBO/with-SteepDescent/Higher-Symm/SD-CG/HFTN-CG
REM
REM
REM
REM
REM
REM ./C.cell (b20cbc046b6831c77cfcea5457e17084)
REM
REM compiler GCC version 9.2.1 20190827 (Red Hat 9.2.1-1)
REM options -cpp -mtune=generic -march=x86-64 -g -O0 -fpre-include=/usr/include/finclude/math-vector-fortran.h
REM seed 633041267 -1574216229 2031212234 1308558978 -1114452044 -1841237967 -449411872 -2060133099 -8112862 -1361106957 -180737453 -414216298 -1415424173 -372041001 1774530691 -376065243 -1317232499 -978310110 201757673 1744758933 -1232580490 -1207639755 1916738532 975789794 1308733378 -1028668144 400874321 1400650998 380623570 1184262864 -1126623174 1890891192 -544191506
REM
CELL 1.54180   50.00000   50.00000   50.00000   90.00000   90.00000   90.00000
LATT -1
SFAC C  
C      1  0.5155850000000  0.4051030000000  0.4729350000000 1.0
C      1  0.4706770000000  0.4104040000000  0.4989600000000 1.0
C      1  0.5128610000000  0.4055800000000  0.5227820000000 1.0
C      1  0.5141510000000  0.5994000000000  0.4748170000000 1.0
C      1  0.4696290000000  0.5992070000000  0.4996770000000 1.0
C      1  0.5125090000000  0.5989680000000  0.5258870000000 1.0
C      1  0.4842870000000  0.4034920000000  0.4749560000000 1.0
C      1  0.5290990000000  0.4006410000000  0.4970610000000 1.0
C      1  0.4849580000000  0.4094140000000  0.5237940000000 1.0
C      1  0.4834410000000  0.5953340000000  0.4759110000000 1.0
C      1  0.5281410000000  0.5968280000000  0.4988180000000 1.0
C      1  0.4850750000000  0.5940010000000  0.5255180000000 1.0
C      1  0.5281040000000  0.5516610000000  0.4461530000000 1.0
C      1  0.4414380000000  0.5528400000000  0.5015230000000 1.0
C      1  0.5327150000000  0.5551110000000  0.5535890000000 1.0
C      1  0.5328020000000  0.4440000000000  0.4346410000000 1.0
C      1  0.4306080000000  0.4517870000000  0.4985270000000 1.0
C      1  0.5363500000000  0.4489770000000  0.5601640000000 1.0
C      1  0.4655810000000  0.5504170000000  0.4377570000000 1.0
C      1  0.5699870000000  0.5498590000000  0.5013740000000 1.0
C      1  0.4613950000000  0.5498590000000  0.5608940000000 1.0
C      1  0.4755720000000  0.4475320000000  0.4487340000000 1.0
C      1  0.5574610000000  0.4456940000000  0.5017400000000 1.0
C      1  0.4775160000000  0.4362210000000  0.5690420000000 1.0
C      1  0.5372360000000  0.4834700000000  0.4314470000000 1.0
C      1  0.4226580000000  0.4907160000000  0.4974390000000 1.0
C      1  0.5410160000000  0.4866520000000  0.5715460000000 1.0
C      1  0.5382550000000  0.5159220000000  0.4318270000000 1.0
C      1  0.4187010000000  0.5203820000000  0.4982760000000 1.0
C      1  0.5386620000000  0.5178440000000  0.5661730000000 1.0
C      1  0.4622150000000  0.4804990000000  0.4305340000000 1.0
C      1  0.5776780000000  0.4799380000000  0.4997210000000 1.0
C      1  0.4616280000000  0.4843710000000  0.5691600000000 1.0
C      1  0.4597170000000  0.5121080000000  0.4296570000000 1.0
C      1  0.5775840000000  0.5108650000000  0.5006810000000 1.0
C      1  0.4581140000000  0.5147140000000  0.5726640000000 1.0
C      1  0.5674900000000  0.4632520000000  0.4748720000000 1.0
C      1  0.4470740000000  0.4659030000000  0.4521070000000 1.0
C      1  0.4866340000000  0.4625980000000  0.5767380000000 1.0
C      1  0.5710730000000  0.5327870000000  0.4754990000000 1.0
C      1  0.4421600000000  0.5337370000000  0.4492970000000 1.0
C      1  0.4859590000000  0.5336690000000  0.5757120000000 1.0
C      1  0.4297980000000  0.4685470000000  0.4726590000000 1.0
C      1  0.5533160000000  0.4614690000000  0.4518230000000 1.0
C      1  0.5142760000000  0.4658310000000  0.5751040000000 1.0
C      1  0.4309920000000  0.5356710000000  0.4740810000000 1.0
C      1  0.5528920000000  0.5302780000000  0.4553840000000 1.0
C      1  0.5119140000000  0.5322580000000  0.5678000000000 1.0
C      1  0.4368820000000  0.5305200000000  0.5511450000000 1.0
C      1  0.5747970000000  0.5327760000000  0.5266540000000 1.0
C      1  0.4852830000000  0.5329250000000  0.4212680000000 1.0
C      1  0.4373580000000  0.4729630000000  0.5482550000000 1.0
C      1  0.5701330000000  0.4656600000000  0.5261770000000 1.0
C      1  0.4873010000000  0.4652790000000  0.4232190000000 1.0
C      1  0.5587390000000  0.5336140000000  0.5491140000000 1.0
C      1  0.4272140000000  0.5335510000000  0.5252790000000 1.0
C      1  0.5126640000000  0.5319120000000  0.4238890000000 1.0
C      1  0.5601920000000  0.4666040000000  0.5518460000000 1.0
C      1  0.4269790000000  0.4696490000000  0.5238300000000 1.0
C      1  0.5143360000000  0.4635620000000  0.4184440000000 1.0
C      1  0.4771240000000  0.5158880000000  0.4563290000000 1.0
C      1  0.4804510000000  0.5072770000000  0.5312010000000 1.0
C      1  0.5467190000000  0.5173740000000  0.5030680000000 1.0
C      1  0.4851590000000  0.4914530000000  0.4642410000000 1.0
C      1  0.4786490000000  0.4826710000000  0.5431150000000 1.0
C      1  0.5353000000000  0.4886550000000  0.5119350000000 1.0
C      1  0.5187240000000  0.5128190000000  0.4665330000000 1.0
C      1  0.5257770000000  0.5157150000000  0.5283710000000 1.0
C      1  0.4665580000000  0.5095020000000  0.5072880000000 1.0
C      1  0.5247630000000  0.4882600000000  0.4598170000000 1.0
C      1  0.5265430000000  0.4859870000000  0.5430450000000 1.0
C      1  0.4538140000000  0.4860790000000  0.4993660000000 1.0
C      1  0.4532060000000  0.4323640000000  0.4978210000000 1.0
C      1  0.5279100000000  0.4299130000000  0.5372110000000 1.0
C      1  0.5199930000000  0.4205770000000  0.4453750000000 1.0
C      1  0.4502040000000  0.5795280000000  0.5136330000000 1.0
C      1  0.5340110000000  0.5784290000000  0.5332320000000 1.0
C      1  0.5109580000000  0.5764360000000  0.4546680000000 1.0
C      1  0.5487460000000  0.4187800000000  0.5127380000000 1.0
C      1  0.4780400000000  0.4311760000000  0.5411650000000 1.0
C      1  0.4880170000000  0.4202700000000  0.4488590000000 1.0
C      1  0.5468430000000  0.5706710000000  0.5034440000000 1.0
C      1  0.4706720000000  0.5681520000000  0.5382320000000 1.0
C      1  0.4788890000000  0.5693070000000  0.4578170000000 1.0
C      1  0.5133650000000  0.5433130000000  0.5294080000000 1.0
C      1  0.5144250000000  0.5422210000000  0.4750670000000 1.0
C      1  0.4685620000000  0.5381130000000  0.4977090000000 1.0
C      1  0.5151740000000  0.4580690000000  0.5274890000000 1.0
C      1  0.5151220000000  0.4678800000000  0.4760970000000 1.0
C      1  0.4696870000000  0.4599850000000  0.4998210000000 1.0
C      1  0.4841340000000  0.5409170000000  0.5277260000000 1.0
C      1  0.4831360000000  0.5409140000000  0.4724200000000 1.0
C      1  0.5293540000000  0.5443310000000  0.5007320000000 1.0
C      1  0.4847080000000  0.4578770000000  0.5268050000000 1.0
C      1  0.4853720000000  0.4620740000000  0.4744150000000 1.0
C      1  0.5310290000000  0.4622010000000  0.4992310000000 1.0
END
