TITL C-2622967-6265-475 -0.00122311945888102 125000 -427.24710665359 0 0 79 (C1) n - 1
REM
REM in /nfs/bkarasulu/CARBON/AIRSS/Generating-Clusters/AIREBO/with-SteepDescent/Higher-Symm/SD-CG/HFTN-CG
REM
REM
REM
REM
REM
REM ./C.cell (b20cbc046b6831c77cfcea5457e17084)
REM
REM compiler GCC version 9.2.1 20190827 (Red Hat 9.2.1-1)
REM options -cpp -mtune=generic -march=x86-64 -g -O0 -fpre-include=/usr/include/finclude/math-vector-fortran.h
REM seed -1897587042 770769859 1559992148 -758145632 -872579060 1959904356 179318994 1314697920 1138520973 1725823786 -198019071 -1760078697 -345829069 1236273182 183358566 -1047618989 2145575301 434825919 -1232237397 1306844748 -63385576 -267164635 -1649189440 1195257017 275598568 -1578989831 1463011312 1047968648 -2098190208 1116240204 -1789504354 -2018795577 445197005
REM
CELL 1.54180   50.00000   50.00000   50.00000   90.00000   90.00000   90.00000
LATT -1
SFAC C  
C      1  0.4874630000000  0.4648530000000  0.5691520000000 1.0
C      1  0.5311880000000  0.5083780000000  0.5736170000000 1.0
C      1  0.4745110000000  0.5287630000000  0.5757810000000 1.0
C      1  0.4850330000000  0.4554820000000  0.4920540000000 1.0
C      1  0.5417620000000  0.5023900000000  0.4980290000000 1.0
C      1  0.4755520000000  0.5344510000000  0.4971520000000 1.0
C      1  0.5335770000000  0.4365050000000  0.4764540000000 1.0
C      1  0.5394900000000  0.5541130000000  0.4750350000000 1.0
C      1  0.4291810000000  0.5126210000000  0.4754520000000 1.0
C      1  0.4998710000000  0.5327140000000  0.5352940000000 1.0
C      1  0.4740920000000  0.4843840000000  0.5370130000000 1.0
C      1  0.5277580000000  0.4827350000000  0.5336750000000 1.0
C      1  0.5160180000000  0.4482620000000  0.5637750000000 1.0
C      1  0.5347810000000  0.5408870000000  0.5654430000000 1.0
C      1  0.4488090000000  0.5109720000000  0.5649060000000 1.0
C      1  0.5192440000000  0.5708360000000  0.5251510000000 1.0
C      1  0.4308560000000  0.4847790000000  0.5235150000000 1.0
C      1  0.5535350000000  0.4478100000000  0.5273050000000 1.0
C      1  0.5382320000000  0.5477340000000  0.5358260000000 1.0
C      1  0.4421570000000  0.5117660000000  0.5355360000000 1.0
C      1  0.5236230000000  0.4413240000000  0.5350980000000 1.0
C      1  0.5716120000000  0.5008730000000  0.4818110000000 1.0
C      1  0.4656680000000  0.5621790000000  0.4801290000000 1.0
C      1  0.4553010000000  0.4445580000000  0.4796580000000 1.0
C      1  0.4417580000000  0.4612530000000  0.5338400000000 1.0
C      1  0.5646820000000  0.4693630000000  0.5409410000000 1.0
C      1  0.4944470000000  0.5721740000000  0.5379470000000 1.0
C      1  0.5549160000000  0.4922730000000  0.5614200000000 1.0
C      1  0.4774690000000  0.5556790000000  0.5600900000000 1.0
C      1  0.4630390000000  0.4511480000000  0.5561860000000 1.0
C      1  0.5478760000000  0.5585190000000  0.5858670000000 1.0
C      1  0.4259510000000  0.5079840000000  0.5842400000000 1.0
C      1  0.5247210000000  0.4296330000000  0.5856590000000 1.0
C      1  0.5265550000000  0.5032240000000  0.4676250000000 1.0
C      1  0.4812240000000  0.5202850000000  0.4667640000000 1.0
C      1  0.4884310000000  0.4717030000000  0.4623610000000 1.0
C      1  0.5112340000000  0.4201030000000  0.5142230000000 1.0
C      1  0.5639730000000  0.5433950000000  0.5169150000000 1.0
C      1  0.4322290000000  0.5373570000000  0.5187850000000 1.0
C      1  0.5564810000000  0.5314650000000  0.4882580000000 1.0
C      1  0.4428430000000  0.5371760000000  0.4882150000000 1.0
C      1  0.5083980000000  0.4310070000000  0.4886270000000 1.0
C      1  0.4921040000000  0.5718110000000  0.4714260000000 1.0
C      1  0.4372190000000  0.4636160000000  0.4713940000000 1.0
C      1  0.5690040000000  0.4722800000000  0.4740830000000 1.0
C      1  0.5400790000000  0.4440880000000  0.4500350000000 1.0
C      1  0.5303260000000  0.5559140000000  0.4484340000000 1.0
C      1  0.4297440000000  0.5044420000000  0.4484540000000 1.0
C      1  0.5177820000000  0.4785120000000  0.4204730000000 1.0
C      1  0.5036350000000  0.5189190000000  0.4174810000000 1.0
C      1  0.4710500000000  0.4960890000000  0.4129520000000 1.0
C      1  0.5567750000000  0.4997120000000  0.5284200000000 1.0
C      1  0.4714450000000  0.5495890000000  0.5273190000000 1.0
C      1  0.4733950000000  0.4535980000000  0.5239510000000 1.0
C      1  0.5047320000000  0.5269920000000  0.5653340000000 1.0
C      1  0.4792820000000  0.4962100000000  0.5671450000000 1.0
C      1  0.5163910000000  0.4818920000000  0.5630320000000 1.0
C      1  0.5176610000000  0.5715720000000  0.4936100000000 1.0
C      1  0.4309110000000  0.4865230000000  0.4924230000000 1.0
C      1  0.5580490000000  0.4486350000000  0.4959600000000 1.0
C      1  0.5305330000000  0.5163430000000  0.4223280000000 1.0
C      1  0.4639240000000  0.5215970000000  0.4202440000000 1.0
C      1  0.4953220000000  0.4578610000000  0.4332840000000 1.0
C      1  0.4683150000000  0.5065310000000  0.5144520000000 1.0
C      1  0.5105030000000  0.4636480000000  0.5130560000000 1.0
C      1  0.5236400000000  0.5251820000000  0.5149780000000 1.0
C      1  0.5426710000000  0.5411510000000  0.4277790000000 1.0
C      1  0.4368730000000  0.5228860000000  0.4281610000000 1.0
C      1  0.5209070000000  0.4397990000000  0.4299230000000 1.0
C      1  0.5017270000000  0.5600200000000  0.4475580000000 1.0
C      1  0.4395640000000  0.4769510000000  0.4465170000000 1.0
C      1  0.5554910000000  0.4680280000000  0.4497700000000 1.0
C      1  0.4673790000000  0.4740900000000  0.4352780000000 1.0
C      1  0.5393450000000  0.4921720000000  0.4412110000000 1.0
C      1  0.4849180000000  0.5355030000000  0.4396870000000 1.0
C      1  0.4628820000000  0.4808770000000  0.4966760000000 1.0
C      1  0.5349830000000  0.4712440000000  0.4962140000000 1.0
C      1  0.5069410000000  0.5413110000000  0.4954330000000 1.0
C      1  0.4988870000000  0.4987130000000  0.4680900000000 1.0
END
