TITL C-2622964-2985-380 6.65099286137499e-05 125000 -186.49088121964 0 0 36 (C1) n - 1
REM
REM in /nfs/bkarasulu/CARBON/AIRSS/Generating-Clusters/AIREBO/with-SteepDescent/Higher-Symm/SD-CG/HFTN-CG
REM
REM
REM
REM
REM
REM ./C.cell (b20cbc046b6831c77cfcea5457e17084)
REM
REM compiler GCC version 9.2.1 20190827 (Red Hat 9.2.1-1)
REM options -cpp -mtune=generic -march=x86-64 -g -O0 -fpre-include=/usr/include/finclude/math-vector-fortran.h
REM seed -70447476 793148346 -1290689488 1636117420 846136153 -1429259988 -2017001338 -673992394 123545349 -1723148497 -37778625 688515852 -300389648 1861538569 -260490334 -1301926936 860154447 1991570923 1695544545 -655774535 -157779354 1678017758 2006432946 1160162084 -1078026211 1425956267 -25716191 1365806942 408688943 1872538349 657742814 1348918361 -665398676
REM
CELL 1.54180   50.00000   50.00000   50.00000   90.00000   90.00000   90.00000
LATT -1
SFAC C  
C      1  0.5107200000000  0.4920760000000  0.4667910000000 1.0
C      1  0.4494020000000  0.4539910000000  0.4458310000000 1.0
C      1  0.4625560000000  0.4742310000000  0.5451110000000 1.0
C      1  0.4338300000000  0.4558270000000  0.4687750000000 1.0
C      1  0.4680960000000  0.5621290000000  0.5005970000000 1.0
C      1  0.4874470000000  0.4333160000000  0.4911690000000 1.0
C      1  0.5472960000000  0.4759880000000  0.5157960000000 1.0
C      1  0.4968720000000  0.5697450000000  0.5468730000000 1.0
C      1  0.5433860000000  0.5604360000000  0.5109450000000 1.0
C      1  0.4449050000000  0.4883410000000  0.5100380000000 1.0
C      1  0.5421360000000  0.4970330000000  0.4706030000000 1.0
C      1  0.4552360000000  0.5415330000000  0.4950010000000 1.0
C      1  0.4988420000000  0.5395210000000  0.5381750000000 1.0
C      1  0.4658760000000  0.4480890000000  0.5372430000000 1.0
C      1  0.5196110000000  0.5630510000000  0.4961390000000 1.0
C      1  0.4664310000000  0.4422500000000  0.5098050000000 1.0
C      1  0.5311870000000  0.5212150000000  0.4487830000000 1.0
C      1  0.5200040000000  0.5419380000000  0.4733130000000 1.0
C      1  0.5518800000000  0.4728820000000  0.4882260000000 1.0
C      1  0.5207410000000  0.4959390000000  0.5234810000000 1.0
C      1  0.4976110000000  0.5123160000000  0.5343420000000 1.0
C      1  0.5527810000000  0.5330730000000  0.5101440000000 1.0
C      1  0.5262080000000  0.4568540000000  0.5290100000000 1.0
C      1  0.4625680000000  0.5124360000000  0.4979390000000 1.0
C      1  0.5613950000000  0.5092300000000  0.5527760000000 1.0
C      1  0.5476460000000  0.5133340000000  0.5294840000000 1.0
C      1  0.5469250000000  0.5252350000000  0.4836820000000 1.0
C      1  0.4807550000000  0.5002540000000  0.4776470000000 1.0
C      1  0.4507050000000  0.4639200000000  0.4936690000000 1.0
C      1  0.4828110000000  0.4666960000000  0.4827940000000 1.0
C      1  0.4764650000000  0.4587410000000  0.4503520000000 1.0
C      1  0.5099230000000  0.4711850000000  0.5028270000000 1.0
C      1  0.4706900000000  0.5007890000000  0.5286040000000 1.0
C      1  0.4979120000000  0.5215770000000  0.4573880000000 1.0
C      1  0.5235840000000  0.4621610000000  0.4730240000000 1.0
C      1  0.4955650000000  0.5626660000000  0.5136240000000 1.0
END
