TITL C-2622959-7779-100 0.000938252870937719 125000 -526.908895200837 0 0 102 (C1) n - 1
REM
REM in /nfs/bkarasulu/CARBON/AIRSS/Generating-Clusters/AIREBO/with-SteepDescent/Higher-Symm/SD-CG/HFTN-CG
REM
REM
REM
REM
REM
REM ./C.cell (b20cbc046b6831c77cfcea5457e17084)
REM
REM compiler GCC version 9.2.1 20190827 (Red Hat 9.2.1-1)
REM options -cpp -mtune=generic -march=x86-64 -g -O0 -fpre-include=/usr/include/finclude/math-vector-fortran.h
REM seed -1124050859 658620798 -1765662579 -487456375 -633557731 1846126114 1801098586 -436725746 -1652260856 1804664323 -731004958 1081665879 -823819818 -169445086 -1050002901 168392450 -1782535811 1946509248 -609285832 -327631952 172206410 -2083224919 -1805174215 1669178823 132422394 869343751 1803142015 -270759185 -206006008 -872682320 -1354598974 2084666994 -477316917
REM
CELL 1.54180   50.00000   50.00000   50.00000   90.00000   90.00000   90.00000
LATT -1
SFAC C  
C      1  0.3947320000000  0.5174820000000  0.4816710000000 1.0
C      1  0.5936020000000  0.4841880000000  0.4827020000000 1.0
C      1  0.3954190000000  0.4930870000000  0.4753820000000 1.0
C      1  0.5994480000000  0.5087270000000  0.4847250000000 1.0
C      1  0.5285770000000  0.5215810000000  0.4949060000000 1.0
C      1  0.4716110000000  0.4711580000000  0.5056720000000 1.0
C      1  0.5212480000000  0.4797930000000  0.5104250000000 1.0
C      1  0.4797540000000  0.5138370000000  0.4957500000000 1.0
C      1  0.5152020000000  0.4422540000000  0.4436970000000 1.0
C      1  0.4877030000000  0.5553290000000  0.4479380000000 1.0
C      1  0.5203370000000  0.5605650000000  0.4505870000000 1.0
C      1  0.4839570000000  0.4390970000000  0.4555010000000 1.0
C      1  0.4760590000000  0.4762220000000  0.5830110000000 1.0
C      1  0.5260330000000  0.5298860000000  0.5946160000000 1.0
C      1  0.4674310000000  0.5251000000000  0.5931240000000 1.0
C      1  0.5267580000000  0.4808510000000  0.5822430000000 1.0
C      1  0.5467720000000  0.5417900000000  0.5128330000000 1.0
C      1  0.4531030000000  0.4457320000000  0.5142610000000 1.0
C      1  0.5444430000000  0.4553390000000  0.5133840000000 1.0
C      1  0.4675530000000  0.5423050000000  0.5099560000000 1.0
C      1  0.5207210000000  0.4519090000000  0.4139960000000 1.0
C      1  0.4759450000000  0.5469450000000  0.4195720000000 1.0
C      1  0.5155600000000  0.5515190000000  0.4190410000000 1.0
C      1  0.4819170000000  0.4473940000000  0.4225870000000 1.0
C      1  0.5479160000000  0.4739290000000  0.5416560000000 1.0
C      1  0.4597040000000  0.5257360000000  0.5386000000000 1.0
C      1  0.5402880000000  0.5357210000000  0.5449320000000 1.0
C      1  0.4607470000000  0.4624150000000  0.5428930000000 1.0
C      1  0.5235670000000  0.4733840000000  0.4498670000000 1.0
C      1  0.4795410000000  0.5234580000000  0.4546220000000 1.0
C      1  0.5207500000000  0.5263950000000  0.4554990000000 1.0
C      1  0.4803340000000  0.4728920000000  0.4564840000000 1.0
C      1  0.5498000000000  0.4518530000000  0.4708530000000 1.0
C      1  0.4417620000000  0.5449780000000  0.4702120000000 1.0
C      1  0.5620170000000  0.5510050000000  0.4721250000000 1.0
C      1  0.4374570000000  0.4472830000000  0.4770240000000 1.0
C      1  0.5774240000000  0.5313840000000  0.4925770000000 1.0
C      1  0.4182000000000  0.4738240000000  0.4860840000000 1.0
C      1  0.5646730000000  0.4716580000000  0.4914560000000 1.0
C      1  0.4211810000000  0.5317150000000  0.4904430000000 1.0
C      1  0.4685060000000  0.4363770000000  0.4856750000000 1.0
C      1  0.5331350000000  0.5598680000000  0.4820980000000 1.0
C      1  0.4732750000000  0.5545210000000  0.4787260000000 1.0
C      1  0.5199020000000  0.4442400000000  0.4764960000000 1.0
C      1  0.4362110000000  0.5527910000000  0.5088850000000 1.0
C      1  0.5675930000000  0.4328340000000  0.5191830000000 1.0
C      1  0.4073990000000  0.4491150000000  0.5033350000000 1.0
C      1  0.5725870000000  0.5594440000000  0.5097000000000 1.0
C      1  0.5540720000000  0.5295570000000  0.4501850000000 1.0
C      1  0.4481440000000  0.4717220000000  0.4597150000000 1.0
C      1  0.5532500000000  0.4815880000000  0.4545870000000 1.0
C      1  0.4486920000000  0.5164050000000  0.4603280000000 1.0
C      1  0.4323950000000  0.4802120000000  0.5438700000000 1.0
C      1  0.5692150000000  0.5200850000000  0.5495950000000 1.0
C      1  0.4349400000000  0.5041640000000  0.5297980000000 1.0
C      1  0.5696400000000  0.4968860000000  0.5339760000000 1.0
C      1  0.5851370000000  0.4144300000000  0.5213700000000 1.0
C      1  0.4270170000000  0.5750450000000  0.5185580000000 1.0
C      1  0.5825230000000  0.5829870000000  0.5138400000000 1.0
C      1  0.4245390000000  0.4359110000000  0.5162470000000 1.0
C      1  0.4828630000000  0.4415050000000  0.5541210000000 1.0
C      1  0.5202760000000  0.5522230000000  0.5616780000000 1.0
C      1  0.4717160000000  0.5470780000000  0.5591520000000 1.0
C      1  0.5305970000000  0.4510780000000  0.5562980000000 1.0
C      1  0.4198240000000  0.4241110000000  0.4682470000000 1.0
C      1  0.5795440000000  0.5737400000000  0.4620400000000 1.0
C      1  0.4496140000000  0.5780600000000  0.4699850000000 1.0
C      1  0.5668350000000  0.4286300000000  0.4613060000000 1.0
C      1  0.4505970000000  0.5091200000000  0.4298870000000 1.0
C      1  0.5479030000000  0.4897390000000  0.4229450000000 1.0
C      1  0.4522490000000  0.4815250000000  0.4294380000000 1.0
C      1  0.5455920000000  0.5174320000000  0.4226340000000 1.0
C      1  0.5246330000000  0.4786070000000  0.4103250000000 1.0
C      1  0.4718310000000  0.5205000000000  0.4155170000000 1.0
C      1  0.5201880000000  0.5252580000000  0.4135250000000 1.0
C      1  0.4761910000000  0.4734210000000  0.4167470000000 1.0
C      1  0.5656540000000  0.5020580000000  0.5048910000000 1.0
C      1  0.4308470000000  0.5022370000000  0.4999960000000 1.0
C      1  0.4965450000000  0.5566020000000  0.5196630000000 1.0
C      1  0.5174650000000  0.4345850000000  0.5151130000000 1.0
C      1  0.5026680000000  0.5237050000000  0.5170360000000 1.0
C      1  0.4964740000000  0.4738240000000  0.5290300000000 1.0
C      1  0.5018460000000  0.4685370000000  0.5622100000000 1.0
C      1  0.4960280000000  0.5398320000000  0.5820590000000 1.0
C      1  0.4688830000000  0.4950840000000  0.5486890000000 1.0
C      1  0.5333950000000  0.5027100000000  0.5494850000000 1.0
C      1  0.4960850000000  0.4650910000000  0.4833220000000 1.0
C      1  0.5045590000000  0.5414590000000  0.4813260000000 1.0
C      1  0.4597160000000  0.5015310000000  0.5803850000000 1.0
C      1  0.5382100000000  0.5087840000000  0.5816180000000 1.0
C      1  0.5514530000000  0.5069950000000  0.4743950000000 1.0
C      1  0.4591820000000  0.4936030000000  0.4832940000000 1.0
C      1  0.4983170000000  0.4265430000000  0.4933210000000 1.0
C      1  0.5125300000000  0.5753170000000  0.5007210000000 1.0
C      1  0.4955610000000  0.5616140000000  0.5485980000000 1.0
C      1  0.5098050000000  0.4350270000000  0.5420690000000 1.0
C      1  0.5019830000000  0.4984510000000  0.4506180000000 1.0
C      1  0.5069970000000  0.4972540000000  0.4849630000000 1.0
C      1  0.5011230000000  0.5040880000000  0.5426780000000 1.0
C      1  0.5010560000000  0.4842750000000  0.5989220000000 1.0
C      1  0.4987580000000  0.5079820000000  0.5752550000000 1.0
C      1  0.4984070000000  0.4992900000000  0.4168020000000 1.0
END
