TITL C-2622964-2985-52 -0.000183298593504657 125000 -792.306817319338 0 0 144 (C1) n - 1
REM
REM in /nfs/bkarasulu/CARBON/AIRSS/Generating-Clusters/AIREBO/with-SteepDescent/Higher-Symm/SD-CG/HFTN-CG
REM
REM
REM
REM
REM
REM ./C.cell (b20cbc046b6831c77cfcea5457e17084)
REM
REM compiler GCC version 9.2.1 20190827 (Red Hat 9.2.1-1)
REM options -cpp -mtune=generic -march=x86-64 -g -O0 -fpre-include=/usr/include/finclude/math-vector-fortran.h
REM seed 1453481464 -1468350190 -1901305943 -1399699693 -1316793774 -2091484985 569002724 1662122359 -868076676 -236593091 -886403547 -164743136 898847866 187219706 228597359 -316156046 2092884737 -825951277 -1087355505 724714280 672566435 815599940 183122872 1632702857 662821642 1053440725 1273056456 -2046959532 -906145275 1073292824 -354918918 -924100328 -900650759
REM
CELL 1.54180   50.00000   50.00000   50.00000   90.00000   90.00000   90.00000
LATT -1
SFAC C  
C      1  0.5143410000000  0.4602200000000  0.5253920000000 1.0
C      1  0.5040010000000  0.4521690000000  0.4955050000000 1.0
C      1  0.5106250000000  0.4813120000000  0.4799200000000 1.0
C      1  0.5058880000000  0.4937290000000  0.4485590000000 1.0
C      1  0.5006820000000  0.5121410000000  0.4762070000000 1.0
C      1  0.5083870000000  0.5425820000000  0.4892800000000 1.0
C      1  0.4982580000000  0.5224510000000  0.5147520000000 1.0
C      1  0.4950670000000  0.5173700000000  0.5482220000000 1.0
C      1  0.5009730000000  0.4914510000000  0.5268400000000 1.0
C      1  0.5798930000000  0.4494160000000  0.5608550000000 1.0
C      1  0.5627780000000  0.4287710000000  0.5081460000000 1.0
C      1  0.5722450000000  0.4327350000000  0.4527380000000 1.0
C      1  0.5726470000000  0.4738120000000  0.4184620000000 1.0
C      1  0.5727070000000  0.5279720000000  0.4212010000000 1.0
C      1  0.5676010000000  0.5726900000000  0.4568030000000 1.0
C      1  0.5561310000000  0.5678280000000  0.5124330000000 1.0
C      1  0.5735350000000  0.5465030000000  0.5618560000000 1.0
C      1  0.5783400000000  0.4980120000000  0.5808830000000 1.0
C      1  0.5118910000000  0.3858460000000  0.4894090000000 1.0
C      1  0.5209690000000  0.4181410000000  0.4254080000000 1.0
C      1  0.5388420000000  0.5126030000000  0.3835160000000 1.0
C      1  0.5196200000000  0.5744340000000  0.4162360000000 1.0
C      1  0.5225770000000  0.6210550000000  0.4914930000000 1.0
C      1  0.5174800000000  0.5987310000000  0.5527850000000 1.0
C      1  0.5256080000000  0.5191650000000  0.6237030000000 1.0
C      1  0.5177540000000  0.4466620000000  0.5992390000000 1.0
C      1  0.5111540000000  0.4044850000000  0.5602900000000 1.0
C      1  0.4766850000000  0.5969440000000  0.4653720000000 1.0
C      1  0.4617100000000  0.5950310000000  0.5396220000000 1.0
C      1  0.4810470000000  0.5539630000000  0.5986960000000 1.0
C      1  0.4727660000000  0.4828370000000  0.6088190000000 1.0
C      1  0.4528270000000  0.4222540000000  0.5595140000000 1.0
C      1  0.4479290000000  0.4036880000000  0.4837660000000 1.0
C      1  0.4680870000000  0.4222350000000  0.4265210000000 1.0
C      1  0.4921740000000  0.4840510000000  0.3950540000000 1.0
C      1  0.4712830000000  0.5529110000000  0.4130370000000 1.0
C      1  0.3828850000000  0.4707080000000  0.5336110000000 1.0
C      1  0.3938510000000  0.4572270000000  0.5109400000000 1.0
C      1  0.3889470000000  0.4624390000000  0.4802340000000 1.0
C      1  0.3763530000000  0.4790830000000  0.4614700000000 1.0
C      1  0.3860520000000  0.5053140000000  0.4570920000000 1.0
C      1  0.3766710000000  0.5283420000000  0.4754350000000 1.0
C      1  0.3879420000000  0.5279250000000  0.5041810000000 1.0
C      1  0.3799920000000  0.5186580000000  0.5292540000000 1.0
C      1  0.3924720000000  0.4964080000000  0.5413320000000 1.0
C      1  0.5568290000000  0.5751130000000  0.4820280000000 1.0
C      1  0.5619720000000  0.5628410000000  0.5415640000000 1.0
C      1  0.5648420000000  0.5229700000000  0.5759750000000 1.0
C      1  0.5683370000000  0.4720890000000  0.5736240000000 1.0
C      1  0.5687630000000  0.4392830000000  0.5376760000000 1.0
C      1  0.5623990000000  0.4293330000000  0.4789560000000 1.0
C      1  0.5618690000000  0.4516970000000  0.4336100000000 1.0
C      1  0.5634240000000  0.5008600000000  0.4219770000000 1.0
C      1  0.5645490000000  0.5499980000000  0.4371540000000 1.0
C      1  0.5130920000000  0.5554180000000  0.4395050000000 1.0
C      1  0.5120930000000  0.5984320000000  0.4995270000000 1.0
C      1  0.5020880000000  0.5730930000000  0.5484350000000 1.0
C      1  0.5185400000000  0.5144170000000  0.5975000000000 1.0
C      1  0.5164050000000  0.4658840000000  0.5801710000000 1.0
C      1  0.5117160000000  0.4252240000000  0.5445490000000 1.0
C      1  0.5043470000000  0.4148480000000  0.4805880000000 1.0
C      1  0.5086420000000  0.4439640000000  0.4323450000000 1.0
C      1  0.5244370000000  0.5152400000000  0.4051980000000 1.0
C      1  0.6527170000000  0.5275910000000  0.5047090000000 1.0
C      1  0.6435820000000  0.5133610000000  0.5261120000000 1.0
C      1  0.6220210000000  0.4970690000000  0.5295700000000 1.0
C      1  0.6041190000000  0.4839370000000  0.5140800000000 1.0
C      1  0.5859750000000  0.4854380000000  0.4940690000000 1.0
C      1  0.5817470000000  0.4984570000000  0.4696960000000 1.0
C      1  0.6040240000000  0.5113160000000  0.4592210000000 1.0
C      1  0.6240620000000  0.5291530000000  0.4627340000000 1.0
C      1  0.6417040000000  0.5371450000000  0.4817530000000 1.0
C      1  0.4181820000000  0.5079430000000  0.4559330000000 1.0
C      1  0.4084240000000  0.5348700000000  0.4711020000000 1.0
C      1  0.4205230000000  0.5307310000000  0.5005240000000 1.0
C      1  0.4302060000000  0.5283920000000  0.5305150000000 1.0
C      1  0.4229870000000  0.5008100000000  0.5465350000000 1.0
C      1  0.4352110000000  0.4724810000000  0.5415040000000 1.0
C      1  0.4258960000000  0.4625190000000  0.5125160000000 1.0
C      1  0.4190180000000  0.4649380000000  0.4815440000000 1.0
C      1  0.4358680000000  0.4805700000000  0.4630480000000 1.0
C      1  0.4632580000000  0.4286230000000  0.5902290000000 1.0
C      1  0.4611410000000  0.4030790000000  0.5090980000000 1.0
C      1  0.4902630000000  0.4112050000000  0.4498330000000 1.0
C      1  0.4966780000000  0.4588600000000  0.4047920000000 1.0
C      1  0.4991630000000  0.5348970000000  0.4083900000000 1.0
C      1  0.4994060000000  0.5855160000000  0.4474600000000 1.0
C      1  0.4876280000000  0.5977020000000  0.5205550000000 1.0
C      1  0.4863190000000  0.5712730000000  0.5773870000000 1.0
C      1  0.4889780000000  0.5053400000000  0.5921020000000 1.0
C      1  0.5356380000000  0.5354680000000  0.5294950000000 1.0
C      1  0.5265100000000  0.5147880000000  0.5484600000000 1.0
C      1  0.5375200000000  0.4879120000000  0.5425600000000 1.0
C      1  0.5418980000000  0.4752220000000  0.5163870000000 1.0
C      1  0.5452070000000  0.4630070000000  0.4912910000000 1.0
C      1  0.5378710000000  0.4762400000000  0.4646230000000 1.0
C      1  0.5534930000000  0.5021400000000  0.4605800000000 1.0
C      1  0.5409510000000  0.5268050000000  0.4724500000000 1.0
C      1  0.5377960000000  0.5314700000000  0.5022300000000 1.0
C      1  0.4826710000000  0.4266000000000  0.5027310000000 1.0
C      1  0.4842280000000  0.4436130000000  0.4560720000000 1.0
C      1  0.4795870000000  0.4774930000000  0.4354920000000 1.0
C      1  0.4898920000000  0.5305310000000  0.4401160000000 1.0
C      1  0.4834730000000  0.5582710000000  0.4718560000000 1.0
C      1  0.4815800000000  0.5648490000000  0.5225610000000 1.0
C      1  0.4715520000000  0.5404380000000  0.5566450000000 1.0
C      1  0.4913550000000  0.4798100000000  0.5735990000000 1.0
C      1  0.4883390000000  0.4471680000000  0.5410160000000 1.0
C      1  0.4518260000000  0.5539270000000  0.3957710000000 1.0
C      1  0.4521610000000  0.5933080000000  0.4484030000000 1.0
C      1  0.4419980000000  0.6139140000000  0.5381120000000 1.0
C      1  0.4819230000000  0.5592610000000  0.6248880000000 1.0
C      1  0.4714360000000  0.4866180000000  0.6360930000000 1.0
C      1  0.4379940000000  0.4458190000000  0.5774170000000 1.0
C      1  0.4257990000000  0.3895100000000  0.4782680000000 1.0
C      1  0.4499460000000  0.4043880000000  0.4163980000000 1.0
C      1  0.4873750000000  0.4896700000000  0.3686040000000 1.0
C      1  0.5403690000000  0.4734480000000  0.5668320000000 1.0
C      1  0.5365920000000  0.4345280000000  0.5291050000000 1.0
C      1  0.5303340000000  0.4332710000000  0.4852330000000 1.0
C      1  0.5352130000000  0.4579780000000  0.4416460000000 1.0
C      1  0.5326190000000  0.5009900000000  0.4337330000000 1.0
C      1  0.5386140000000  0.5456630000000  0.4517950000000 1.0
C      1  0.5262480000000  0.5707550000000  0.4962640000000 1.0
C      1  0.5304050000000  0.5624000000000  0.5421910000000 1.0
C      1  0.5360910000000  0.5203310000000  0.5769280000000 1.0
C      1  0.4553050000000  0.5061180000000  0.5373620000000 1.0
C      1  0.4746710000000  0.4783210000000  0.5439260000000 1.0
C      1  0.4580540000000  0.4651960000000  0.5173040000000 1.0
C      1  0.4739330000000  0.4661340000000  0.4928820000000 1.0
C      1  0.4650150000000  0.4700500000000  0.4637990000000 1.0
C      1  0.4502370000000  0.5093600000000  0.4519540000000 1.0
C      1  0.4712230000000  0.5271500000000  0.4683370000000 1.0
C      1  0.4522810000000  0.5303570000000  0.4963960000000 1.0
C      1  0.4688860000000  0.5339480000000  0.5232850000000 1.0
C      1  0.4600470000000  0.4612400000000  0.5971330000000 1.0
C      1  0.4680360000000  0.4239080000000  0.5339180000000 1.0
C      1  0.4617740000000  0.4194780000000  0.4657930000000 1.0
C      1  0.4713520000000  0.4486740000000  0.4188310000000 1.0
C      1  0.4846770000000  0.5056790000000  0.4171550000000 1.0
C      1  0.4722460000000  0.5662810000000  0.4404960000000 1.0
C      1  0.4766450000000  0.5813810000000  0.4931450000000 1.0
C      1  0.4630570000000  0.5734170000000  0.5568420000000 1.0
C      1  0.4729440000000  0.5294790000000  0.5861250000000 1.0
END
