TITL C-2622965-4321-156 0.000329719208072748 125000 -783.101475363667 0 0 132 (C1) n - 1
REM
REM in /nfs/bkarasulu/CARBON/AIRSS/Generating-Clusters/AIREBO/with-SteepDescent/Higher-Symm/SD-CG/HFTN-CG
REM
REM
REM
REM
REM
REM ./C.cell (b20cbc046b6831c77cfcea5457e17084)
REM
REM compiler GCC version 9.2.1 20190827 (Red Hat 9.2.1-1)
REM options -cpp -mtune=generic -march=x86-64 -g -O0 -fpre-include=/usr/include/finclude/math-vector-fortran.h
REM seed 275533234 1182241135 831183326 -764935478 -1933031465 -199396817 -1908231985 1703616585 -1507608555 -1881434724 -1260883347 339743377 696979092 1687096228 -784295908 1667545796 -2079391060 -125476238 -1402916893 803170126 -1529696996 1771382406 507755933 -1273595785 -581811064 -1881671363 -781470927 1354418504 2008674795 1007866704 -904678121 -1161248275 -224699132
REM
CELL 1.54180   50.00000   50.00000   50.00000   90.00000   90.00000   90.00000
LATT -1
SFAC C  
C      1  0.5113830000000  0.5420440000000  0.4811450000000 1.0
C      1  0.4797970000000  0.4985610000000  0.5442580000000 1.0
C      1  0.5485670000000  0.4768170000000  0.4933940000000 1.0
C      1  0.5040500000000  0.4553870000000  0.4850310000000 1.0
C      1  0.5023560000000  0.5475700000000  0.5227070000000 1.0
C      1  0.4935290000000  0.4592430000000  0.5231320000000 1.0
C      1  0.5366660000000  0.4994520000000  0.5411440000000 1.0
C      1  0.5135490000000  0.4944310000000  0.4557300000000 1.0
C      1  0.4743550000000  0.4974540000000  0.4623090000000 1.0
C      1  0.4554000000000  0.5343490000000  0.5047590000000 1.0
C      1  0.4509140000000  0.4825990000000  0.5072320000000 1.0
C      1  0.5476680000000  0.5289480000000  0.4908420000000 1.0
C      1  0.5401360000000  0.5016670000000  0.4735100000000 1.0
C      1  0.5096520000000  0.4830700000000  0.5391560000000 1.0
C      1  0.4833620000000  0.5468380000000  0.4961080000000 1.0
C      1  0.4503090000000  0.5018530000000  0.4810480000000 1.0
C      1  0.5510450000000  0.5055430000000  0.5117530000000 1.0
C      1  0.4574090000000  0.5102040000000  0.5220380000000 1.0
C      1  0.4836790000000  0.5299640000000  0.5447390000000 1.0
C      1  0.4950550000000  0.5227630000000  0.4594930000000 1.0
C      1  0.4913980000000  0.4707710000000  0.4607150000000 1.0
C      1  0.5243480000000  0.4615810000000  0.5088290000000 1.0
C      1  0.4730980000000  0.4613410000000  0.4978180000000 1.0
C      1  0.5311510000000  0.5517570000000  0.5071150000000 1.0
C      1  0.4765380000000  0.4617410000000  0.4164580000000 1.0
C      1  0.4244850000000  0.4778660000000  0.4564940000000 1.0
C      1  0.4627890000000  0.4209820000000  0.4756090000000 1.0
C      1  0.5248880000000  0.5390010000000  0.4262610000000 1.0
C      1  0.5240750000000  0.4591220000000  0.5809580000000 1.0
C      1  0.4741270000000  0.5463070000000  0.5799550000000 1.0
C      1  0.5852930000000  0.5196000000000  0.4619410000000 1.0
C      1  0.5818650000000  0.4788570000000  0.5430870000000 1.0
C      1  0.4209280000000  0.5168240000000  0.5368160000000 1.0
C      1  0.5412080000000  0.5805440000000  0.4812480000000 1.0
C      1  0.5342860000000  0.4246820000000  0.5203640000000 1.0
C      1  0.4528970000000  0.5827830000000  0.5173710000000 1.0
C      1  0.4556150000000  0.4826680000000  0.4178810000000 1.0
C      1  0.4805540000000  0.4235730000000  0.4524460000000 1.0
C      1  0.4257540000000  0.4583130000000  0.4792530000000 1.0
C      1  0.5468370000000  0.5201840000000  0.4259160000000 1.0
C      1  0.4605250000000  0.5206830000000  0.5760060000000 1.0
C      1  0.5469190000000  0.4787350000000  0.5833680000000 1.0
C      1  0.5199360000000  0.5768830000000  0.4635880000000 1.0
C      1  0.4760130000000  0.5819790000000  0.5366460000000 1.0
C      1  0.5145240000000  0.4293080000000  0.5392020000000 1.0
C      1  0.5856760000000  0.5382440000000  0.4827840000000 1.0
C      1  0.4169260000000  0.5357250000000  0.5162410000000 1.0
C      1  0.5773840000000  0.4605620000000  0.5201070000000 1.0
C      1  0.5920500000000  0.4972070000000  0.5162270000000 1.0
C      1  0.5313160000000  0.5937830000000  0.5062080000000 1.0
C      1  0.4980030000000  0.5242720000000  0.5894570000000 1.0
C      1  0.4154770000000  0.4893720000000  0.5352780000000 1.0
C      1  0.4091440000000  0.4944030000000  0.4819540000000 1.0
C      1  0.5855580000000  0.4900530000000  0.4634080000000 1.0
C      1  0.4789260000000  0.4112300000000  0.5017450000000 1.0
C      1  0.4801820000000  0.5866840000000  0.4973220000000 1.0
C      1  0.5308130000000  0.4146370000000  0.4945780000000 1.0
C      1  0.4980860000000  0.4708590000000  0.5954620000000 1.0
C      1  0.5006880000000  0.5277230000000  0.4087160000000 1.0
C      1  0.5034850000000  0.4740040000000  0.4056650000000 1.0
C      1  0.5048300000000  0.5872430000000  0.5193810000000 1.0
C      1  0.5968910000000  0.5290780000000  0.5068760000000 1.0
C      1  0.5187820000000  0.4973650000000  0.5903090000000 1.0
C      1  0.4881560000000  0.4202370000000  0.5301340000000 1.0
C      1  0.5023900000000  0.4164270000000  0.4775500000000 1.0
C      1  0.4925330000000  0.5829050000000  0.4658380000000 1.0
C      1  0.4120830000000  0.4736390000000  0.5064490000000 1.0
C      1  0.5883660000000  0.4752360000000  0.4914460000000 1.0
C      1  0.4014730000000  0.5250100000000  0.4946070000000 1.0
C      1  0.4796230000000  0.4960560000000  0.5841290000000 1.0
C      1  0.5206660000000  0.5004340000000  0.4168680000000 1.0
C      1  0.4819390000000  0.5002060000000  0.4069800000000 1.0
C      1  0.4142900000000  0.5625960000000  0.4572160000000 1.0
C      1  0.4637150000000  0.4216590000000  0.5639610000000 1.0
C      1  0.5675060000000  0.4435390000000  0.4089000000000 1.0
C      1  0.5789470000000  0.4353820000000  0.4544400000000 1.0
C      1  0.5840500000000  0.5639570000000  0.5517220000000 1.0
C      1  0.4231500000000  0.4346010000000  0.5409690000000 1.0
C      1  0.5385180000000  0.5774040000000  0.5632540000000 1.0
C      1  0.5346610000000  0.4207020000000  0.4374160000000 1.0
C      1  0.4539130000000  0.5806220000000  0.4363050000000 1.0
C      1  0.4377040000000  0.5397930000000  0.4197630000000 1.0
C      1  0.4256060000000  0.4394400000000  0.5887560000000 1.0
C      1  0.5529330000000  0.5352680000000  0.5788040000000 1.0
C      1  0.5578400000000  0.4124940000000  0.4516600000000 1.0
C      1  0.4179610000000  0.4504620000000  0.5636760000000 1.0
C      1  0.4417460000000  0.5677200000000  0.4139100000000 1.0
C      1  0.4388800000000  0.5783790000000  0.4603310000000 1.0
C      1  0.5604370000000  0.5792450000000  0.5454180000000 1.0
C      1  0.4443640000000  0.4130530000000  0.5445000000000 1.0
C      1  0.5750970000000  0.5354730000000  0.5625570000000 1.0
C      1  0.4210480000000  0.5371490000000  0.4428740000000 1.0
C      1  0.5792710000000  0.4533610000000  0.4329220000000 1.0
C      1  0.5405050000000  0.4356800000000  0.4122620000000 1.0
C      1  0.4531510000000  0.4331250000000  0.5897030000000 1.0
C      1  0.5439150000000  0.5613030000000  0.5860320000000 1.0
C      1  0.5089660000000  0.5403510000000  0.5613970000000 1.0
C      1  0.5722860000000  0.5167240000000  0.5358370000000 1.0
C      1  0.5512330000000  0.5753960000000  0.5195100000000 1.0
C      1  0.4731660000000  0.4570330000000  0.5798550000000 1.0
C      1  0.4856550000000  0.5408210000000  0.4360830000000 1.0
C      1  0.5220590000000  0.4573340000000  0.4284600000000 1.0
C      1  0.4272070000000  0.4762910000000  0.5574940000000 1.0
C      1  0.4267940000000  0.5165920000000  0.4650650000000 1.0
C      1  0.5703040000000  0.4782710000000  0.4423280000000 1.0
C      1  0.4508220000000  0.4233040000000  0.5152900000000 1.0
C      1  0.4596730000000  0.5664800000000  0.4816150000000 1.0
C      1  0.5537950000000  0.4196540000000  0.4803960000000 1.0
C      1  0.5307910000000  0.5177900000000  0.5676510000000 1.0
C      1  0.5134340000000  0.5690330000000  0.5467780000000 1.0
C      1  0.5912650000000  0.5463010000000  0.5287110000000 1.0
C      1  0.4570080000000  0.4819810000000  0.5633160000000 1.0
C      1  0.5403840000000  0.4828740000000  0.4383170000000 1.0
C      1  0.4622100000000  0.5253250000000  0.4186870000000 1.0
C      1  0.4793630000000  0.4456550000000  0.5490030000000 1.0
C      1  0.5164190000000  0.4399380000000  0.4573620000000 1.0
C      1  0.4795940000000  0.5711570000000  0.4431750000000 1.0
C      1  0.4358180000000  0.4538900000000  0.5175520000000 1.0
C      1  0.5676370000000  0.4506760000000  0.4827850000000 1.0
C      1  0.4351090000000  0.5436530000000  0.4796830000000 1.0
C      1  0.5590800000000  0.4844720000000  0.5584940000000 1.0
C      1  0.4461290000000  0.5189930000000  0.5528910000000 1.0
C      1  0.4475590000000  0.4872220000000  0.4440470000000 1.0
C      1  0.5584150000000  0.5163040000000  0.4505500000000 1.0
C      1  0.4371400000000  0.5596650000000  0.5160140000000 1.0
C      1  0.5532460000000  0.4474680000000  0.5199430000000 1.0
C      1  0.4751780000000  0.5612850000000  0.5549000000000 1.0
C      1  0.5611410000000  0.5588590000000  0.4818780000000 1.0
C      1  0.5180350000000  0.4536900000000  0.5541010000000 1.0
C      1  0.5217020000000  0.5510070000000  0.4500000000000 1.0
C      1  0.4506520000000  0.4452630000000  0.4817120000000 1.0
C      1  0.4811460000000  0.4493980000000  0.4411800000000 1.0
END
