TITL C-2622958-629-688 -0.00304840331214878 125000 -677.727732394392 0 0 134 (C1) n - 1
REM
REM in /nfs/bkarasulu/CARBON/AIRSS/Generating-Clusters/AIREBO/with-SteepDescent/Higher-Symm/SD-CG/HFTN-CG
REM
REM
REM
REM
REM
REM ./C.cell (b20cbc046b6831c77cfcea5457e17084)
REM
REM compiler GCC version 9.2.1 20190827 (Red Hat 9.2.1-1)
REM options -cpp -mtune=generic -march=x86-64 -g -O0 -fpre-include=/usr/include/finclude/math-vector-fortran.h
REM seed -2085740198 1187523695 1413981036 1815574639 -130759622 2017368825 36282770 957753400 657700794 -1495136479 -1793148861 1157315307 -465876430 1066055597 -1678805185 17370714 -1045001512 1876860031 -1219848267 -1257306749 1062300254 -330840258 -2147028780 610576243 -1422433351 189144713 -1717375160 1273342492 541810635 -1637537162 8396530 930091531 973840112
REM
CELL 1.54180   50.00000   50.00000   50.00000   90.00000   90.00000   90.00000
LATT -1
SFAC C  
C      1  0.4816840000000  0.4557960000000  0.4276010000000 1.0
C      1  0.5751970000000  0.4559310000000  0.5176920000000 1.0
C      1  0.4523050000000  0.4570460000000  0.5522160000000 1.0
C      1  0.5225330000000  0.5405890000000  0.4278740000000 1.0
C      1  0.4267670000000  0.5332070000000  0.5121810000000 1.0
C      1  0.5487560000000  0.5441350000000  0.5518720000000 1.0
C      1  0.5215930000000  0.5511310000000  0.5712210000000 1.0
C      1  0.4336420000000  0.5470000000000  0.4818730000000 1.0
C      1  0.5500400000000  0.5480990000000  0.4463970000000 1.0
C      1  0.4763770000000  0.4503480000000  0.5760340000000 1.0
C      1  0.5771420000000  0.4509250000000  0.4824690000000 1.0
C      1  0.4513920000000  0.4609650000000  0.4483230000000 1.0
C      1  0.4358180000000  0.5992950000000  0.5050570000000 1.0
C      1  0.5164010000000  0.6186430000000  0.4629690000000 1.0
C      1  0.5085400000000  0.5760580000000  0.5580110000000 1.0
C      1  0.5511960000000  0.3878810000000  0.4957080000000 1.0
C      1  0.4455410000000  0.3990560000000  0.4759830000000 1.0
C      1  0.4918770000000  0.4249170000000  0.5682420000000 1.0
C      1  0.5536350000000  0.3947360000000  0.5268760000000 1.0
C      1  0.4764960000000  0.4017200000000  0.5527810000000 1.0
C      1  0.4748480000000  0.3905360000000  0.4628810000000 1.0
C      1  0.4450090000000  0.5936270000000  0.5343810000000 1.0
C      1  0.5296960000000  0.5982490000000  0.5491850000000 1.0
C      1  0.4942190000000  0.5995840000000  0.4476240000000 1.0
C      1  0.5146200000000  0.5211350000000  0.5567860000000 1.0
C      1  0.4307210000000  0.5145930000000  0.4770640000000 1.0
C      1  0.5425530000000  0.5152980000000  0.4513220000000 1.0
C      1  0.4840470000000  0.4796990000000  0.5606760000000 1.0
C      1  0.5653110000000  0.4818160000000  0.4890930000000 1.0
C      1  0.4521520000000  0.4949410000000  0.4496200000000 1.0
C      1  0.4739070000000  0.4848930000000  0.4257670000000 1.0
C      1  0.5703630000000  0.4894680000000  0.5206690000000 1.0
C      1  0.4526620000000  0.4886340000000  0.5627470000000 1.0
C      1  0.5173730000000  0.5069900000000  0.4303220000000 1.0
C      1  0.4396230000000  0.5043220000000  0.5246880000000 1.0
C      1  0.5444130000000  0.5109630000000  0.5500190000000 1.0
C      1  0.5017550000000  0.5331040000000  0.5924640000000 1.0
C      1  0.4227060000000  0.5348110000000  0.4518390000000 1.0
C      1  0.5805810000000  0.5375500000000  0.4573530000000 1.0
C      1  0.4987780000000  0.4679790000000  0.5945920000000 1.0
C      1  0.5823200000000  0.4707230000000  0.4548340000000 1.0
C      1  0.4202560000000  0.4721740000000  0.4563140000000 1.0
C      1  0.5056860000000  0.4559540000000  0.4074310000000 1.0
C      1  0.5816640000000  0.4647610000000  0.5498890000000 1.0
C      1  0.4216750000000  0.4713400000000  0.5459370000000 1.0
C      1  0.5010780000000  0.5324790000000  0.4042740000000 1.0
C      1  0.4313860000000  0.5372410000000  0.5456850000000 1.0
C      1  0.5801270000000  0.5305410000000  0.5510910000000 1.0
C      1  0.5707990000000  0.5004030000000  0.5627420000000 1.0
C      1  0.4101620000000  0.5099840000000  0.5400940000000 1.0
C      1  0.5150800000000  0.5014940000000  0.3968460000000 1.0
C      1  0.4215890000000  0.4962980000000  0.5690460000000 1.0
C      1  0.5967250000000  0.4950430000000  0.5414070000000 1.0
C      1  0.4812570000000  0.4998330000000  0.3999170000000 1.0
C      1  0.4218360000000  0.4988780000000  0.4347280000000 1.0
C      1  0.5844780000000  0.4999570000000  0.4720700000000 1.0
C      1  0.4833600000000  0.4979160000000  0.5893800000000 1.0
C      1  0.5728680000000  0.5073490000000  0.4418690000000 1.0
C      1  0.4022170000000  0.5074740000000  0.4611340000000 1.0
C      1  0.5156870000000  0.5028840000000  0.5854570000000 1.0
C      1  0.4986910000000  0.4130710000000  0.4718500000000 1.0
C      1  0.5268730000000  0.4123220000000  0.5142270000000 1.0
C      1  0.4709720000000  0.4138720000000  0.5222590000000 1.0
C      1  0.4918340000000  0.6031920000000  0.4794610000000 1.0
C      1  0.4713720000000  0.6022560000000  0.5201930000000 1.0
C      1  0.5275980000000  0.5952610000000  0.5153810000000 1.0
C      1  0.4965610000000  0.5923100000000  0.5288460000000 1.0
C      1  0.4652860000000  0.5915000000000  0.4896900000000 1.0
C      1  0.5274670000000  0.5962430000000  0.4848510000000 1.0
C      1  0.5025890000000  0.4068440000000  0.5321520000000 1.0
C      1  0.5273570000000  0.4083100000000  0.4826190000000 1.0
C      1  0.4738220000000  0.4039490000000  0.4939320000000 1.0
C      1  0.5236910000000  0.4408990000000  0.4397340000000 1.0
C      1  0.5462020000000  0.4206610000000  0.5476470000000 1.0
C      1  0.4296180000000  0.4428520000000  0.5017700000000 1.0
C      1  0.4906310000000  0.5728730000000  0.4420970000000 1.0
C      1  0.4501700000000  0.5653690000000  0.5422090000000 1.0
C      1  0.5633530000000  0.5550390000000  0.5139870000000 1.0
C      1  0.4822830000000  0.5586830000000  0.5451120000000 1.0
C      1  0.4677060000000  0.5585990000000  0.4403770000000 1.0
C      1  0.5659670000000  0.5590490000000  0.4809140000000 1.0
C      1  0.5194770000000  0.4345090000000  0.5550680000000 1.0
C      1  0.5462250000000  0.4312480000000  0.4516030000000 1.0
C      1  0.4430220000000  0.4274770000000  0.4840600000000 1.0
C      1  0.5384870000000  0.5657510000000  0.5282940000000 1.0
C      1  0.4568880000000  0.5468600000000  0.5165830000000 1.0
C      1  0.5122340000000  0.5554580000000  0.4571280000000 1.0
C      1  0.4623700000000  0.4467210000000  0.5242840000000 1.0
C      1  0.5535720000000  0.4331260000000  0.5175050000000 1.0
C      1  0.4943150000000  0.4431600000000  0.4565300000000 1.0
C      1  0.4643940000000  0.4438800000000  0.4702620000000 1.0
C      1  0.5462440000000  0.4368660000000  0.4845150000000 1.0
C      1  0.5014070000000  0.4400760000000  0.5265930000000 1.0
C      1  0.5389280000000  0.5729570000000  0.4667760000000 1.0
C      1  0.4658630000000  0.5577100000000  0.4856850000000 1.0
C      1  0.5064080000000  0.5605970000000  0.5212030000000 1.0
C      1  0.4994440000000  0.4704410000000  0.5224280000000 1.0
C      1  0.4794050000000  0.4907070000000  0.4816250000000 1.0
C      1  0.5342770000000  0.4686880000000  0.4836660000000 1.0
C      1  0.5076360000000  0.5276960000000  0.5248550000000 1.0
C      1  0.5266080000000  0.5206300000000  0.4791200000000 1.0
C      1  0.4730230000000  0.5239350000000  0.4851850000000 1.0
C      1  0.4999790000000  0.5257120000000  0.4650040000000 1.0
C      1  0.5235750000000  0.5115340000000  0.5069740000000 1.0
C      1  0.4787390000000  0.5239420000000  0.5185150000000 1.0
C      1  0.5023520000000  0.4726930000000  0.4713400000000 1.0
C      1  0.4711950000000  0.4770420000000  0.5116570000000 1.0
C      1  0.5249070000000  0.4825570000000  0.5112130000000 1.0
C      1  0.4396000000000  0.5243660000000  0.5744330000000 1.0
C      1  0.4673640000000  0.5280560000000  0.4044510000000 1.0
C      1  0.5961580000000  0.5234780000000  0.5218660000000 1.0
C      1  0.5618300000000  0.4731670000000  0.5762080000000 1.0
C      1  0.5330750000000  0.4758900000000  0.4107610000000 1.0
C      1  0.4060200000000  0.4836740000000  0.5183140000000 1.0
C      1  0.5636430000000  0.4775380000000  0.4271200000000 1.0
C      1  0.5303280000000  0.4737890000000  0.5823990000000 1.0
C      1  0.4073460000000  0.4831420000000  0.4843370000000 1.0
C      1  0.4418870000000  0.5250930000000  0.4254720000000 1.0
C      1  0.4683070000000  0.5274950000000  0.5875580000000 1.0
C      1  0.5896350000000  0.5268910000000  0.4883540000000 1.0
C      1  0.5428770000000  0.4797460000000  0.5368700000000 1.0
C      1  0.4373710000000  0.4740810000000  0.5093040000000 1.0
C      1  0.5171630000000  0.4744230000000  0.4407820000000 1.0
C      1  0.4644270000000  0.5092400000000  0.5422570000000 1.0
C      1  0.5626810000000  0.5214520000000  0.5168360000000 1.0
C      1  0.4876710000000  0.5101560000000  0.4394740000000 1.0
C      1  0.4619340000000  0.5274860000000  0.4528380000000 1.0
C      1  0.5556820000000  0.5278240000000  0.4867220000000 1.0
C      1  0.4820630000000  0.5305540000000  0.5578010000000 1.0
C      1  0.5447030000000  0.4823810000000  0.4549430000000 1.0
C      1  0.4466800000000  0.4902000000000  0.4827960000000 1.0
C      1  0.5149760000000  0.4681220000000  0.5525910000000 1.0
C      1  0.4996580000000  0.5603230000000  0.4883540000000 1.0
C      1  0.4831320000000  0.4423850000000  0.4976970000000 1.0
END
