TITL C-2622954-8726-801 0.00406751844379546 125000 -744.409647081101 0 0 124 (C1) n - 1
REM
REM in /nfs/bkarasulu/CARBON/AIRSS/Generating-Clusters/AIREBO/with-SteepDescent/Higher-Symm/SD-CG/HFTN-CG
REM
REM
REM
REM
REM
REM ./C.cell (b20cbc046b6831c77cfcea5457e17084)
REM
REM compiler GCC version 9.2.1 20190827 (Red Hat 9.2.1-1)
REM options -cpp -mtune=generic -march=x86-64 -g -O0 -fpre-include=/usr/include/finclude/math-vector-fortran.h
REM seed -500664245 1965335726 -1819013549 -2105315470 451548924 -1558452634 -1449757587 1870970317 -1699520953 -1091411904 -1877651573 -914791623 1192078494 -1279005812 1928099708 1316619472 -1485132613 -1315307850 -1686563773 532770268 -869366298 650982565 -193088985 -12099832 997737513 -1655762888 -874887928 2102348871 -428661958 32700016 1507999173 -1894995080 1227561088
REM
CELL 1.54180   50.00000   50.00000   50.00000   90.00000   90.00000   90.00000
LATT -1
SFAC C  
C      1  0.5226140000000  0.4996070000000  0.4484650000000 1.0
C      1  0.4532080000000  0.5192090000000  0.4963280000000 1.0
C      1  0.4984960000000  0.4598450000000  0.5181510000000 1.0
C      1  0.4700060000000  0.5017660000000  0.4514650000000 1.0
C      1  0.4727800000000  0.5017150000000  0.5437210000000 1.0
C      1  0.5237410000000  0.4981420000000  0.5431840000000 1.0
C      1  0.5395780000000  0.4801070000000  0.4944640000000 1.0
C      1  0.5437940000000  0.5194220000000  0.4976820000000 1.0
C      1  0.4536230000000  0.4795620000000  0.4988840000000 1.0
C      1  0.5000810000000  0.5417370000000  0.5180260000000 1.0
C      1  0.4943620000000  0.4616330000000  0.4685770000000 1.0
C      1  0.4982000000000  0.5385020000000  0.4778280000000 1.0
C      1  0.4965970000000  0.5195740000000  0.4547110000000 1.0
C      1  0.5116280000000  0.4706320000000  0.4924390000000 1.0
C      1  0.4507430000000  0.5010720000000  0.5235800000000 1.0
C      1  0.4944430000000  0.4806590000000  0.4464040000000 1.0
C      1  0.4967560000000  0.4801340000000  0.5397600000000 1.0
C      1  0.5003570000000  0.5198810000000  0.5395230000000 1.0
C      1  0.4739860000000  0.5393690000000  0.4978290000000 1.0
C      1  0.5248660000000  0.5420510000000  0.4967240000000 1.0
C      1  0.4738650000000  0.4581170000000  0.4950820000000 1.0
C      1  0.5451770000000  0.4972360000000  0.5231900000000 1.0
C      1  0.4497030000000  0.4981490000000  0.4722000000000 1.0
C      1  0.5452550000000  0.5004820000000  0.4695060000000 1.0
C      1  0.5373680000000  0.5203210000000  0.5822100000000 1.0
C      1  0.5898740000000  0.5348830000000  0.5071210000000 1.0
C      1  0.5252770000000  0.5836810000000  0.5365300000000 1.0
C      1  0.4644150000000  0.4738310000000  0.5847570000000 1.0
C      1  0.4606370000000  0.5153280000000  0.4068970000000 1.0
C      1  0.5376520000000  0.4741430000000  0.4215480000000 1.0
C      1  0.4093170000000  0.4606180000000  0.5122010000000 1.0
C      1  0.4148330000000  0.5389200000000  0.4798840000000 1.0
C      1  0.5921070000000  0.4841820000000  0.5092800000000 1.0
C      1  0.4878660000000  0.4139350000000  0.5283630000000 1.0
C      1  0.4855170000000  0.5868330000000  0.4687430000000 1.0
C      1  0.5073350000000  0.4146080000000  0.4759420000000 1.0
C      1  0.5144140000000  0.5360200000000  0.5857160000000 1.0
C      1  0.5441230000000  0.5839660000000  0.5166820000000 1.0
C      1  0.5926630000000  0.5130630000000  0.5272630000000 1.0
C      1  0.4875950000000  0.4589220000000  0.5841250000000 1.0
C      1  0.5145980000000  0.4567070000000  0.4215330000000 1.0
C      1  0.4805940000000  0.5376090000000  0.4132980000000 1.0
C      1  0.4590900000000  0.4153600000000  0.5141870000000 1.0
C      1  0.5031120000000  0.4023370000000  0.5002400000000 1.0
C      1  0.4670870000000  0.5881540000000  0.4894870000000 1.0
C      1  0.4110240000000  0.4749070000000  0.5356470000000 1.0
C      1  0.5921840000000  0.4790840000000  0.4627050000000 1.0
C      1  0.4106320000000  0.5217110000000  0.4586410000000 1.0
C      1  0.4251690000000  0.5626040000000  0.4728410000000 1.0
C      1  0.4715860000000  0.4223610000000  0.5565100000000 1.0
C      1  0.5598060000000  0.4574290000000  0.4337360000000 1.0
C      1  0.6075400000000  0.4794390000000  0.4855510000000 1.0
C      1  0.5890360000000  0.5608390000000  0.5140410000000 1.0
C      1  0.4134530000000  0.4325730000000  0.5154220000000 1.0
C      1  0.5333650000000  0.5813800000000  0.5625050000000 1.0
C      1  0.5309000000000  0.4233440000000  0.4633480000000 1.0
C      1  0.4725400000000  0.5851570000000  0.4439870000000 1.0
C      1  0.4414460000000  0.5349910000000  0.4190920000000 1.0
C      1  0.4421450000000  0.4595840000000  0.5783060000000 1.0
C      1  0.5607110000000  0.5349040000000  0.5734050000000 1.0
C      1  0.5521510000000  0.4262810000000  0.4809720000000 1.0
C      1  0.4198480000000  0.4601790000000  0.5568030000000 1.0
C      1  0.4593360000000  0.5609430000000  0.4261610000000 1.0
C      1  0.4410160000000  0.5889860000000  0.4793860000000 1.0
C      1  0.5716560000000  0.5806320000000  0.5215220000000 1.0
C      1  0.4362480000000  0.4219370000000  0.5285690000000 1.0
C      1  0.5822020000000  0.5249470000000  0.5573950000000 1.0
C      1  0.4173000000000  0.5312100000000  0.4327390000000 1.0
C      1  0.5799210000000  0.4558520000000  0.4532530000000 1.0
C      1  0.5334380000000  0.4382310000000  0.4385330000000 1.0
C      1  0.4847660000000  0.4310410000000  0.5790020000000 1.0
C      1  0.5228690000000  0.5635480000000  0.5872010000000 1.0
C      1  0.5334460000000  0.4921100000000  0.5746160000000 1.0
C      1  0.5726080000000  0.5259770000000  0.4834360000000 1.0
C      1  0.4988150000000  0.5721880000000  0.5301270000000 1.0
C      1  0.4653660000000  0.5028790000000  0.5752340000000 1.0
C      1  0.4642870000000  0.4891200000000  0.4216020000000 1.0
C      1  0.5326690000000  0.5055260000000  0.4178860000000 1.0
C      1  0.4231930000000  0.4730430000000  0.4884320000000 1.0
C      1  0.4237640000000  0.5265400000000  0.5086850000000 1.0
C      1  0.5643150000000  0.4646050000000  0.5102070000000 1.0
C      1  0.5141960000000  0.4333780000000  0.5226100000000 1.0
C      1  0.5088990000000  0.5689920000000  0.4720170000000 1.0
C      1  0.4841860000000  0.4310910000000  0.4674850000000 1.0
C      1  0.4885560000000  0.5272620000000  0.5700590000000 1.0
C      1  0.5355610000000  0.5721740000000  0.4908860000000 1.0
C      1  0.5708530000000  0.4920860000000  0.5384580000000 1.0
C      1  0.5091590000000  0.4711500000000  0.5685960000000 1.0
C      1  0.4855510000000  0.4652340000000  0.4177950000000 1.0
C      1  0.5080600000000  0.5281200000000  0.4246560000000 1.0
C      1  0.4609180000000  0.4291540000000  0.4882470000000 1.0
C      1  0.5453170000000  0.4359840000000  0.5091460000000 1.0
C      1  0.4711670000000  0.5686520000000  0.5120350000000 1.0
C      1  0.4202000000000  0.5037060000000  0.5337280000000 1.0
C      1  0.5762640000000  0.5040630000000  0.4589140000000 1.0
C      1  0.4192100000000  0.4935020000000  0.4628640000000 1.0
C      1  0.4226090000000  0.4501140000000  0.4664360000000 1.0
C      1  0.4732810000000  0.4238280000000  0.4394420000000 1.0
C      1  0.4367500000000  0.4741930000000  0.4214290000000 1.0
C      1  0.5704830000000  0.5509910000000  0.4640950000000 1.0
C      1  0.5901270000000  0.4469420000000  0.5235670000000 1.0
C      1  0.4264470000000  0.5510950000000  0.5285890000000 1.0
C      1  0.5265700000000  0.5692800000000  0.4458540000000 1.0
C      1  0.5344980000000  0.4329040000000  0.5473650000000 1.0
C      1  0.4772400000000  0.5736700000000  0.5535720000000 1.0
C      1  0.5598810000000  0.5193070000000  0.4139420000000 1.0
C      1  0.5589760000000  0.4763330000000  0.5805810000000 1.0
C      1  0.4376690000000  0.5168820000000  0.5786990000000 1.0
C      1  0.4351570000000  0.4289150000000  0.4713950000000 1.0
C      1  0.4174760000000  0.4767610000000  0.4370920000000 1.0
C      1  0.4698920000000  0.4386010000000  0.4194920000000 1.0
C      1  0.5584160000000  0.5722220000000  0.4697940000000 1.0
C      1  0.4457750000000  0.5667710000000  0.5299780000000 1.0
C      1  0.5693530000000  0.4298520000000  0.5292180000000 1.0
C      1  0.5778190000000  0.5178930000000  0.4314250000000 1.0
C      1  0.4195630000000  0.5179200000000  0.5613350000000 1.0
C      1  0.5757830000000  0.4756010000000  0.5616200000000 1.0
C      1  0.5270350000000  0.5529360000000  0.4271410000000 1.0
C      1  0.4716660000000  0.5537420000000  0.5677140000000 1.0
C      1  0.5328850000000  0.4503470000000  0.5651760000000 1.0
C      1  0.5772400000000  0.4329970000000  0.4699260000000 1.0
C      1  0.4414120000000  0.4335990000000  0.5563890000000 1.0
C      1  0.4391570000000  0.5791190000000  0.4466180000000 1.0
C      1  0.5547610000000  0.5630950000000  0.5780550000000 1.0
END
