TITL C-2622960-5345-126 0.000373896699232723 125000 -998.936173677767 0 0 183 (C1) n - 1
REM
REM in /nfs/bkarasulu/CARBON/AIRSS/Generating-Clusters/AIREBO/with-SteepDescent/Higher-Symm/SD-CG/HFTN-CG
REM
REM
REM
REM
REM
REM ./C.cell (b20cbc046b6831c77cfcea5457e17084)
REM
REM compiler GCC version 9.2.1 20190827 (Red Hat 9.2.1-1)
REM options -cpp -mtune=generic -march=x86-64 -g -O0 -fpre-include=/usr/include/finclude/math-vector-fortran.h
REM seed 2106606489 -1513979582 -1225014423 259105528 56268376 1087115070 785253457 752885141 -449558627 489770349 -273068007 2117487617 2044176429 1540209234 -1700904013 1269065922 1016571632 1968910885 997310533 -1416787592 674928901 -78945469 -1391106466 1229143597 22708198 1868128327 -1839558996 1550342465 387911653 -1867718221 -29742595 -2078693566 1898701844
REM
CELL 1.54180   50.00000   50.00000   50.00000   90.00000   90.00000   90.00000
LATT -1
SFAC C  
C      1  0.5386770000000  0.4318780000000  0.4272920000000 1.0
C      1  0.4174030000000  0.4278020000000  0.5008500000000 1.0
C      1  0.5459340000000  0.4422100000000  0.5673710000000 1.0
C      1  0.5419940000000  0.5648450000000  0.4286710000000 1.0
C      1  0.4164240000000  0.5608480000000  0.5028120000000 1.0
C      1  0.5432050000000  0.5659370000000  0.5711350000000 1.0
C      1  0.5994580000000  0.4681800000000  0.4740960000000 1.0
C      1  0.4259140000000  0.4729000000000  0.4292930000000 1.0
C      1  0.4742630000000  0.4763730000000  0.6063940000000 1.0
C      1  0.5954660000000  0.5262930000000  0.4732070000000 1.0
C      1  0.4265190000000  0.5306300000000  0.4273710000000 1.0
C      1  0.4716890000000  0.5094260000000  0.5988330000000 1.0
C      1  0.4846040000000  0.5235790000000  0.4144930000000 1.0
C      1  0.4329450000000  0.5133910000000  0.5523960000000 1.0
C      1  0.5803590000000  0.5188620000000  0.5292180000000 1.0
C      1  0.4822360000000  0.4891270000000  0.4133540000000 1.0
C      1  0.4346320000000  0.4801790000000  0.5554370000000 1.0
C      1  0.5853690000000  0.4848040000000  0.5286760000000 1.0
C      1  0.5230800000000  0.4813830000000  0.5267310000000 1.0
C      1  0.5127570000000  0.4782340000000  0.4653210000000 1.0
C      1  0.4669710000000  0.4749990000000  0.5028760000000 1.0
C      1  0.5208570000000  0.5235940000000  0.5228820000000 1.0
C      1  0.5120370000000  0.5224220000000  0.4676270000000 1.0
C      1  0.4658240000000  0.5220380000000  0.5023580000000 1.0
C      1  0.5303400000000  0.5141550000000  0.4950720000000 1.0
C      1  0.4817660000000  0.5141990000000  0.4733630000000 1.0
C      1  0.4882600000000  0.5138900000000  0.5229730000000 1.0
C      1  0.5299850000000  0.4834880000000  0.4941680000000 1.0
C      1  0.4828330000000  0.4835910000000  0.4740400000000 1.0
C      1  0.4892050000000  0.4833480000000  0.5244290000000 1.0
C      1  0.4850420000000  0.5720710000000  0.5831620000000 1.0
C      1  0.5740640000000  0.5723840000000  0.4728990000000 1.0
C      1  0.4413300000000  0.5767710000000  0.4538980000000 1.0
C      1  0.4920170000000  0.4153950000000  0.5937640000000 1.0
C      1  0.5811340000000  0.4276040000000  0.4609120000000 1.0
C      1  0.4159410000000  0.4307480000000  0.4455790000000 1.0
C      1  0.5499720000000  0.5646440000000  0.5317770000000 1.0
C      1  0.5032490000000  0.5659530000000  0.4378980000000 1.0
C      1  0.4514220000000  0.5659190000000  0.5324810000000 1.0
C      1  0.5536080000000  0.4314070000000  0.5286310000000 1.0
C      1  0.5008000000000  0.4372360000000  0.4389050000000 1.0
C      1  0.4514380000000  0.4351090000000  0.5264710000000 1.0
C      1  0.5989800000000  0.5539060000000  0.4769540000000 1.0
C      1  0.4302020000000  0.5600540000000  0.4267420000000 1.0
C      1  0.4728340000000  0.5437420000000  0.5978770000000 1.0
C      1  0.5965550000000  0.4399600000000  0.4798930000000 1.0
C      1  0.4270960000000  0.4448610000000  0.4247060000000 1.0
C      1  0.4808470000000  0.4443440000000  0.5960510000000 1.0
C      1  0.5519480000000  0.4728740000000  0.4594940000000 1.0
C      1  0.4348550000000  0.4707160000000  0.4706940000000 1.0
C      1  0.5034880000000  0.4793730000000  0.5615270000000 1.0
C      1  0.5582360000000  0.5244440000000  0.4588870000000 1.0
C      1  0.4421510000000  0.5246960000000  0.4702950000000 1.0
C      1  0.5055640000000  0.5295780000000  0.5683560000000 1.0
C      1  0.4409260000000  0.4834280000000  0.5230740000000 1.0
C      1  0.5535390000000  0.4882320000000  0.5402460000000 1.0
C      1  0.5093550000000  0.4870040000000  0.4326330000000 1.0
C      1  0.4378120000000  0.5160200000000  0.5206800000000 1.0
C      1  0.5500770000000  0.5210490000000  0.5401030000000 1.0
C      1  0.5106640000000  0.5193650000000  0.4337810000000 1.0
C      1  0.5732740000000  0.5611380000000  0.5559830000000 1.0
C      1  0.5151790000000  0.5637180000000  0.4077750000000 1.0
C      1  0.4221330000000  0.5567540000000  0.5360820000000 1.0
C      1  0.5744040000000  0.4404690000000  0.5492440000000 1.0
C      1  0.5137110000000  0.4476840000000  0.4114620000000 1.0
C      1  0.4216210000000  0.4485320000000  0.5261080000000 1.0
C      1  0.5633190000000  0.4856040000000  0.4221390000000 1.0
C      1  0.3996150000000  0.4810590000000  0.4863780000000 1.0
C      1  0.5327960000000  0.4863330000000  0.5943670000000 1.0
C      1  0.5669890000000  0.5193560000000  0.4202810000000 1.0
C      1  0.3984380000000  0.5148300000000  0.4810980000000 1.0
C      1  0.5323300000000  0.5197050000000  0.5960790000000 1.0
C      1  0.4518980000000  0.5537330000000  0.5730060000000 1.0
C      1  0.5971580000000  0.5692670000000  0.5045940000000 1.0
C      1  0.4600040000000  0.5701990000000  0.4193750000000 1.0
C      1  0.4508870000000  0.4338410000000  0.5837600000000 1.0
C      1  0.5895100000000  0.4331530000000  0.5111210000000 1.0
C      1  0.4561780000000  0.4361260000000  0.4174480000000 1.0
C      1  0.4536790000000  0.5150310000000  0.4229440000000 1.0
C      1  0.4598530000000  0.5089710000000  0.5670470000000 1.0
C      1  0.5850870000000  0.5111580000000  0.4987130000000 1.0
C      1  0.4538700000000  0.4846200000000  0.4281090000000 1.0
C      1  0.4563150000000  0.4780990000000  0.5799150000000 1.0
C      1  0.5845980000000  0.4815810000000  0.4969590000000 1.0
C      1  0.4787980000000  0.6077180000000  0.4666050000000 1.0
C      1  0.4807190000000  0.6094940000000  0.5258670000000 1.0
C      1  0.5363260000000  0.6074950000000  0.5037890000000 1.0
C      1  0.4869390000000  0.4048010000000  0.4734930000000 1.0
C      1  0.4796420000000  0.4048380000000  0.5376430000000 1.0
C      1  0.5320280000000  0.3955030000000  0.5007640000000 1.0
C      1  0.4756740000000  0.5541200000000  0.5486990000000 1.0
C      1  0.5614900000000  0.5513480000000  0.5044460000000 1.0
C      1  0.4748320000000  0.5555480000000  0.4442130000000 1.0
C      1  0.4655290000000  0.4451920000000  0.5552410000000 1.0
C      1  0.5593630000000  0.4404360000000  0.4987630000000 1.0
C      1  0.4709900000000  0.4426100000000  0.4452800000000 1.0
C      1  0.5021310000000  0.5874650000000  0.4800290000000 1.0
C      1  0.4760080000000  0.5872650000000  0.5005710000000 1.0
C      1  0.5116450000000  0.6086940000000  0.5135310000000 1.0
C      1  0.5105290000000  0.4235610000000  0.4822390000000 1.0
C      1  0.4878800000000  0.4215630000000  0.5173850000000 1.0
C      1  0.5175370000000  0.4236580000000  0.5132780000000 1.0
C      1  0.5850640000000  0.5101540000000  0.4460920000000 1.0
C      1  0.4160510000000  0.5188500000000  0.4538690000000 1.0
C      1  0.5004410000000  0.5239810000000  0.5997810000000 1.0
C      1  0.5825140000000  0.4771470000000  0.4489610000000 1.0
C      1  0.4101810000000  0.4872820000000  0.4546540000000 1.0
C      1  0.5033400000000  0.4695030000000  0.5918000000000 1.0
C      1  0.5421550000000  0.5517140000000  0.6020130000000 1.0
C      1  0.5694250000000  0.5510740000000  0.4140270000000 1.0
C      1  0.3903040000000  0.5477080000000  0.4841710000000 1.0
C      1  0.5389750000000  0.4533980000000  0.5990480000000 1.0
C      1  0.5635860000000  0.4522430000000  0.4162310000000 1.0
C      1  0.3940260000000  0.4502850000000  0.4905160000000 1.0
C      1  0.5362040000000  0.3957950000000  0.4694450000000 1.0
C      1  0.4602480000000  0.4052190000000  0.4880510000000 1.0
C      1  0.5019120000000  0.4038020000000  0.5633440000000 1.0
C      1  0.5351480000000  0.5945050000000  0.4759720000000 1.0
C      1  0.4501110000000  0.5957440000000  0.4804090000000 1.0
C      1  0.5078370000000  0.5978940000000  0.5431310000000 1.0
C      1  0.5379550000000  0.5950890000000  0.5542300000000 1.0
C      1  0.5312340000000  0.5936730000000  0.4439280000000 1.0
C      1  0.4326790000000  0.5904300000000  0.5072410000000 1.0
C      1  0.5341380000000  0.4115810000000  0.5573790000000 1.0
C      1  0.5254590000000  0.4045780000000  0.4418960000000 1.0
C      1  0.4381510000000  0.4032570000000  0.5066800000000 1.0
C      1  0.5279200000000  0.4486650000000  0.5272930000000 1.0
C      1  0.5146580000000  0.4477750000000  0.4629830000000 1.0
C      1  0.4683950000000  0.4421590000000  0.5010370000000 1.0
C      1  0.5221950000000  0.5553430000000  0.5188810000000 1.0
C      1  0.5056750000000  0.5552700000000  0.4696730000000 1.0
C      1  0.4663970000000  0.5554080000000  0.5076100000000 1.0
C      1  0.5164600000000  0.4529380000000  0.5552860000000 1.0
C      1  0.5528980000000  0.4417550000000  0.4531150000000 1.0
C      1  0.4280480000000  0.4397210000000  0.4727430000000 1.0
C      1  0.5101820000000  0.5594740000000  0.5681600000000 1.0
C      1  0.5522350000000  0.5547570000000  0.4588590000000 1.0
C      1  0.4386430000000  0.5548580000000  0.4790060000000 1.0
C      1  0.4984600000000  0.5964840000000  0.4409900000000 1.0
C      1  0.4527660000000  0.5971860000000  0.5343500000000 1.0
C      1  0.5566180000000  0.5944250000000  0.5254490000000 1.0
C      1  0.4932000000000  0.4052080000000  0.4420240000000 1.0
C      1  0.4485570000000  0.4039830000000  0.5389530000000 1.0
C      1  0.5484500000000  0.3998500000000  0.5290550000000 1.0
C      1  0.5442130000000  0.4259920000000  0.4782760000000 1.0
C      1  0.4589420000000  0.4333310000000  0.4724240000000 1.0
C      1  0.4940190000000  0.4347600000000  0.5595010000000 1.0
C      1  0.5345080000000  0.5623060000000  0.4868820000000 1.0
C      1  0.4720530000000  0.5560000000000  0.4761040000000 1.0
C      1  0.5025530000000  0.5675200000000  0.5387780000000 1.0
C      1  0.3869050000000  0.4926290000000  0.5310410000000 1.0
C      1  0.5717680000000  0.4926810000000  0.5880120000000 1.0
C      1  0.5374740000000  0.4946340000000  0.3886840000000 1.0
C      1  0.3876010000000  0.5175430000000  0.5259270000000 1.0
C      1  0.5710440000000  0.5179810000000  0.5865580000000 1.0
C      1  0.5390360000000  0.5197090000000  0.3917680000000 1.0
C      1  0.5866040000000  0.5501410000000  0.5274890000000 1.0
C      1  0.4841070000000  0.5526100000000  0.4054750000000 1.0
C      1  0.4267570000000  0.5416430000000  0.5611120000000 1.0
C      1  0.5955110000000  0.4562800000000  0.5348490000000 1.0
C      1  0.4820320000000  0.4567990000000  0.4095540000000 1.0
C      1  0.4317790000000  0.4481810000000  0.5585580000000 1.0
C      1  0.5354740000000  0.5320600000000  0.4216410000000 1.0
C      1  0.4129830000000  0.5275940000000  0.5090620000000 1.0
C      1  0.5476300000000  0.5321380000000  0.5683600000000 1.0
C      1  0.5317710000000  0.4757300000000  0.4138960000000 1.0
C      1  0.4091180000000  0.4756950000000  0.5172100000000 1.0
C      1  0.5524460000000  0.4755590000000  0.5687930000000 1.0
C      1  0.4623540000000  0.4713340000000  0.4548870000000 1.0
C      1  0.4740960000000  0.4752510000000  0.5513690000000 1.0
C      1  0.5578120000000  0.4690790000000  0.4910080000000 1.0
C      1  0.4655680000000  0.5269880000000  0.4494670000000 1.0
C      1  0.4803620000000  0.5234120000000  0.5506680000000 1.0
C      1  0.5584340000000  0.5247380000000  0.4898350000000 1.0
C      1  0.5817060000000  0.4037330000000  0.5229220000000 1.0
C      1  0.4685370000000  0.4060530000000  0.4218470000000 1.0
C      1  0.4398860000000  0.4078180000000  0.5692680000000 1.0
C      1  0.5749680000000  0.5922330000000  0.4985010000000 1.0
C      1  0.4646040000000  0.5976760000000  0.4380780000000 1.0
C      1  0.4593150000000  0.5861570000000  0.5659340000000 1.0
C      1  0.5155750000000  0.5045120000000  0.5505500000000 1.0
C      1  0.4477520000000  0.4978740000000  0.4866000000000 1.0
C      1  0.5367480000000  0.5011650000000  0.4578390000000 1.0
END
