TITL C-2622965-4321-565 -0.000370299844914748 125000 -740.12566992108 0 0 134 (C1) n - 1
REM
REM in /nfs/bkarasulu/CARBON/AIRSS/Generating-Clusters/AIREBO/with-SteepDescent/Higher-Symm/SD-CG/HFTN-CG
REM
REM
REM
REM
REM
REM ./C.cell (b20cbc046b6831c77cfcea5457e17084)
REM
REM compiler GCC version 9.2.1 20190827 (Red Hat 9.2.1-1)
REM options -cpp -mtune=generic -march=x86-64 -g -O0 -fpre-include=/usr/include/finclude/math-vector-fortran.h
REM seed 1500486124 -1554023497 -1600907101 -1439484423 647179776 -454806085 1724579313 1178842249 -36343181 354824195 -2142674740 -1812660329 -469079485 -192165637 1552053676 -931208904 1098890318 -1278898869 -1362263136 1042919566 -1743359762 -270284557 739783913 1631362468 1917279437 1225703479 365297847 2132767496 801467366 1326111632 -1606357080 1347401703 1621221968
REM
CELL 1.54180   50.00000   50.00000   50.00000   90.00000   90.00000   90.00000
LATT -1
SFAC C  
C      1  0.4612980000000  0.4360110000000  0.5004040000000 1.0
C      1  0.4756430000000  0.4759470000000  0.4364790000000 1.0
C      1  0.4694250000000  0.5596790000000  0.4632960000000 1.0
C      1  0.4579070000000  0.5635590000000  0.5255310000000 1.0
C      1  0.4761630000000  0.4923120000000  0.5563610000000 1.0
C      1  0.4190960000000  0.5704780000000  0.4985410000000 1.0
C      1  0.4198750000000  0.5339510000000  0.5589820000000 1.0
C      1  0.4291580000000  0.4332980000000  0.5600880000000 1.0
C      1  0.4181290000000  0.4408320000000  0.4549560000000 1.0
C      1  0.4272730000000  0.5230880000000  0.4321940000000 1.0
C      1  0.5088260000000  0.4834470000000  0.3983140000000 1.0
C      1  0.5027680000000  0.5814350000000  0.4597660000000 1.0
C      1  0.5059700000000  0.5703170000000  0.5604230000000 1.0
C      1  0.5087840000000  0.4534880000000  0.5826730000000 1.0
C      1  0.5063250000000  0.4035010000000  0.4794300000000 1.0
C      1  0.5284220000000  0.4169510000000  0.4979070000000 1.0
C      1  0.5320500000000  0.4635630000000  0.4022960000000 1.0
C      1  0.5356600000000  0.5756690000000  0.4661880000000 1.0
C      1  0.5353370000000  0.5770670000000  0.5552990000000 1.0
C      1  0.5354180000000  0.4703060000000  0.5726100000000 1.0
C      1  0.5192260000000  0.5052140000000  0.4440540000000 1.0
C      1  0.5214680000000  0.5563980000000  0.4903970000000 1.0
C      1  0.5183100000000  0.5296180000000  0.5487750000000 1.0
C      1  0.5211210000000  0.4709120000000  0.5448410000000 1.0
C      1  0.5164130000000  0.4418590000000  0.4781000000000 1.0
C      1  0.5409180000000  0.4315530000000  0.4451600000000 1.0
C      1  0.5397430000000  0.5129690000000  0.4215400000000 1.0
C      1  0.5397660000000  0.5913380000000  0.5027480000000 1.0
C      1  0.5363120000000  0.5459820000000  0.5685410000000 1.0
C      1  0.5466490000000  0.4275690000000  0.5477390000000 1.0
C      1  0.4821310000000  0.5303690000000  0.4750510000000 1.0
C      1  0.4888230000000  0.5177160000000  0.5044180000000 1.0
C      1  0.4970880000000  0.5009600000000  0.5315210000000 1.0
C      1  0.4775760000000  0.4645140000000  0.5093250000000 1.0
C      1  0.4898360000000  0.4861400000000  0.4632790000000 1.0
C      1  0.5610910000000  0.5553930000000  0.4701800000000 1.0
C      1  0.5805630000000  0.5467060000000  0.5531150000000 1.0
C      1  0.5663350000000  0.4678050000000  0.5694700000000 1.0
C      1  0.5694960000000  0.4307530000000  0.4886110000000 1.0
C      1  0.5762240000000  0.4883050000000  0.4365260000000 1.0
C      1  0.4448370000000  0.4344750000000  0.4491360000000 1.0
C      1  0.4419940000000  0.5100830000000  0.4116280000000 1.0
C      1  0.4397250000000  0.5914320000000  0.4961560000000 1.0
C      1  0.4506340000000  0.5462880000000  0.5642440000000 1.0
C      1  0.4574500000000  0.4340930000000  0.5573830000000 1.0
C      1  0.4202220000000  0.4760990000000  0.4901710000000 1.0
C      1  0.4386240000000  0.5097310000000  0.4589680000000 1.0
C      1  0.4300650000000  0.5421940000000  0.4868950000000 1.0
C      1  0.4319620000000  0.5177240000000  0.5246570000000 1.0
C      1  0.4360430000000  0.4666890000000  0.5393710000000 1.0
C      1  0.5130140000000  0.5316010000000  0.4732640000000 1.0
C      1  0.5032500000000  0.5403810000000  0.5222920000000 1.0
C      1  0.5298250000000  0.5018440000000  0.5360940000000 1.0
C      1  0.5094700000000  0.4531590000000  0.5060850000000 1.0
C      1  0.5162080000000  0.4746660000000  0.4462850000000 1.0
C      1  0.6276980000000  0.5266490000000  0.5102910000000 1.0
C      1  0.6216730000000  0.5028420000000  0.5260240000000 1.0
C      1  0.6172510000000  0.4801180000000  0.5054900000000 1.0
C      1  0.6163320000000  0.4935500000000  0.4775680000000 1.0
C      1  0.6158730000000  0.5235240000000  0.4838560000000 1.0
C      1  0.5307870000000  0.4977060000000  0.5894870000000 1.0
C      1  0.5441860000000  0.4199920000000  0.5191540000000 1.0
C      1  0.5329870000000  0.4543930000000  0.4292350000000 1.0
C      1  0.5187350000000  0.5523870000000  0.4509020000000 1.0
C      1  0.5479960000000  0.5799790000000  0.5310090000000 1.0
C      1  0.5869260000000  0.4679400000000  0.5109380000000 1.0
C      1  0.5853730000000  0.4815630000000  0.4816100000000 1.0
C      1  0.5834530000000  0.5149470000000  0.4846760000000 1.0
C      1  0.5741740000000  0.5210710000000  0.5140250000000 1.0
C      1  0.5894970000000  0.4960630000000  0.5290310000000 1.0
C      1  0.5698750000000  0.4460810000000  0.5517440000000 1.0
C      1  0.5632440000000  0.4374070000000  0.4623330000000 1.0
C      1  0.5640700000000  0.5130040000000  0.4358690000000 1.0
C      1  0.5627920000000  0.5711280000000  0.4951340000000 1.0
C      1  0.5633140000000  0.5336820000000  0.5707860000000 1.0
C      1  0.4555030000000  0.5974780000000  0.5254540000000 1.0
C      1  0.4587300000000  0.5205270000000  0.5849160000000 1.0
C      1  0.4672840000000  0.4117040000000  0.5434710000000 1.0
C      1  0.4588220000000  0.4482170000000  0.4262710000000 1.0
C      1  0.4618980000000  0.5249940000000  0.3999270000000 1.0
C      1  0.5597780000000  0.5055900000000  0.5407940000000 1.0
C      1  0.5371040000000  0.4673630000000  0.5173260000000 1.0
C      1  0.5361890000000  0.4658180000000  0.4686730000000 1.0
C      1  0.5346300000000  0.5101760000000  0.4725750000000 1.0
C      1  0.5348300000000  0.5453060000000  0.5160920000000 1.0
C      1  0.4274790000000  0.5504040000000  0.5320010000000 1.0
C      1  0.4267640000000  0.4850130000000  0.5608710000000 1.0
C      1  0.4327210000000  0.4529700000000  0.5087350000000 1.0
C      1  0.4251030000000  0.4853120000000  0.4445630000000 1.0
C      1  0.4208400000000  0.5608620000000  0.4599440000000 1.0
C      1  0.5192910000000  0.4291460000000  0.5611430000000 1.0
C      1  0.5138840000000  0.4155140000000  0.4482460000000 1.0
C      1  0.5133840000000  0.5119200000000  0.4051650000000 1.0
C      1  0.5106280000000  0.5946580000000  0.4908180000000 1.0
C      1  0.5056410000000  0.5459690000000  0.5829610000000 1.0
C      1  0.5670930000000  0.5527590000000  0.5234230000000 1.0
C      1  0.5602900000000  0.5013180000000  0.5728860000000 1.0
C      1  0.5643300000000  0.4473560000000  0.5178470000000 1.0
C      1  0.5683030000000  0.4688780000000  0.4600890000000 1.0
C      1  0.5623650000000  0.5255460000000  0.4652060000000 1.0
C      1  0.4905720000000  0.5575870000000  0.4383630000000 1.0
C      1  0.4904860000000  0.5651350000000  0.5351340000000 1.0
C      1  0.4998490000000  0.4862620000000  0.5805910000000 1.0
C      1  0.4895930000000  0.4177880000000  0.5053540000000 1.0
C      1  0.4943850000000  0.4621730000000  0.4152160000000 1.0
C      1  0.4918430000000  0.4320880000000  0.4274120000000 1.0
C      1  0.4892470000000  0.5350080000000  0.4129110000000 1.0
C      1  0.4870010000000  0.5929940000000  0.5156820000000 1.0
C      1  0.4899810000000  0.5171150000000  0.5884270000000 1.0
C      1  0.4974830000000  0.4160590000000  0.5383870000000 1.0
C      1  0.4623560000000  0.4321900000000  0.4698660000000 1.0
C      1  0.4678330000000  0.5093540000000  0.4570140000000 1.0
C      1  0.4591060000000  0.5552370000000  0.4953930000000 1.0
C      1  0.4591950000000  0.5195500000000  0.5450390000000 1.0
C      1  0.4695980000000  0.4620540000000  0.5422990000000 1.0
C      1  0.4485510000000  0.4934080000000  0.5761770000000 1.0
C      1  0.4532630000000  0.4090330000000  0.5194860000000 1.0
C      1  0.4470270000000  0.4801810000000  0.4221370000000 1.0
C      1  0.4432460000000  0.5792620000000  0.4679670000000 1.0
C      1  0.4507530000000  0.5791070000000  0.5549150000000 1.0
C      1  0.4931280000000  0.5176770000000  0.4390130000000 1.0
C      1  0.4907300000000  0.5677490000000  0.4953580000000 1.0
C      1  0.4868330000000  0.5306990000000  0.5579310000000 1.0
C      1  0.4990190000000  0.4494720000000  0.5444900000000 1.0
C      1  0.4898160000000  0.4343540000000  0.4606640000000 1.0
C      1  0.4024790000000  0.5683170000000  0.5218360000000 1.0
C      1  0.4133500000000  0.5063570000000  0.5497840000000 1.0
C      1  0.4155730000000  0.4397960000000  0.5347960000000 1.0
C      1  0.4144610000000  0.4675450000000  0.4625400000000 1.0
C      1  0.4136950000000  0.5468430000000  0.4371070000000 1.0
C      1  0.4302880000000  0.5085480000000  0.4919100000000 1.0
C      1  0.4959460000000  0.4884150000000  0.4935660000000 1.0
C      1  0.4540500000000  0.4857340000000  0.5003440000000 1.0
C      1  0.5282690000000  0.4855820000000  0.4922910000000 1.0
END
