TITL C-2622963-3633-420 -3.46721429708286e-05 125000 -256.371020221402 0 0 48 (C3i) n - 1
REM
REM in /nfs/bkarasulu/CARBON/AIRSS/Generating-Clusters/AIREBO/with-SteepDescent/Higher-Symm/SD-CG/HFTN-CG
REM
REM
REM
REM
REM
REM ./C.cell (b20cbc046b6831c77cfcea5457e17084)
REM
REM compiler GCC version 9.2.1 20190827 (Red Hat 9.2.1-1)
REM options -cpp -mtune=generic -march=x86-64 -g -O0 -fpre-include=/usr/include/finclude/math-vector-fortran.h
REM seed 1476010829 2109762472 -1708533814 -413602526 -1347623513 166910181 1167029203 754266730 1332687012 -1787140198 -1427076937 -1684740146 1607166542 -868013301 29929647 -317425203 -1265003856 1663209320 -1958008555 1060699410 290662927 1284655434 248124017 -78649200 1236947810 -922958273 1009890643 -300605317 -402940060 -865248798 763106352 1215856865 -1644533636
REM
CELL 1.54180   50.00000   50.00000   50.00000   90.00000   90.00000   90.00000
LATT -1
SFAC C  
C      1  0.5026330000000  0.5421410000000  0.4837990000000 1.0
C      1  0.5378150000000  0.5187900000000  0.5161930000000 1.0
C      1  0.5351760000000  0.4766460000000  0.4837990000000 1.0
C      1  0.4973670000000  0.4578590000000  0.5162010000000 1.0
C      1  0.4621850000000  0.4812100000000  0.4838070000000 1.0
C      1  0.4648240000000  0.5233540000000  0.5162010000000 1.0
C      1  0.4398200000000  0.5331280000000  0.4717570000000 1.0
C      1  0.4986060000000  0.5686810000000  0.5282450000000 1.0
C      1  0.5587760000000  0.5355480000000  0.4717420000000 1.0
C      1  0.5601800000000  0.4668720000000  0.5282430000000 1.0
C      1  0.5013940000000  0.4313190000000  0.4717550000000 1.0
C      1  0.4412240000000  0.4644520000000  0.5282580000000 1.0
C      1  0.4750930000000  0.4324930000000  0.4867480000000 1.0
C      1  0.4290860000000  0.4878160000000  0.5132680000000 1.0
C      1  0.4539890000000  0.5553210000000  0.4867430000000 1.0
C      1  0.5249070000000  0.5675070000000  0.5132520000000 1.0
C      1  0.5709140000000  0.5121840000000  0.4867320000000 1.0
C      1  0.5460110000000  0.4446790000000  0.5132570000000 1.0
C      1  0.4584460000000  0.4900930000000  0.4537950000000 1.0
C      1  0.4706540000000  0.5310320000000  0.5462120000000 1.0
C      1  0.5121910000000  0.5409320000000  0.4537860000000 1.0
C      1  0.5415540000000  0.5099070000000  0.5462050000000 1.0
C      1  0.5293460000000  0.4689680000000  0.4537880000000 1.0
C      1  0.4878090000000  0.4590680000000  0.5462140000000 1.0
C      1  0.4934450000000  0.4678800000000  0.4849870000000 1.0
C      1  0.4689100000000  0.4896160000000  0.5150200000000 1.0
C      1  0.4754590000000  0.5217340000000  0.4849860000000 1.0
C      1  0.5065550000000  0.5321200000000  0.5150130000000 1.0
C      1  0.5310900000000  0.5103840000000  0.4849800000000 1.0
C      1  0.5245410000000  0.4782660000000  0.5150140000000 1.0
C      1  0.5167820000000  0.5294690000000  0.5475160000000 1.0
C      1  0.5339010000000  0.5002020000000  0.4524760000000 1.0
C      1  0.5171370000000  0.4707400000000  0.5475190000000 1.0
C      1  0.4832180000000  0.4705310000000  0.4524840000000 1.0
C      1  0.4660990000000  0.4997980000000  0.5475240000000 1.0
C      1  0.4828630000000  0.5292600000000  0.4524810000000 1.0
C      1  0.4423510000000  0.5131000000000  0.4962740000000 1.0
C      1  0.4825220000000  0.5564750000000  0.5037320000000 1.0
C      1  0.5401690000000  0.5433750000000  0.4962600000000 1.0
C      1  0.5576490000000  0.4869000000000  0.5037260000000 1.0
C      1  0.5174780000000  0.4435250000000  0.4962680000000 1.0
C      1  0.4598310000000  0.4566250000000  0.5037400000000 1.0
C      1  0.4935790000000  0.5478780000000  0.5492730000000 1.0
C      1  0.5382420000000  0.5295010000000  0.4507190000000 1.0
C      1  0.5446810000000  0.4816310000000  0.5492700000000 1.0
C      1  0.5064210000000  0.4521220000000  0.4507270000000 1.0
C      1  0.4617580000000  0.4704990000000  0.5492810000000 1.0
C      1  0.4553190000000  0.5183690000000  0.4507300000000 1.0
END
