TITL C-2622968-4806-309 0.00178987895970916 125000 -1057.00112555086 0 0 186 (C1) n - 1
REM
REM in /nfs/bkarasulu/CARBON/AIRSS/Generating-Clusters/AIREBO/with-SteepDescent/Higher-Symm/SD-CG/HFTN-CG
REM
REM
REM
REM
REM
REM ./C.cell (b20cbc046b6831c77cfcea5457e17084)
REM
REM compiler GCC version 9.2.1 20190827 (Red Hat 9.2.1-1)
REM options -cpp -mtune=generic -march=x86-64 -g -O0 -fpre-include=/usr/include/finclude/math-vector-fortran.h
REM seed 1168630211 -444928318 -1104089098 -308868812 611009683 1837157120 -1918063370 -426206618 1547471116 -1968614147 -2074748419 -1898343069 221438987 -123856776 1600916281 197579220 1937270846 353294584 -1278324626 -1230687193 1567531155 -1480494516 -1045018129 570892252 1453031948 898451164 -1627342397 -2078835405 138191667 -1150247451 2056614869 -1540253127 -625526773
REM
CELL 1.54180   50.00000   50.00000   50.00000   90.00000   90.00000   90.00000
LATT -1
SFAC C  
C      1  0.4425340000000  0.5664430000000  0.4646860000000 1.0
C      1  0.4277480000000  0.4194740000000  0.5525170000000 1.0
C      1  0.5591710000000  0.5662840000000  0.4406000000000 1.0
C      1  0.5587380000000  0.4367890000000  0.5540710000000 1.0
C      1  0.6064750000000  0.4624920000000  0.4562190000000 1.0
C      1  0.5989510000000  0.5343960000000  0.5455790000000 1.0
C      1  0.4017980000000  0.4679240000000  0.4513800000000 1.0
C      1  0.4092490000000  0.5311610000000  0.5475460000000 1.0
C      1  0.5974080000000  0.5066980000000  0.5477660000000 1.0
C      1  0.6111170000000  0.4945710000000  0.4629550000000 1.0
C      1  0.4138730000000  0.5036630000000  0.5290100000000 1.0
C      1  0.4074870000000  0.4970130000000  0.4505440000000 1.0
C      1  0.5605310000000  0.4204840000000  0.4917980000000 1.0
C      1  0.5765210000000  0.5835800000000  0.4970440000000 1.0
C      1  0.4321510000000  0.4243200000000  0.4991200000000 1.0
C      1  0.4380970000000  0.5951550000000  0.5130550000000 1.0
C      1  0.4442810000000  0.4743810000000  0.5672390000000 1.0
C      1  0.4310650000000  0.5250710000000  0.4292460000000 1.0
C      1  0.5598220000000  0.4844080000000  0.5669230000000 1.0
C      1  0.5638310000000  0.5263020000000  0.4253780000000 1.0
C      1  0.5864600000000  0.4585560000000  0.4370140000000 1.0
C      1  0.5770920000000  0.5455190000000  0.5593880000000 1.0
C      1  0.4165160000000  0.4561000000000  0.4277260000000 1.0
C      1  0.4285980000000  0.5345560000000  0.5671600000000 1.0
C      1  0.4867250000000  0.4623510000000  0.5458590000000 1.0
C      1  0.4908060000000  0.5355480000000  0.4488750000000 1.0
C      1  0.5188430000000  0.4662570000000  0.5353850000000 1.0
C      1  0.5185080000000  0.5344870000000  0.4617940000000 1.0
C      1  0.5975960000000  0.4516210000000  0.4831420000000 1.0
C      1  0.6076040000000  0.5524530000000  0.5220480000000 1.0
C      1  0.3972020000000  0.4587480000000  0.4764020000000 1.0
C      1  0.4081160000000  0.5414490000000  0.5189830000000 1.0
C      1  0.4531050000000  0.4964470000000  0.5195630000000 1.0
C      1  0.4610050000000  0.5091240000000  0.4669370000000 1.0
C      1  0.5580560000000  0.5034130000000  0.5195640000000 1.0
C      1  0.5621580000000  0.5113920000000  0.4624110000000 1.0
C      1  0.3713810000000  0.5060700000000  0.4883420000000 1.0
C      1  0.3704430000000  0.4906980000000  0.5084180000000 1.0
C      1  0.6152920000000  0.5151860000000  0.5131480000000 1.0
C      1  0.6076110000000  0.4884530000000  0.5137570000000 1.0
C      1  0.5137700000000  0.6162160000000  0.4568120000000 1.0
C      1  0.4738070000000  0.3992450000000  0.5371370000000 1.0
C      1  0.5210710000000  0.5922920000000  0.4431290000000 1.0
C      1  0.5305310000000  0.4118330000000  0.5426550000000 1.0
C      1  0.4868060000000  0.4855160000000  0.5686750000000 1.0
C      1  0.4895340000000  0.5107680000000  0.4290030000000 1.0
C      1  0.5200880000000  0.4798880000000  0.5665230000000 1.0
C      1  0.5199790000000  0.5215320000000  0.4240080000000 1.0
C      1  0.4626900000000  0.5430130000000  0.4646790000000 1.0
C      1  0.4544930000000  0.4665150000000  0.5356360000000 1.0
C      1  0.5473440000000  0.5389230000000  0.4518340000000 1.0
C      1  0.5522830000000  0.4644210000000  0.5419350000000 1.0
C      1  0.5663690000000  0.5290100000000  0.5808640000000 1.0
C      1  0.5749690000000  0.4823160000000  0.4246560000000 1.0
C      1  0.4289970000000  0.5155390000000  0.5891670000000 1.0
C      1  0.4314170000000  0.4746820000000  0.4088900000000 1.0
C      1  0.4846020000000  0.4291660000000  0.5387570000000 1.0
C      1  0.4962630000000  0.5668170000000  0.4610910000000 1.0
C      1  0.5303630000000  0.4312780000000  0.5154540000000 1.0
C      1  0.5295340000000  0.5714500000000  0.4667980000000 1.0
C      1  0.5909940000000  0.4493160000000  0.5288320000000 1.0
C      1  0.6055790000000  0.5503540000000  0.4737070000000 1.0
C      1  0.4097060000000  0.4410360000000  0.5454980000000 1.0
C      1  0.4147450000000  0.5559210000000  0.4779270000000 1.0
C      1  0.4189750000000  0.4996210000000  0.4116820000000 1.0
C      1  0.4210780000000  0.4900100000000  0.5811370000000 1.0
C      1  0.5841570000000  0.5080230000000  0.4258310000000 1.0
C      1  0.5780610000000  0.5039220000000  0.5825230000000 1.0
C      1  0.5184770000000  0.5953800000000  0.5076250000000 1.0
C      1  0.5073060000000  0.3927930000000  0.4933650000000 1.0
C      1  0.5052650000000  0.6123140000000  0.4823530000000 1.0
C      1  0.4819490000000  0.3871180000000  0.5079940000000 1.0
C      1  0.4778150000000  0.5023570000000  0.6072110000000 1.0
C      1  0.4814590000000  0.4904890000000  0.3955400000000 1.0
C      1  0.5055940000000  0.5078660000000  0.6107380000000 1.0
C      1  0.5094610000000  0.4840410000000  0.3924030000000 1.0
C      1  0.4715060000000  0.5183050000000  0.4045930000000 1.0
C      1  0.4727290000000  0.4755830000000  0.5948170000000 1.0
C      1  0.5274720000000  0.5062040000000  0.3961180000000 1.0
C      1  0.5230730000000  0.4883720000000  0.5993260000000 1.0
C      1  0.5518840000000  0.5612790000000  0.4111690000000 1.0
C      1  0.5542290000000  0.4427700000000  0.5847650000000 1.0
C      1  0.4371470000000  0.5753740000000  0.4355040000000 1.0
C      1  0.4384120000000  0.4226970000000  0.5775560000000 1.0
C      1  0.5343350000000  0.5020250000000  0.4452530000000 1.0
C      1  0.5380160000000  0.5012230000000  0.5469610000000 1.0
C      1  0.4392440000000  0.4998770000000  0.4489300000000 1.0
C      1  0.4421580000000  0.5022970000000  0.5479310000000 1.0
C      1  0.5163590000000  0.4526910000000  0.4008590000000 1.0
C      1  0.5119910000000  0.5390530000000  0.6054120000000 1.0
C      1  0.4644240000000  0.4679600000000  0.4111370000000 1.0
C      1  0.4601730000000  0.5265830000000  0.5920450000000 1.0
C      1  0.5252960000000  0.4469850000000  0.5734690000000 1.0
C      1  0.5228070000000  0.5539200000000  0.4140380000000 1.0
C      1  0.4678590000000  0.4192970000000  0.5872550000000 1.0
C      1  0.4573760000000  0.5636510000000  0.4195340000000 1.0
C      1  0.4724450000000  0.4290650000000  0.4713450000000 1.0
C      1  0.4756840000000  0.5753390000000  0.5586660000000 1.0
C      1  0.5163770000000  0.4191370000000  0.4461960000000 1.0
C      1  0.5161000000000  0.5671180000000  0.5575330000000 1.0
C      1  0.6021290000000  0.5674340000000  0.4957910000000 1.0
C      1  0.5869540000000  0.4368490000000  0.5036520000000 1.0
C      1  0.4369320000000  0.5497390000000  0.5029520000000 1.0
C      1  0.4319330000000  0.4473570000000  0.5241730000000 1.0
C      1  0.5476600000000  0.4708850000000  0.4422120000000 1.0
C      1  0.5390500000000  0.5332150000000  0.5595930000000 1.0
C      1  0.4415060000000  0.4689920000000  0.4468510000000 1.0
C      1  0.4590780000000  0.5314620000000  0.5524070000000 1.0
C      1  0.3981800000000  0.5148130000000  0.4753720000000 1.0
C      1  0.3955130000000  0.4800070000000  0.5239360000000 1.0
C      1  0.5909800000000  0.5196500000000  0.4746710000000 1.0
C      1  0.5803290000000  0.4813730000000  0.5327850000000 1.0
C      1  0.4826650000000  0.5042060000000  0.5137650000000 1.0
C      1  0.4848460000000  0.4875260000000  0.4717330000000 1.0
C      1  0.5138000000000  0.5082690000000  0.5241480000000 1.0
C      1  0.5141480000000  0.4970110000000  0.4721490000000 1.0
C      1  0.5144790000000  0.5233570000000  0.4936700000000 1.0
C      1  0.5130920000000  0.4786740000000  0.5074010000000 1.0
C      1  0.4822470000000  0.5342760000000  0.4984580000000 1.0
C      1  0.4796480000000  0.4725170000000  0.5017960000000 1.0
C      1  0.5354880000000  0.5501050000000  0.4932580000000 1.0
C      1  0.5317310000000  0.4552990000000  0.4945310000000 1.0
C      1  0.4788210000000  0.5628410000000  0.5107660000000 1.0
C      1  0.4830290000000  0.4436600000000  0.5108780000000 1.0
C      1  0.3963620000000  0.4776450000000  0.5740300000000 1.0
C      1  0.3932690000000  0.5160130000000  0.4268040000000 1.0
C      1  0.5997270000000  0.4835460000000  0.5676790000000 1.0
C      1  0.6079030000000  0.5141310000000  0.4390180000000 1.0
C      1  0.4442170000000  0.4096370000000  0.5280760000000 1.0
C      1  0.4275280000000  0.5855210000000  0.4887560000000 1.0
C      1  0.5594980000000  0.4180280000000  0.5257200000000 1.0
C      1  0.5615180000000  0.5829690000000  0.4675570000000 1.0
C      1  0.4881860000000  0.4785470000000  0.4330820000000 1.0
C      1  0.4835020000000  0.5155280000000  0.5699050000000 1.0
C      1  0.5169250000000  0.4674930000000  0.4280280000000 1.0
C      1  0.5108520000000  0.5270130000000  0.5762860000000 1.0
C      1  0.4430720000000  0.5543240000000  0.5329790000000 1.0
C      1  0.4363560000000  0.4523550000000  0.4714490000000 1.0
C      1  0.5565060000000  0.5531720000000  0.5383070000000 1.0
C      1  0.5646380000000  0.4416980000000  0.4462970000000 1.0
C      1  0.5085980000000  0.5760080000000  0.4234630000000 1.0
C      1  0.5154340000000  0.4228660000000  0.5634330000000 1.0
C      1  0.4816010000000  0.5697990000000  0.4305440000000 1.0
C      1  0.4868130000000  0.4124030000000  0.5663380000000 1.0
C      1  0.5497440000000  0.5290060000000  0.3987040000000 1.0
C      1  0.5483450000000  0.4725060000000  0.5936960000000 1.0
C      1  0.4522480000000  0.5371260000000  0.4117100000000 1.0
C      1  0.4557760000000  0.4505660000000  0.5865450000000 1.0
C      1  0.4070660000000  0.5366940000000  0.4509070000000 1.0
C      1  0.3939830000000  0.4633190000000  0.5493930000000 1.0
C      1  0.6146950000000  0.5406460000000  0.4467680000000 1.0
C      1  0.6053600000000  0.4590870000000  0.5546130000000 1.0
C      1  0.4837380000000  0.5510520000000  0.5395700000000 1.0
C      1  0.4726820000000  0.4600340000000  0.4570680000000 1.0
C      1  0.5131350000000  0.5391470000000  0.5383850000000 1.0
C      1  0.5416230000000  0.4772770000000  0.4755840000000 1.0
C      1  0.5126960000000  0.5944280000000  0.5375480000000 1.0
C      1  0.5081970000000  0.3923790000000  0.4655190000000 1.0
C      1  0.4832300000000  0.5990460000000  0.5407640000000 1.0
C      1  0.4824520000000  0.4005440000000  0.4559870000000 1.0
C      1  0.4511350000000  0.5206490000000  0.4957560000000 1.0
C      1  0.4467160000000  0.4686210000000  0.4941500000000 1.0
C      1  0.5578050000000  0.5356000000000  0.5129220000000 1.0
C      1  0.5653980000000  0.4926720000000  0.4893290000000 1.0
C      1  0.5646720000000  0.4172270000000  0.4588100000000 1.0
C      1  0.5621590000000  0.5819000000000  0.5282060000000 1.0
C      1  0.4338660000000  0.4221330000000  0.4652260000000 1.0
C      1  0.4397510000000  0.5810240000000  0.5421400000000 1.0
C      1  0.4650440000000  0.4162070000000  0.5019920000000 1.0
C      1  0.4677770000000  0.5933630000000  0.5164250000000 1.0
C      1  0.5305370000000  0.4271190000000  0.4760980000000 1.0
C      1  0.5432250000000  0.5801590000000  0.5029410000000 1.0
C      1  0.4467430000000  0.5826360000000  0.5726700000000 1.0
C      1  0.4574150000000  0.4267180000000  0.4413770000000 1.0
C      1  0.5418860000000  0.5888470000000  0.5519360000000 1.0
C      1  0.5444800000000  0.4013490000000  0.4485630000000 1.0
C      1  0.5936880000000  0.4821390000000  0.4882110000000 1.0
C      1  0.5875050000000  0.5314750000000  0.5043780000000 1.0
C      1  0.4139420000000  0.4643420000000  0.5022090000000 1.0
C      1  0.4175980000000  0.5155420000000  0.4982320000000 1.0
C      1  0.5012760000000  0.4317210000000  0.4201210000000 1.0
C      1  0.5008780000000  0.5635040000000  0.5870670000000 1.0
C      1  0.4728380000000  0.4369190000000  0.4202440000000 1.0
C      1  0.4671440000000  0.5592710000000  0.5873870000000 1.0
C      1  0.5047010000000  0.4197740000000  0.5055590000000 1.0
C      1  0.4944740000000  0.5811890000000  0.4895210000000 1.0
END
