TITL C-2622963-3633-145 0.00293891309279661 125000 -259.526771868641 0 0 47 (C1) n - 1
REM
REM in /nfs/bkarasulu/CARBON/AIRSS/Generating-Clusters/AIREBO/with-SteepDescent/Higher-Symm/SD-CG/HFTN-CG
REM
REM
REM
REM
REM
REM ./C.cell (b20cbc046b6831c77cfcea5457e17084)
REM
REM compiler GCC version 9.2.1 20190827 (Red Hat 9.2.1-1)
REM options -cpp -mtune=generic -march=x86-64 -g -O0 -fpre-include=/usr/include/finclude/math-vector-fortran.h
REM seed 1970982567 -1996808978 456873877 -1324143212 1159235275 -1775659134 -1453900055 -1343429863 -344934149 -1904608030 -174329619 -780333364 -1930748005 1179002799 -905729881 1596359661 1045479462 -739018544 -964083831 -697513750 -1268737031 -1077669695 -662979239 1910554166 -328021761 1034128347 142818862 311601982 -97962939 961267684 1764090761 -295305043 2109009785
REM
CELL 1.54180   50.00000   50.00000   50.00000   90.00000   90.00000   90.00000
LATT -1
SFAC C  
C      1  0.4821790000000  0.4772000000000  0.4344460000000 1.0
C      1  0.5052890000000  0.4762170000000  0.5705390000000 1.0
C      1  0.4776100000000  0.4773690000000  0.5679770000000 1.0
C      1  0.5086250000000  0.4825410000000  0.4329640000000 1.0
C      1  0.4923490000000  0.5176710000000  0.5182310000000 1.0
C      1  0.5252550000000  0.5160730000000  0.4753600000000 1.0
C      1  0.4697100000000  0.5050690000000  0.4737240000000 1.0
C      1  0.5223490000000  0.5093600000000  0.5286510000000 1.0
C      1  0.4638120000000  0.5353330000000  0.5127470000000 1.0
C      1  0.5411230000000  0.5377690000000  0.4894070000000 1.0
C      1  0.4550610000000  0.5294690000000  0.4852000000000 1.0
C      1  0.5408020000000  0.5320110000000  0.5206250000000 1.0
C      1  0.5047530000000  0.5351990000000  0.4345230000000 1.0
C      1  0.4763200000000  0.5283170000000  0.5608300000000 1.0
C      1  0.5085960000000  0.5304650000000  0.5636550000000 1.0
C      1  0.4730590000000  0.5294130000000  0.4315130000000 1.0
C      1  0.4764900000000  0.4895850000000  0.5173480000000 1.0
C      1  0.5407540000000  0.4925080000000  0.4867410000000 1.0
C      1  0.4835380000000  0.4787100000000  0.4861690000000 1.0
C      1  0.5314460000000  0.4843800000000  0.5137150000000 1.0
C      1  0.5130690000000  0.4576900000000  0.5131860000000 1.0
C      1  0.4888560000000  0.4508660000000  0.4821430000000 1.0
C      1  0.5174630000000  0.4413490000000  0.4886630000000 1.0
C      1  0.4874720000000  0.4594090000000  0.5211720000000 1.0
C      1  0.5213560000000  0.5116070000000  0.4444240000000 1.0
C      1  0.4651910000000  0.5041510000000  0.5542730000000 1.0
C      1  0.5216010000000  0.5024410000000  0.5592210000000 1.0
C      1  0.4654800000000  0.5034350000000  0.4436910000000 1.0
C      1  0.5474310000000  0.4643020000000  0.5324010000000 1.0
C      1  0.4478180000000  0.4623100000000  0.4790240000000 1.0
C      1  0.5469010000000  0.4722900000000  0.4685830000000 1.0
C      1  0.4499460000000  0.4689270000000  0.5123550000000 1.0
C      1  0.4733690000000  0.5543310000000  0.4790120000000 1.0
C      1  0.5536560000000  0.5601010000000  0.5196630000000 1.0
C      1  0.4809350000000  0.5628820000000  0.5105910000000 1.0
C      1  0.5529870000000  0.5669600000000  0.4895690000000 1.0
C      1  0.5456310000000  0.4473230000000  0.4836670000000 1.0
C      1  0.4634910000000  0.4392280000000  0.5228820000000 1.0
C      1  0.5593570000000  0.4478790000000  0.5102720000000 1.0
C      1  0.4635660000000  0.4375290000000  0.4917470000000 1.0
C      1  0.5383230000000  0.4810100000000  0.4429140000000 1.0
C      1  0.4525200000000  0.4757450000000  0.5455860000000 1.0
C      1  0.5361050000000  0.4716090000000  0.5577580000000 1.0
C      1  0.4553830000000  0.4729040000000  0.4548760000000 1.0
C      1  0.4828480000000  0.5534220000000  0.4518350000000 1.0
C      1  0.4933470000000  0.5458150000000  0.5373010000000 1.0
C      1  0.4974480000000  0.5159540000000  0.4864340000000 1.0
END
