TITL C-2622959-7779-538 -0.000662173020127023 125000 -624.10138283351 0 0 111 (C1) n - 1
REM
REM in /nfs/bkarasulu/CARBON/AIRSS/Generating-Clusters/AIREBO/with-SteepDescent/Higher-Symm/SD-CG/HFTN-CG
REM
REM
REM
REM
REM
REM ./C.cell (b20cbc046b6831c77cfcea5457e17084)
REM
REM compiler GCC version 9.2.1 20190827 (Red Hat 9.2.1-1)
REM options -cpp -mtune=generic -march=x86-64 -g -O0 -fpre-include=/usr/include/finclude/math-vector-fortran.h
REM seed 1128888930 2135825281 -434101178 -684982163 1400994636 118538619 -2086143402 1086317974 252118580 833782598 -606907886 1072200383 -936232408 17842431 115091710 -1053345110 1872712217 -631693581 58104591 -1581527281 808511277 1924753231 60247151 -907583071 690408647 1564900016 1927409120 -1104446090 -579041701 -1054496436 273581704 1714031754 -2132208565
REM
CELL 1.54180   50.00000   50.00000   50.00000   90.00000   90.00000   90.00000
LATT -1
SFAC C  
C      1  0.5051560000000  0.4112040000000  0.5005810000000 1.0
C      1  0.4065910000000  0.4553140000000  0.5023250000000 1.0
C      1  0.4255160000000  0.5730700000000  0.5129910000000 1.0
C      1  0.5307420000000  0.5651660000000  0.5211490000000 1.0
C      1  0.5862160000000  0.4851350000000  0.5125410000000 1.0
C      1  0.5366120000000  0.4622270000000  0.4270890000000 1.0
C      1  0.4743780000000  0.4538570000000  0.4215410000000 1.0
C      1  0.4522280000000  0.5086170000000  0.4244440000000 1.0
C      1  0.4884490000000  0.5508260000000  0.4186090000000 1.0
C      1  0.5366640000000  0.5290660000000  0.4254600000000 1.0
C      1  0.5678080000000  0.5237710000000  0.4634810000000 1.0
C      1  0.5344490000000  0.4328720000000  0.4701740000000 1.0
C      1  0.4493940000000  0.4528030000000  0.4663060000000 1.0
C      1  0.4484790000000  0.5178540000000  0.4745800000000 1.0
C      1  0.4878370000000  0.5523520000000  0.4654340000000 1.0
C      1  0.5614860000000  0.5430720000000  0.4373360000000 1.0
C      1  0.5506990000000  0.4412530000000  0.4445240000000 1.0
C      1  0.4651910000000  0.4366210000000  0.4417950000000 1.0
C      1  0.4341550000000  0.5139910000000  0.4451990000000 1.0
C      1  0.4819720000000  0.5694190000000  0.4396240000000 1.0
C      1  0.5253350000000  0.5140500000000  0.5716820000000 1.0
C      1  0.5218210000000  0.4854030000000  0.5815170000000 1.0
C      1  0.4929180000000  0.4783280000000  0.5799430000000 1.0
C      1  0.4740280000000  0.5065350000000  0.5818910000000 1.0
C      1  0.4975430000000  0.5257120000000  0.5801180000000 1.0
C      1  0.4037330000000  0.5328280000000  0.4630650000000 1.0
C      1  0.4881490000000  0.6023690000000  0.4723410000000 1.0
C      1  0.5884150000000  0.5440320000000  0.4908530000000 1.0
C      1  0.5853600000000  0.4287690000000  0.4754950000000 1.0
C      1  0.4561530000000  0.4061850000000  0.4747060000000 1.0
C      1  0.5437420000000  0.4681640000000  0.5839420000000 1.0
C      1  0.4740730000000  0.4582460000000  0.5977500000000 1.0
C      1  0.4599370000000  0.5018970000000  0.6091910000000 1.0
C      1  0.4992840000000  0.5535740000000  0.5790690000000 1.0
C      1  0.5441910000000  0.5340030000000  0.5901960000000 1.0
C      1  0.5621890000000  0.4664520000000  0.5059670000000 1.0
C      1  0.4830730000000  0.4368570000000  0.5020220000000 1.0
C      1  0.4305210000000  0.4786520000000  0.5024570000000 1.0
C      1  0.4697850000000  0.5617570000000  0.4998500000000 1.0
C      1  0.5595110000000  0.5303050000000  0.5020370000000 1.0
C      1  0.4582670000000  0.4740010000000  0.6147940000000 1.0
C      1  0.4499700000000  0.5224550000000  0.6240880000000 1.0
C      1  0.5243620000000  0.5596020000000  0.5918830000000 1.0
C      1  0.5508160000000  0.5234280000000  0.6154400000000 1.0
C      1  0.5578050000000  0.4666110000000  0.6068850000000 1.0
C      1  0.4269820000000  0.5408040000000  0.4745720000000 1.0
C      1  0.4972420000000  0.5758200000000  0.4874090000000 1.0
C      1  0.5862130000000  0.5104510000000  0.4963840000000 1.0
C      1  0.5605100000000  0.4397870000000  0.4874720000000 1.0
C      1  0.4571450000000  0.4308750000000  0.4875680000000 1.0
C      1  0.4705380000000  0.5264390000000  0.5313340000000 1.0
C      1  0.5300790000000  0.5145460000000  0.5405650000000 1.0
C      1  0.5216570000000  0.4836940000000  0.5338340000000 1.0
C      1  0.4922690000000  0.4724580000000  0.5289570000000 1.0
C      1  0.4700190000000  0.4924070000000  0.5314470000000 1.0
C      1  0.4785690000000  0.4502520000000  0.5670490000000 1.0
C      1  0.4553180000000  0.5158570000000  0.5598500000000 1.0
C      1  0.4941780000000  0.5650190000000  0.5543670000000 1.0
C      1  0.5685300000000  0.5412150000000  0.5727220000000 1.0
C      1  0.5500220000000  0.4535240000000  0.5617390000000 1.0
C      1  0.5296470000000  0.4864660000000  0.4950990000000 1.0
C      1  0.5060560000000  0.4694830000000  0.4998560000000 1.0
C      1  0.4822430000000  0.4882590000000  0.4938380000000 1.0
C      1  0.4896870000000  0.5157530000000  0.5057350000000 1.0
C      1  0.5215940000000  0.5153320000000  0.5076490000000 1.0
C      1  0.4696120000000  0.5926640000000  0.4520420000000 1.0
C      1  0.5683380000000  0.5574430000000  0.4673930000000 1.0
C      1  0.5778890000000  0.4466550000000  0.4521340000000 1.0
C      1  0.4719580000000  0.4096400000000  0.4505530000000 1.0
C      1  0.4055500000000  0.5069160000000  0.4484940000000 1.0
C      1  0.5062760000000  0.4547080000000  0.4132320000000 1.0
C      1  0.4630900000000  0.4804320000000  0.4235010000000 1.0
C      1  0.4749000000000  0.5256100000000  0.4250450000000 1.0
C      1  0.5156240000000  0.5468290000000  0.4103370000000 1.0
C      1  0.5420690000000  0.4959930000000  0.4221500000000 1.0
C      1  0.5061700000000  0.4466670000000  0.4787610000000 1.0
C      1  0.4537460000000  0.4844660000000  0.4783130000000 1.0
C      1  0.4724510000000  0.5325070000000  0.4863560000000 1.0
C      1  0.5391570000000  0.5197090000000  0.4788110000000 1.0
C      1  0.5542900000000  0.4803050000000  0.4759230000000 1.0
C      1  0.5686490000000  0.5453200000000  0.5482410000000 1.0
C      1  0.5434940000000  0.4313200000000  0.5411230000000 1.0
C      1  0.4541250000000  0.4270520000000  0.5354600000000 1.0
C      1  0.4337640000000  0.5003080000000  0.5523760000000 1.0
C      1  0.4660820000000  0.5930670000000  0.5341300000000 1.0
C      1  0.5040240000000  0.4168680000000  0.5295900000000 1.0
C      1  0.3901250000000  0.4410840000000  0.5152530000000 1.0
C      1  0.4356880000000  0.5629820000000  0.5339860000000 1.0
C      1  0.5162370000000  0.5763800000000  0.5417780000000 1.0
C      1  0.6055790000000  0.4780040000000  0.5285340000000 1.0
C      1  0.4195870000000  0.4643250000000  0.4736100000000 1.0
C      1  0.4393060000000  0.5666160000000  0.4851080000000 1.0
C      1  0.5257780000000  0.5736950000000  0.4954350000000 1.0
C      1  0.5889120000000  0.5010640000000  0.4655990000000 1.0
C      1  0.5161700000000  0.4081940000000  0.4753600000000 1.0
C      1  0.4407950000000  0.4850470000000  0.5286800000000 1.0
C      1  0.4694970000000  0.5603930000000  0.5338390000000 1.0
C      1  0.5466260000000  0.5400420000000  0.5268230000000 1.0
C      1  0.5442680000000  0.4636560000000  0.5300590000000 1.0
C      1  0.4817990000000  0.4418580000000  0.5357310000000 1.0
C      1  0.4924150000000  0.5214110000000  0.4536290000000 1.0
C      1  0.5218210000000  0.5163510000000  0.4520320000000 1.0
C      1  0.5329360000000  0.4842260000000  0.4527790000000 1.0
C      1  0.5023180000000  0.4738190000000  0.4604090000000 1.0
C      1  0.4749140000000  0.4925390000000  0.4530070000000 1.0
C      1  0.4988040000000  0.4004980000000  0.4541720000000 1.0
C      1  0.4010670000000  0.4801760000000  0.4550120000000 1.0
C      1  0.4433460000000  0.5883450000000  0.4625960000000 1.0
C      1  0.5464010000000  0.5754340000000  0.4783400000000 1.0
C      1  0.5805720000000  0.4738450000000  0.4593320000000 1.0
C      1  0.5023960000000  0.4817350000000  0.4273400000000 1.0
END
