TITL C-2622961-1971-113 0.000940418129515615 125000 -983.5905998205 0 0 183 (C1) n - 1
REM
REM in /nfs/bkarasulu/CARBON/AIRSS/Generating-Clusters/AIREBO/with-SteepDescent/Higher-Symm/SD-CG/HFTN-CG
REM
REM
REM
REM
REM
REM ./C.cell (b20cbc046b6831c77cfcea5457e17084)
REM
REM compiler GCC version 9.2.1 20190827 (Red Hat 9.2.1-1)
REM options -cpp -mtune=generic -march=x86-64 -g -O0 -fpre-include=/usr/include/finclude/math-vector-fortran.h
REM seed -486509997 1063446313 1156427094 976881787 1386760967 673735903 2123429811 1692444461 1673706181 1370485038 1515336119 -1944013098 1026180472 2010692751 752635120 727407999 -1427311568 375473522 -687322364 -1760148298 62215737 -1291979549 -287046488 418221098 1721053864 1397147348 566739961 126202928 331438715 21162603 -550451998 -1951123703 191420254
REM
CELL 1.54180   50.00000   50.00000   50.00000   90.00000   90.00000   90.00000
LATT -1
SFAC C  
C      1  0.5871660000000  0.4472360000000  0.5341150000000 1.0
C      1  0.5297770000000  0.4459200000000  0.5908340000000 1.0
C      1  0.4556180000000  0.4491220000000  0.5808590000000 1.0
C      1  0.4017580000000  0.4442980000000  0.5199370000000 1.0
C      1  0.4294890000000  0.4452170000000  0.4296550000000 1.0
C      1  0.5069570000000  0.4489010000000  0.4059170000000 1.0
C      1  0.5790380000000  0.4519170000000  0.4476160000000 1.0
C      1  0.4322200000000  0.4988920000000  0.5208840000000 1.0
C      1  0.4358020000000  0.4919750000000  0.4613400000000 1.0
C      1  0.4876590000000  0.4961580000000  0.4229390000000 1.0
C      1  0.5469770000000  0.4982830000000  0.4465180000000 1.0
C      1  0.5676450000000  0.4958770000000  0.5055410000000 1.0
C      1  0.5386310000000  0.4928980000000  0.5645890000000 1.0
C      1  0.4793990000000  0.4944240000000  0.5684550000000 1.0
C      1  0.4232880000000  0.4494290000000  0.5573220000000 1.0
C      1  0.4130500000000  0.4451860000000  0.4742130000000 1.0
C      1  0.4587740000000  0.4480710000000  0.3969090000000 1.0
C      1  0.5389410000000  0.4523820000000  0.4186150000000 1.0
C      1  0.5846850000000  0.4518100000000  0.4799500000000 1.0
C      1  0.5742190000000  0.4494960000000  0.5640840000000 1.0
C      1  0.4990870000000  0.4527370000000  0.5979060000000 1.0
C      1  0.5711930000000  0.5293180000000  0.5004540000000 1.0
C      1  0.5463500000000  0.5399550000000  0.5376030000000 1.0
C      1  0.4888260000000  0.5265050000000  0.5621760000000 1.0
C      1  0.4424800000000  0.5312380000000  0.5186190000000 1.0
C      1  0.4427600000000  0.5250920000000  0.4648250000000 1.0
C      1  0.4941270000000  0.5368050000000  0.4466060000000 1.0
C      1  0.5430260000000  0.5320170000000  0.4485210000000 1.0
C      1  0.4846200000000  0.5528700000000  0.4112690000000 1.0
C      1  0.5655760000000  0.5578320000000  0.4283840000000 1.0
C      1  0.6095470000000  0.5499100000000  0.5064260000000 1.0
C      1  0.5510470000000  0.5512120000000  0.5753620000000 1.0
C      1  0.4749180000000  0.5524950000000  0.5891510000000 1.0
C      1  0.4087870000000  0.5527680000000  0.5331210000000 1.0
C      1  0.4158360000000  0.5526020000000  0.4540830000000 1.0
C      1  0.4007250000000  0.5312560000000  0.4761820000000 1.0
C      1  0.4602170000000  0.5291910000000  0.4102740000000 1.0
C      1  0.5489500000000  0.5384040000000  0.4071140000000 1.0
C      1  0.6165710000000  0.5334760000000  0.4806340000000 1.0
C      1  0.5787880000000  0.5315220000000  0.5749290000000 1.0
C      1  0.4949600000000  0.5360420000000  0.6092780000000 1.0
C      1  0.4099910000000  0.5313520000000  0.5595050000000 1.0
C      1  0.5824420000000  0.4308920000000  0.5047620000000 1.0
C      1  0.5522410000000  0.4327550000000  0.5696180000000 1.0
C      1  0.4806260000000  0.4343670000000  0.5859180000000 1.0
C      1  0.4203430000000  0.4251270000000  0.5376420000000 1.0
C      1  0.4243600000000  0.4272180000000  0.4543200000000 1.0
C      1  0.4807350000000  0.4290750000000  0.4146110000000 1.0
C      1  0.5571070000000  0.4353850000000  0.4386930000000 1.0
C      1  0.5579600000000  0.5735490000000  0.5040650000000 1.0
C      1  0.5392360000000  0.5698860000000  0.5486870000000 1.0
C      1  0.4877980000000  0.5663330000000  0.5615580000000 1.0
C      1  0.4408670000000  0.5688730000000  0.5318640000000 1.0
C      1  0.4401430000000  0.5706290000000  0.4734570000000 1.0
C      1  0.4819450000000  0.5767360000000  0.4365830000000 1.0
C      1  0.5409140000000  0.5662780000000  0.4502240000000 1.0
C      1  0.3910160000000  0.4994590000000  0.4823540000000 1.0
C      1  0.4518550000000  0.4980100000000  0.4053560000000 1.0
C      1  0.5360670000000  0.5073830000000  0.4092440000000 1.0
C      1  0.6021030000000  0.5054230000000  0.4725480000000 1.0
C      1  0.5776970000000  0.5000650000000  0.5637590000000 1.0
C      1  0.5058690000000  0.5057190000000  0.6071740000000 1.0
C      1  0.4230650000000  0.4999660000000  0.5597550000000 1.0
C      1  0.4222620000000  0.4978710000000  0.4218730000000 1.0
C      1  0.5109390000000  0.4968390000000  0.3901480000000 1.0
C      1  0.5927550000000  0.5022660000000  0.4407630000000 1.0
C      1  0.5960860000000  0.4994630000000  0.5377400000000 1.0
C      1  0.5384830000000  0.4964540000000  0.6046250000000 1.0
C      1  0.4433040000000  0.5009570000000  0.5848240000000 1.0
C      1  0.3913500000000  0.4948170000000  0.5148360000000 1.0
C      1  0.5136640000000  0.5006780000000  0.4681930000000 1.0
C      1  0.5260910000000  0.5109710000000  0.4972550000000 1.0
C      1  0.5273580000000  0.5158750000000  0.5270000000000 1.0
C      1  0.5001040000000  0.5085490000000  0.5364700000000 1.0
C      1  0.4715880000000  0.5040180000000  0.5171650000000 1.0
C      1  0.4655570000000  0.5176760000000  0.4889460000000 1.0
C      1  0.4815300000000  0.5087700000000  0.4603920000000 1.0
C      1  0.4455760000000  0.4113790000000  0.4661120000000 1.0
C      1  0.4885040000000  0.4122780000000  0.4396120000000 1.0
C      1  0.5459480000000  0.4128670000000  0.4499110000000 1.0
C      1  0.5675750000000  0.4075130000000  0.5035840000000 1.0
C      1  0.5419060000000  0.4155290000000  0.5480190000000 1.0
C      1  0.4925950000000  0.4172790000000  0.5629630000000 1.0
C      1  0.4429590000000  0.4129180000000  0.5274700000000 1.0
C      1  0.5795350000000  0.4777530000000  0.4353170000000 1.0
C      1  0.5967970000000  0.4758410000000  0.5241780000000 1.0
C      1  0.5502990000000  0.4722750000000  0.5968090000000 1.0
C      1  0.4543620000000  0.4760100000000  0.5934190000000 1.0
C      1  0.3952570000000  0.4709190000000  0.5287360000000 1.0
C      1  0.4164170000000  0.4720060000000  0.4326970000000 1.0
C      1  0.4955020000000  0.4738370000000  0.3907640000000 1.0
C      1  0.4669890000000  0.4741770000000  0.3915630000000 1.0
C      1  0.5540230000000  0.4814590000000  0.4176500000000 1.0
C      1  0.5947540000000  0.4792070000000  0.4929150000000 1.0
C      1  0.5742470000000  0.4733760000000  0.5803230000000 1.0
C      1  0.4846560000000  0.4811980000000  0.5995920000000 1.0
C      1  0.4089900000000  0.4736050000000  0.5536270000000 1.0
C      1  0.4061040000000  0.4754600000000  0.4635710000000 1.0
C      1  0.4990820000000  0.5227290000000  0.4050560000000 1.0
C      1  0.5769340000000  0.5311280000000  0.4461070000000 1.0
C      1  0.5939400000000  0.5270320000000  0.5247960000000 1.0
C      1  0.5415720000000  0.5211000000000  0.5834750000000 1.0
C      1  0.4574530000000  0.5297600000000  0.5748830000000 1.0
C      1  0.4058870000000  0.5188430000000  0.5289750000000 1.0
C      1  0.4196340000000  0.5217000000000  0.4401040000000 1.0
C      1  0.5242910000000  0.3960920000000  0.5345830000000 1.0
C      1  0.4952790000000  0.3985240000000  0.5396200000000 1.0
C      1  0.4718460000000  0.3990910000000  0.5147850000000 1.0
C      1  0.4705680000000  0.3937760000000  0.4810000000000 1.0
C      1  0.4939930000000  0.3936980000000  0.4637810000000 1.0
C      1  0.5239060000000  0.3985560000000  0.4715270000000 1.0
C      1  0.5358060000000  0.3977050000000  0.5033190000000 1.0
C      1  0.4621270000000  0.4435980000000  0.4390920000000 1.0
C      1  0.5118820000000  0.4544360000000  0.4391200000000 1.0
C      1  0.5510560000000  0.4507510000000  0.4759870000000 1.0
C      1  0.5537820000000  0.4420230000000  0.5302930000000 1.0
C      1  0.5129380000000  0.4445000000000  0.5613210000000 1.0
C      1  0.4555890000000  0.4517130000000  0.5469530000000 1.0
C      1  0.4282040000000  0.4426830000000  0.5013650000000 1.0
C      1  0.5559150000000  0.4639710000000  0.5047430000000 1.0
C      1  0.5380070000000  0.4642190000000  0.5495290000000 1.0
C      1  0.4852230000000  0.4638170000000  0.5584250000000 1.0
C      1  0.4441530000000  0.4671050000000  0.5188610000000 1.0
C      1  0.4466410000000  0.4622590000000  0.4612650000000 1.0
C      1  0.4838650000000  0.4696640000000  0.4412110000000 1.0
C      1  0.5364110000000  0.4697670000000  0.4569910000000 1.0
C      1  0.5242860000000  0.5707990000000  0.5789750000000 1.0
C      1  0.4636900000000  0.5819800000000  0.5759530000000 1.0
C      1  0.4173070000000  0.5698650000000  0.5076210000000 1.0
C      1  0.4439610000000  0.5657460000000  0.4424200000000 1.0
C      1  0.5106090000000  0.5726810000000  0.4192460000000 1.0
C      1  0.5726780000000  0.5679990000000  0.4606320000000 1.0
C      1  0.5847690000000  0.5658920000000  0.5229680000000 1.0
C      1  0.4670810000000  0.5894840000000  0.5247480000000 1.0
C      1  0.4621160000000  0.5905600000000  0.4903290000000 1.0
C      1  0.4881820000000  0.5840480000000  0.4694400000000 1.0
C      1  0.5210880000000  0.5904700000000  0.4635970000000 1.0
C      1  0.5386860000000  0.5979480000000  0.4917840000000 1.0
C      1  0.5313350000000  0.5937560000000  0.5256850000000 1.0
C      1  0.5000670000000  0.5852020000000  0.5360680000000 1.0
C      1  0.5200300000000  0.5404630000000  0.4248840000000 1.0
C      1  0.5853210000000  0.5415630000000  0.4756230000000 1.0
C      1  0.5762530000000  0.5435410000000  0.5453860000000 1.0
C      1  0.5134060000000  0.5393850000000  0.5818650000000 1.0
C      1  0.4415900000000  0.5407980000000  0.5512360000000 1.0
C      1  0.4292780000000  0.5431610000000  0.4903040000000 1.0
C      1  0.4622750000000  0.5399530000000  0.4414320000000 1.0
C      1  0.4765820000000  0.4741640000000  0.5114360000000 1.0
C      1  0.4585890000000  0.4648090000000  0.4880460000000 1.0
C      1  0.4821110000000  0.4767920000000  0.4719360000000 1.0
C      1  0.5112390000000  0.4683680000000  0.4773270000000 1.0
C      1  0.5297440000000  0.4807090000000  0.4986640000000 1.0
C      1  0.5225610000000  0.4711370000000  0.5254320000000 1.0
C      1  0.4959590000000  0.4776510000000  0.5337850000000 1.0
C      1  0.4332080000000  0.5957960000000  0.5033370000000 1.0
C      1  0.4550080000000  0.5890780000000  0.4273640000000 1.0
C      1  0.5211870000000  0.5964090000000  0.4333020000000 1.0
C      1  0.5643550000000  0.5952440000000  0.4714860000000 1.0
C      1  0.5650870000000  0.5931210000000  0.5299060000000 1.0
C      1  0.5139710000000  0.5961140000000  0.5651150000000 1.0
C      1  0.4542030000000  0.5982850000000  0.5549710000000 1.0
C      1  0.4543540000000  0.5018110000000  0.5465540000000 1.0
C      1  0.4228620000000  0.4993560000000  0.4907690000000 1.0
C      1  0.4586180000000  0.5003100000000  0.4377830000000 1.0
C      1  0.5150680000000  0.5024150000000  0.4355200000000 1.0
C      1  0.5684710000000  0.5004680000000  0.4718550000000 1.0
C      1  0.5563100000000  0.5012910000000  0.5373010000000 1.0
C      1  0.5115510000000  0.4965790000000  0.5753790000000 1.0
C      1  0.5038330000000  0.4361810000000  0.5296310000000 1.0
C      1  0.4779530000000  0.4369720000000  0.5260080000000 1.0
C      1  0.4583250000000  0.4268790000000  0.5005320000000 1.0
C      1  0.4716220000000  0.4319090000000  0.4696070000000 1.0
C      1  0.5044890000000  0.4321050000000  0.4618800000000 1.0
C      1  0.5294100000000  0.4304720000000  0.4816770000000 1.0
C      1  0.5274270000000  0.4293130000000  0.5129660000000 1.0
C      1  0.5298600000000  0.5355780000000  0.4786510000000 1.0
C      1  0.5423140000000  0.5464280000000  0.5058850000000 1.0
C      1  0.5135880000000  0.5587650000000  0.5192890000000 1.0
C      1  0.4889450000000  0.5468700000000  0.5349340000000 1.0
C      1  0.4709010000000  0.5429680000000  0.5110320000000 1.0
C      1  0.4777160000000  0.5551060000000  0.4839270000000 1.0
C      1  0.5048260000000  0.5480980000000  0.4720780000000 1.0
C      1  0.5062410000000  0.5786350000000  0.4977360000000 1.0
END
