TITL C-2622955-8511-159 -0.000886468777803272 125000 -430.103121546361 0 0 76 (C1) n - 1
REM
REM in /nfs/bkarasulu/CARBON/AIRSS/Generating-Clusters/AIREBO/with-SteepDescent/Higher-Symm/SD-CG/HFTN-CG
REM
REM
REM
REM
REM
REM ./C.cell (b20cbc046b6831c77cfcea5457e17084)
REM
REM compiler GCC version 9.2.1 20190827 (Red Hat 9.2.1-1)
REM options -cpp -mtune=generic -march=x86-64 -g -O0 -fpre-include=/usr/include/finclude/math-vector-fortran.h
REM seed 178577721 -670794156 -591232258 -192514046 1248459530 897957320 -869080061 1190668332 2005581278 -582376679 5802983 -1018308898 -943195875 2025851513 1348880298 -1453932746 -1709550941 -918718930 -736175853 -838364927 -878682781 1587128105 -1599297124 1364718575 1773196158 -852259923 -240565558 -335769815 687361468 -1598022464 -1620177894 -1170018853 -735589513
REM
CELL 1.54180   50.00000   50.00000   50.00000   90.00000   90.00000   90.00000
LATT -1
SFAC C  
C      1  0.4873660000000  0.5457600000000  0.5658060000000 1.0
C      1  0.5231210000000  0.5591140000000  0.4357050000000 1.0
C      1  0.4748150000000  0.4417760000000  0.4371910000000 1.0
C      1  0.5235240000000  0.4382330000000  0.5615020000000 1.0
C      1  0.5643930000000  0.5473300000000  0.4887550000000 1.0
C      1  0.4338110000000  0.5554150000000  0.5238200000000 1.0
C      1  0.4335290000000  0.4373290000000  0.4705180000000 1.0
C      1  0.5636820000000  0.4403150000000  0.5238890000000 1.0
C      1  0.5403400000000  0.4990180000000  0.4268220000000 1.0
C      1  0.4757810000000  0.5003710000000  0.5665540000000 1.0
C      1  0.5281810000000  0.4962910000000  0.5705490000000 1.0
C      1  0.4551870000000  0.4974210000000  0.4331720000000 1.0
C      1  0.4283700000000  0.4967730000000  0.5366450000000 1.0
C      1  0.5690670000000  0.5001080000000  0.4750470000000 1.0
C      1  0.5721610000000  0.4970170000000  0.5293770000000 1.0
C      1  0.4351040000000  0.4917390000000  0.4569340000000 1.0
C      1  0.5399770000000  0.5220060000000  0.5590770000000 1.0
C      1  0.4660040000000  0.5253690000000  0.4387870000000 1.0
C      1  0.5349730000000  0.4763380000000  0.4480810000000 1.0
C      1  0.4675650000000  0.4739860000000  0.5561120000000 1.0
C      1  0.5621820000000  0.5230920000000  0.5421410000000 1.0
C      1  0.4460470000000  0.5201890000000  0.4644180000000 1.0
C      1  0.4455880000000  0.4722130000000  0.5387510000000 1.0
C      1  0.5537720000000  0.4758480000000  0.4689780000000 1.0
C      1  0.4437890000000  0.5255040000000  0.5303350000000 1.0
C      1  0.5538180000000  0.5261820000000  0.4657100000000 1.0
C      1  0.4425460000000  0.4664610000000  0.4726900000000 1.0
C      1  0.5576190000000  0.4696460000000  0.5361340000000 1.0
C      1  0.5330020000000  0.5290150000000  0.4395550000000 1.0
C      1  0.4708120000000  0.5245090000000  0.5471410000000 1.0
C      1  0.4676110000000  0.4713020000000  0.4464590000000 1.0
C      1  0.5346650000000  0.4685260000000  0.5571530000000 1.0
C      1  0.4794370000000  0.5195110000000  0.4962190000000 1.0
C      1  0.5318730000000  0.5240510000000  0.4884300000000 1.0
C      1  0.4744150000000  0.4859100000000  0.4992340000000 1.0
C      1  0.5281540000000  0.4952400000000  0.5010960000000 1.0
C      1  0.5048400000000  0.5160870000000  0.4762960000000 1.0
C      1  0.4921290000000  0.5236040000000  0.5251920000000 1.0
C      1  0.4970630000000  0.4860380000000  0.4777230000000 1.0
C      1  0.5023450000000  0.4941840000000  0.5166720000000 1.0
C      1  0.5532460000000  0.5731250000000  0.4851850000000 1.0
C      1  0.4439250000000  0.5742930000000  0.5109850000000 1.0
C      1  0.5498340000000  0.4241050000000  0.5106840000000 1.0
C      1  0.4440770000000  0.4190340000000  0.4845250000000 1.0
C      1  0.4861530000000  0.5720690000000  0.5550940000000 1.0
C      1  0.5091480000000  0.5751770000000  0.4483070000000 1.0
C      1  0.5077660000000  0.4247180000000  0.5473910000000 1.0
C      1  0.4882640000000  0.4241910000000  0.4488770000000 1.0
C      1  0.4644880000000  0.5487000000000  0.4881770000000 1.0
C      1  0.5256040000000  0.5499120000000  0.5023600000000 1.0
C      1  0.4662720000000  0.4556560000000  0.5090380000000 1.0
C      1  0.5251370000000  0.4626680000000  0.4932790000000 1.0
C      1  0.4891160000000  0.5431410000000  0.4655830000000 1.0
C      1  0.5077880000000  0.5489100000000  0.5224920000000 1.0
C      1  0.5056210000000  0.4539770000000  0.4702480000000 1.0
C      1  0.4931350000000  0.4646240000000  0.5269650000000 1.0
C      1  0.5539620000000  0.4733350000000  0.5029100000000 1.0
C      1  0.4374450000000  0.4733640000000  0.5056320000000 1.0
C      1  0.5742740000000  0.5325140000000  0.5117500000000 1.0
C      1  0.4404530000000  0.5271430000000  0.4963540000000 1.0
C      1  0.5007250000000  0.4706640000000  0.5568600000000 1.0
C      1  0.5014800000000  0.4709460000000  0.4429180000000 1.0
C      1  0.5120460000000  0.5322950000000  0.5755600000000 1.0
C      1  0.4989140000000  0.5274120000000  0.4386520000000 1.0
C      1  0.5237370000000  0.5740170000000  0.4854640000000 1.0
C      1  0.4749110000000  0.5772570000000  0.5034260000000 1.0
C      1  0.5226640000000  0.4310650000000  0.4981810000000 1.0
C      1  0.4702380000000  0.4252890000000  0.4992120000000 1.0
C      1  0.4923130000000  0.5717890000000  0.5276460000000 1.0
C      1  0.4924000000000  0.5748000000000  0.4766940000000 1.0
C      1  0.4973010000000  0.4327380000000  0.5186360000000 1.0
C      1  0.4955660000000  0.4241450000000  0.4797520000000 1.0
C      1  0.4222840000000  0.5025960000000  0.5063770000000 1.0
C      1  0.5090400000000  0.4991190000000  0.4288880000000 1.0
C      1  0.5003710000000  0.5029160000000  0.5805160000000 1.0
C      1  0.5816450000000  0.5034760000000  0.5007140000000 1.0
END
