TITL C-2622962-9663-628 -0.000490780880257621 125000 -625.862205805654 0 0 110 (C1) n - 1
REM
REM in /nfs/bkarasulu/CARBON/AIRSS/Generating-Clusters/AIREBO/with-SteepDescent/Higher-Symm/SD-CG/HFTN-CG
REM
REM
REM
REM
REM
REM ./C.cell (b20cbc046b6831c77cfcea5457e17084)
REM
REM compiler GCC version 9.2.1 20190827 (Red Hat 9.2.1-1)
REM options -cpp -mtune=generic -march=x86-64 -g -O0 -fpre-include=/usr/include/finclude/math-vector-fortran.h
REM seed -2063938266 -1513669375 -318422648 2075789286 -2129770636 2021176914 -617582500 1209113964 -1235433032 -1302381205 -2079686740 1253860586 1976756109 -1251931620 1231045268 1717225523 1617042687 -387417445 2119621261 -1786891904 1126034163 -814764259 -90680084 2049636819 -2072910526 -868312284 973947611 -2077915298 -935353611 528229745 19330882 2041787293 1625548476
REM
CELL 1.54180   50.00000   50.00000   50.00000   90.00000   90.00000   90.00000
LATT -1
SFAC C  
C      1  0.5222280000000  0.4812290000000  0.4622630000000 1.0
C      1  0.4716310000000  0.4700880000000  0.4726740000000 1.0
C      1  0.4642870000000  0.4800220000000  0.5201900000000 1.0
C      1  0.5053690000000  0.4701910000000  0.5548540000000 1.0
C      1  0.5323070000000  0.4801590000000  0.5160960000000 1.0
C      1  0.4189400000000  0.4829710000000  0.5545030000000 1.0
C      1  0.5414850000000  0.4773720000000  0.5958640000000 1.0
C      1  0.5933720000000  0.4876510000000  0.5101090000000 1.0
C      1  0.5400270000000  0.4739830000000  0.4047900000000 1.0
C      1  0.4265290000000  0.4837280000000  0.4380530000000 1.0
C      1  0.4512450000000  0.4811710000000  0.4188930000000 1.0
C      1  0.4060330000000  0.5109720000000  0.5091280000000 1.0
C      1  0.4863980000000  0.4981960000000  0.5918040000000 1.0
C      1  0.5846520000000  0.4925570000000  0.5419350000000 1.0
C      1  0.5462660000000  0.5038370000000  0.4129050000000 1.0
C      1  0.5842260000000  0.5188880000000  0.5199380000000 1.0
C      1  0.5231930000000  0.5191330000000  0.4168780000000 1.0
C      1  0.4432770000000  0.5121560000000  0.4361920000000 1.0
C      1  0.4208420000000  0.5116030000000  0.5378230000000 1.0
C      1  0.5343970000000  0.5038600000000  0.5801620000000 1.0
C      1  0.4347330000000  0.5727530000000  0.4784210000000 1.0
C      1  0.4598280000000  0.5638080000000  0.5556050000000 1.0
C      1  0.5372880000000  0.5750280000000  0.5418460000000 1.0
C      1  0.5695370000000  0.5688250000000  0.4704600000000 1.0
C      1  0.4962630000000  0.5732200000000  0.4336310000000 1.0
C      1  0.5484390000000  0.4336820000000  0.4483900000000 1.0
C      1  0.4681700000000  0.4407770000000  0.4363020000000 1.0
C      1  0.4256070000000  0.4344950000000  0.5120000000000 1.0
C      1  0.4883590000000  0.4283260000000  0.5706060000000 1.0
C      1  0.5579910000000  0.4350860000000  0.5389700000000 1.0
C      1  0.4745210000000  0.5571180000000  0.5047800000000 1.0
C      1  0.4955290000000  0.5477270000000  0.5271660000000 1.0
C      1  0.5223640000000  0.5514510000000  0.5133110000000 1.0
C      1  0.5184520000000  0.5565260000000  0.4824870000000 1.0
C      1  0.4886470000000  0.5579570000000  0.4782350000000 1.0
C      1  0.5650820000000  0.4660850000000  0.5510460000000 1.0
C      1  0.5564970000000  0.4612620000000  0.4575070000000 1.0
C      1  0.4804480000000  0.4724030000000  0.4339610000000 1.0
C      1  0.4187210000000  0.4642380000000  0.5023440000000 1.0
C      1  0.4767470000000  0.4577260000000  0.5664230000000 1.0
C      1  0.5625920000000  0.4497820000000  0.4951320000000 1.0
C      1  0.5088030000000  0.4418070000000  0.4239640000000 1.0
C      1  0.4377010000000  0.4490670000000  0.4709010000000 1.0
C      1  0.4419310000000  0.4409810000000  0.5562230000000 1.0
C      1  0.5342790000000  0.4391000000000  0.5609260000000 1.0
C      1  0.5151320000000  0.5650080000000  0.5573140000000 1.0
C      1  0.5684090000000  0.5714580000000  0.4995950000000 1.0
C      1  0.5242460000000  0.5704010000000  0.4455690000000 1.0
C      1  0.4485640000000  0.5683010000000  0.4535350000000 1.0
C      1  0.4419000000000  0.5591570000000  0.5285030000000 1.0
C      1  0.4773070000000  0.5124900000000  0.4796600000000 1.0
C      1  0.4809200000000  0.5030180000000  0.5111990000000 1.0
C      1  0.5106460000000  0.5034900000000  0.5189640000000 1.0
C      1  0.5339980000000  0.5149740000000  0.4970670000000 1.0
C      1  0.5107050000000  0.5080280000000  0.4732750000000 1.0
C      1  0.5409940000000  0.4718590000000  0.4861490000000 1.0
C      1  0.4995550000000  0.4612730000000  0.4598050000000 1.0
C      1  0.4520310000000  0.4661030000000  0.4953440000000 1.0
C      1  0.4803310000000  0.4594600000000  0.5340090000000 1.0
C      1  0.5329650000000  0.4660610000000  0.5413060000000 1.0
C      1  0.5061660000000  0.4975350000000  0.5699350000000 1.0
C      1  0.5602030000000  0.4967360000000  0.5106330000000 1.0
C      1  0.5450080000000  0.4824020000000  0.4370470000000 1.0
C      1  0.4631070000000  0.4945070000000  0.4545330000000 1.0
C      1  0.4312510000000  0.4837960000000  0.5241310000000 1.0
C      1  0.5097890000000  0.4228620000000  0.5540730000000 1.0
C      1  0.5504510000000  0.4315310000000  0.5120410000000 1.0
C      1  0.5213750000000  0.4303120000000  0.4470070000000 1.0
C      1  0.4596710000000  0.4332320000000  0.4627840000000 1.0
C      1  0.4463090000000  0.4310750000000  0.5297570000000 1.0
C      1  0.4569010000000  0.5436070000000  0.5744080000000 1.0
C      1  0.5591770000000  0.5596330000000  0.5502250000000 1.0
C      1  0.5725910000000  0.5436400000000  0.4607510000000 1.0
C      1  0.4892360000000  0.5525280000000  0.4141620000000 1.0
C      1  0.4315400000000  0.5475250000000  0.4977020000000 1.0
C      1  0.4615360000000  0.4850400000000  0.5764300000000 1.0
C      1  0.5584700000000  0.4981010000000  0.5598520000000 1.0
C      1  0.5698430000000  0.4912430000000  0.4664040000000 1.0
C      1  0.4991560000000  0.4968670000000  0.4195060000000 1.0
C      1  0.4223130000000  0.4941860000000  0.4866330000000 1.0
C      1  0.5739710000000  0.5472930000000  0.5126270000000 1.0
C      1  0.5240150000000  0.5425410000000  0.4310140000000 1.0
C      1  0.4458610000000  0.5404880000000  0.4444280000000 1.0
C      1  0.4455820000000  0.5279550000000  0.5396400000000 1.0
C      1  0.5213150000000  0.5342380000000  0.5651320000000 1.0
C      1  0.4520100000000  0.5799020000000  0.5039190000000 1.0
C      1  0.4865740000000  0.5686430000000  0.5495620000000 1.0
C      1  0.5379130000000  0.5811060000000  0.5083870000000 1.0
C      1  0.5394940000000  0.5793660000000  0.4731740000000 1.0
C      1  0.4766470000000  0.5754060000000  0.4544390000000 1.0
C      1  0.5501810000000  0.5276240000000  0.5523880000000 1.0
C      1  0.5557950000000  0.5178280000000  0.4706280000000 1.0
C      1  0.4851320000000  0.5271830000000  0.4258780000000 1.0
C      1  0.4442000000000  0.5177160000000  0.4873070000000 1.0
C      1  0.4672620000000  0.5151110000000  0.5611330000000 1.0
C      1  0.5118650000000  0.4667090000000  0.4102040000000 1.0
C      1  0.4237930000000  0.4732910000000  0.4632530000000 1.0
C      1  0.4378480000000  0.4667050000000  0.5679400000000 1.0
C      1  0.5413510000000  0.4534390000000  0.5881860000000 1.0
C      1  0.5809110000000  0.4719350000000  0.4872070000000 1.0
C      1  0.5233410000000  0.4239010000000  0.5049570000000 1.0
C      1  0.5081490000000  0.4325170000000  0.4757950000000 1.0
C      1  0.4778800000000  0.4276590000000  0.4841220000000 1.0
C      1  0.4760070000000  0.4315170000000  0.5177250000000 1.0
C      1  0.5046180000000  0.4208940000000  0.5262560000000 1.0
C      1  0.5473210000000  0.5341340000000  0.5218040000000 1.0
C      1  0.5272670000000  0.5344710000000  0.4628880000000 1.0
C      1  0.4761310000000  0.5355370000000  0.4559350000000 1.0
C      1  0.4631050000000  0.5290110000000  0.5131150000000 1.0
C      1  0.4974360000000  0.5194440000000  0.5459600000000 1.0
END
