TITL C-2622961-1971-812 -1865.39344056047 125000 -930.895327650557 0 0 176 (C1) n - 1
REM
REM in /nfs/bkarasulu/CARBON/AIRSS/Generating-Clusters/AIREBO/with-SteepDescent/Higher-Symm/SD-CG/HFTN-CG
REM
REM
REM
REM
REM
REM ./C.cell (b20cbc046b6831c77cfcea5457e17084)
REM
REM compiler GCC version 9.2.1 20190827 (Red Hat 9.2.1-1)
REM options -cpp -mtune=generic -march=x86-64 -g -O0 -fpre-include=/usr/include/finclude/math-vector-fortran.h
REM seed -1011849848 -855743513 -1796548046 319757495 -1549102063 -1770309672 1103814042 1584396734 1302174581 373900266 -1311586080 -451277319 -29896887 2119500136 -1385441724 1318296890 -557805329 -198763829 456372560 -791365525 -1818218177 107696734 798982343 -1558130770 835808583 617457845 -81347114 -1162646111 44821809 -7890021 -1200239626 1140717591 -1979116908
REM
CELL 1.54180   50.00000   50.00000   50.00000   90.00000   90.00000   90.00000
LATT -1
SFAC C  
C      1  0.5636060000000  0.4449470000000  0.4632440000000 1.0
C      1  0.5546910000000  0.4350560000000  0.5401160000000 1.0
C      1  0.5609600000000  0.5080600000000  0.5545520000000 1.0
C      1  0.5624930000000  0.5599030000000  0.4963280000000 1.0
C      1  0.5707080000000  0.5212140000000  0.4438040000000 1.0
C      1  0.4359230000000  0.4551140000000  0.5331780000000 1.0
C      1  0.4427950000000  0.4500730000000  0.4668040000000 1.0
C      1  0.4276280000000  0.5150270000000  0.4515030000000 1.0
C      1  0.4193260000000  0.5575870000000  0.5012310000000 1.0
C      1  0.4361120000000  0.5251290000000  0.5630450000000 1.0
C      1  0.5449880000000  0.4179580000000  0.4553140000000 1.0
C      1  0.5467190000000  0.4245420000000  0.5695310000000 1.0
C      1  0.5474310000000  0.5220290000000  0.5824450000000 1.0
C      1  0.5418230000000  0.5863210000000  0.4979510000000 1.0
C      1  0.5481420000000  0.5217730000000  0.4183400000000 1.0
C      1  0.4579910000000  0.4293890000000  0.5397140000000 1.0
C      1  0.4656010000000  0.4434220000000  0.4481560000000 1.0
C      1  0.4588070000000  0.5429780000000  0.4058300000000 1.0
C      1  0.4529110000000  0.5857380000000  0.4906440000000 1.0
C      1  0.4569120000000  0.5262710000000  0.5900910000000 1.0
C      1  0.4601010000000  0.4935330000000  0.5590720000000 1.0
C      1  0.4562540000000  0.5453810000000  0.5284090000000 1.0
C      1  0.4485950000000  0.5344710000000  0.4792100000000 1.0
C      1  0.4675660000000  0.4823570000000  0.4618060000000 1.0
C      1  0.4687260000000  0.4409710000000  0.5033310000000 1.0
C      1  0.5485200000000  0.4843370000000  0.4448180000000 1.0
C      1  0.5457750000000  0.5451100000000  0.4637190000000 1.0
C      1  0.5375950000000  0.5346880000000  0.5362520000000 1.0
C      1  0.5503880000000  0.4682990000000  0.5343690000000 1.0
C      1  0.5391660000000  0.4444300000000  0.4943230000000 1.0
C      1  0.4914110000000  0.5389580000000  0.5452700000000 1.0
C      1  0.4949010000000  0.5573880000000  0.4757750000000 1.0
C      1  0.4930530000000  0.5132230000000  0.4393440000000 1.0
C      1  0.5086360000000  0.4430470000000  0.4825840000000 1.0
C      1  0.4926810000000  0.4680770000000  0.5434000000000 1.0
C      1  0.5047530000000  0.5418070000000  0.4471930000000 1.0
C      1  0.4994420000000  0.5554050000000  0.5165840000000 1.0
C      1  0.4919560000000  0.5063260000000  0.5548140000000 1.0
C      1  0.4989100000000  0.4527240000000  0.5137070000000 1.0
C      1  0.4992760000000  0.4702860000000  0.4644880000000 1.0
C      1  0.4796890000000  0.4456090000000  0.4191550000000 1.0
C      1  0.4749060000000  0.4075550000000  0.5259940000000 1.0
C      1  0.4699880000000  0.5055820000000  0.6137320000000 1.0
C      1  0.4494200000000  0.5881840000000  0.5181660000000 1.0
C      1  0.4694820000000  0.5653580000000  0.4105010000000 1.0
C      1  0.5335220000000  0.4411830000000  0.5864640000000 1.0
C      1  0.5350090000000  0.4039420000000  0.4756660000000 1.0
C      1  0.5300030000000  0.4994560000000  0.4002000000000 1.0
C      1  0.5290420000000  0.6030160000000  0.4734430000000 1.0
C      1  0.5302210000000  0.5447890000000  0.5859480000000 1.0
C      1  0.5571130000000  0.4706030000000  0.4846480000000 1.0
C      1  0.5671060000000  0.4850760000000  0.5138280000000 1.0
C      1  0.5640380000000  0.5184260000000  0.5222850000000 1.0
C      1  0.5561910000000  0.5264680000000  0.4901860000000 1.0
C      1  0.5649550000000  0.5002820000000  0.4699910000000 1.0
C      1  0.4326090000000  0.4820860000000  0.5127180000000 1.0
C      1  0.4393890000000  0.4814910000000  0.4793870000000 1.0
C      1  0.4262890000000  0.5126610000000  0.4831390000000 1.0
C      1  0.4269610000000  0.5358360000000  0.5229410000000 1.0
C      1  0.4409160000000  0.5070950000000  0.5344560000000 1.0
C      1  0.4477850000000  0.3962970000000  0.4819620000000 1.0
C      1  0.4547260000000  0.4487700000000  0.5835310000000 1.0
C      1  0.4644240000000  0.5767740000000  0.5641000000000 1.0
C      1  0.4585960000000  0.5727120000000  0.4481110000000 1.0
C      1  0.4673430000000  0.4907830000000  0.4187070000000 1.0
C      1  0.5538030000000  0.3972610000000  0.5097180000000 1.0
C      1  0.5620440000000  0.4475360000000  0.4089480000000 1.0
C      1  0.5391580000000  0.5722140000000  0.4351790000000 1.0
C      1  0.5306120000000  0.5875560000000  0.5362830000000 1.0
C      1  0.5532240000000  0.4854260000000  0.6032070000000 1.0
C      1  0.4012770000000  0.5139530000000  0.5278170000000 1.0
C      1  0.3980730000000  0.5240310000000  0.4983420000000 1.0
C      1  0.3853380000000  0.5048740000000  0.4764340000000 1.0
C      1  0.4021180000000  0.4844010000000  0.4978080000000 1.0
C      1  0.3890100000000  0.4822590000000  0.5266650000000 1.0
C      1  0.6059890000000  0.5178800000000  0.4832300000000 1.0
C      1  0.5959990000000  0.5257600000000  0.5132470000000 1.0
C      1  0.5968350000000  0.4961170000000  0.5261280000000 1.0
C      1  0.6043280000000  0.4718780000000  0.5079970000000 1.0
C      1  0.5949920000000  0.4876190000000  0.4797140000000 1.0
C      1  0.4219310000000  0.3950970000000  0.4959970000000 1.0
C      1  0.4356020000000  0.4653020000000  0.5945580000000 1.0
C      1  0.4309130000000  0.5810230000000  0.5610450000000 1.0
C      1  0.4326070000000  0.5760610000000  0.4352640000000 1.0
C      1  0.4410960000000  0.4728540000000  0.4066330000000 1.0
C      1  0.5797220000000  0.3937960000000  0.4989770000000 1.0
C      1  0.5811240000000  0.4671350000000  0.4069550000000 1.0
C      1  0.5701250000000  0.5860710000000  0.4374720000000 1.0
C      1  0.5565070000000  0.5793540000000  0.5506370000000 1.0
C      1  0.5761610000000  0.4759000000000  0.5910090000000 1.0
C      1  0.4990010000000  0.4340120000000  0.5678210000000 1.0
C      1  0.4823960000000  0.5400940000000  0.5780440000000 1.0
C      1  0.4811630000000  0.5855970000000  0.4832020000000 1.0
C      1  0.4764400000000  0.5183940000000  0.4100160000000 1.0
C      1  0.4946900000000  0.4320990000000  0.4535590000000 1.0
C      1  0.5233100000000  0.4283960000000  0.4361410000000 1.0
C      1  0.5213200000000  0.5379210000000  0.4183070000000 1.0
C      1  0.5092960000000  0.5836140000000  0.5022430000000 1.0
C      1  0.5189990000000  0.5079290000000  0.5753620000000 1.0
C      1  0.4976770000000  0.4267940000000  0.5356750000000 1.0
C      1  0.5100990000000  0.4611390000000  0.6014040000000 1.0
C      1  0.4954670000000  0.5759330000000  0.5670150000000 1.0
C      1  0.5159300000000  0.6110480000000  0.4497050000000 1.0
C      1  0.5177000000000  0.4806470000000  0.3845700000000 1.0
C      1  0.5231100000000  0.3864620000000  0.5020270000000 1.0
C      1  0.5020670000000  0.4629770000000  0.4001370000000 1.0
C      1  0.5126090000000  0.5892920000000  0.4329200000000 1.0
C      1  0.5039540000000  0.5896560000000  0.5414000000000 1.0
C      1  0.4954230000000  0.4829370000000  0.6106490000000 1.0
C      1  0.4939610000000  0.3818480000000  0.5161030000000 1.0
C      1  0.6041400000000  0.4494030000000  0.5227410000000 1.0
C      1  0.6047250000000  0.5162300000000  0.5509270000000 1.0
C      1  0.6084360000000  0.5531300000000  0.5013260000000 1.0
C      1  0.6172070000000  0.5119460000000  0.4571130000000 1.0
C      1  0.6077440000000  0.4582220000000  0.4707970000000 1.0
C      1  0.3967210000000  0.4638770000000  0.4724440000000 1.0
C      1  0.3826460000000  0.5169730000000  0.4522440000000 1.0
C      1  0.3863480000000  0.5555210000000  0.4996580000000 1.0
C      1  0.3910020000000  0.5098040000000  0.5575970000000 1.0
C      1  0.3883270000000  0.4568210000000  0.5356370000000 1.0
C      1  0.4768150000000  0.5222620000000  0.5194710000000 1.0
C      1  0.4773850000000  0.5323240000000  0.4882780000000 1.0
C      1  0.4851760000000  0.5071260000000  0.4699880000000 1.0
C      1  0.4636310000000  0.4708840000000  0.5090280000000 1.0
C      1  0.4833440000000  0.4904350000000  0.5194330000000 1.0
C      1  0.5208380000000  0.5250290000000  0.4720410000000 1.0
C      1  0.5134480000000  0.5284130000000  0.5050580000000 1.0
C      1  0.5170650000000  0.5078590000000  0.5319170000000 1.0
C      1  0.5222070000000  0.4772370000000  0.5174780000000 1.0
C      1  0.5255220000000  0.4915030000000  0.4688190000000 1.0
C      1  0.5904690000000  0.5657220000000  0.4845750000000 1.0
C      1  0.5978810000000  0.5063350000000  0.4374850000000 1.0
C      1  0.5915030000000  0.4363580000000  0.4698790000000 1.0
C      1  0.5854390000000  0.4455010000000  0.5410580000000 1.0
C      1  0.5828610000000  0.5318610000000  0.5592180000000 1.0
C      1  0.4011660000000  0.5799520000000  0.5175260000000 1.0
C      1  0.4118860000000  0.5082490000000  0.5745930000000 1.0
C      1  0.4100370000000  0.4403440000000  0.5282470000000 1.0
C      1  0.4152750000000  0.4566900000000  0.4538480000000 1.0
C      1  0.4059490000000  0.5317910000000  0.4440840000000 1.0
C      1  0.5036190000000  0.4095440000000  0.4856110000000 1.0
C      1  0.5158280000000  0.4635610000000  0.5679570000000 1.0
C      1  0.5193940000000  0.5534870000000  0.5579970000000 1.0
C      1  0.5247810000000  0.5703090000000  0.4659450000000 1.0
C      1  0.5202530000000  0.4953590000000  0.4294530000000 1.0
C      1  0.4746350000000  0.4088390000000  0.4938930000000 1.0
C      1  0.4936710000000  0.4742130000000  0.4311250000000 1.0
C      1  0.4886990000000  0.5697770000000  0.4363780000000 1.0
C      1  0.4753220000000  0.5732270000000  0.5326310000000 1.0
C      1  0.4816380000000  0.4953950000000  0.5853170000000 1.0
C      1  0.4145220000000  0.4216550000000  0.5085770000000 1.0
C      1  0.4337850000000  0.4893590000000  0.5802620000000 1.0
C      1  0.4253830000000  0.5869130000000  0.5336530000000 1.0
C      1  0.4124320000000  0.5586070000000  0.4489020000000 1.0
C      1  0.4231760000000  0.4699040000000  0.4305440000000 1.0
C      1  0.5927260000000  0.4104450000000  0.4809310000000 1.0
C      1  0.5785870000000  0.4858660000000  0.4275410000000 1.0
C      1  0.5742830000000  0.5591560000000  0.4581260000000 1.0
C      1  0.5621510000000  0.5512480000000  0.5529680000000 1.0
C      1  0.5689710000000  0.4641300000000  0.5625970000000 1.0
C      1  0.4409760000000  0.4292810000000  0.4886060000000 1.0
C      1  0.4626810000000  0.4600760000000  0.5535870000000 1.0
C      1  0.4451200000000  0.5539850000000  0.5745580000000 1.0
C      1  0.4371670000000  0.5637090000000  0.4729410000000 1.0
C      1  0.4431490000000  0.4930250000000  0.4406870000000 1.0
C      1  0.5477720000000  0.4248950000000  0.5135060000000 1.0
C      1  0.5455010000000  0.4518350000000  0.4352510000000 1.0
C      1  0.5624600000000  0.5499470000000  0.4276030000000 1.0
C      1  0.5395280000000  0.5615980000000  0.5191330000000 1.0
C      1  0.5427340000000  0.4841880000000  0.5706960000000 1.0
C      1  0.5037740000000  0.5295940000000  0.3983000000000 1.0
C      1  0.5113170000000  0.4060870000000  0.5593230000000 1.0
C      1  0.5025310000000  0.5478340000000  0.5951490000000 1.0
C      1  0.4986040000000  0.4055820000000  0.4325950000000 1.0
C      1  0.4966220000000  0.6134840000000  0.4932740000000 1.0
C      1  0.5050890000000  0.4968510000000  0.4955650000000 1.0
END
