TITL C-2622959-7779-647 -0.00139827505703276 125000 -684.574021448037 0 0 130 (C1) n - 1
REM
REM in /nfs/bkarasulu/CARBON/AIRSS/Generating-Clusters/AIREBO/with-SteepDescent/Higher-Symm/SD-CG/HFTN-CG
REM
REM
REM
REM
REM
REM ./C.cell (b20cbc046b6831c77cfcea5457e17084)
REM
REM compiler GCC version 9.2.1 20190827 (Red Hat 9.2.1-1)
REM options -cpp -mtune=generic -march=x86-64 -g -O0 -fpre-include=/usr/include/finclude/math-vector-fortran.h
REM seed 1113206431 860071976 105368377 -995310458 2099932045 1614381630 -1653103945 40896067 -639569898 -1265412009 -933867382 1360176670 2092982707 354681427 1389375382 -240786772 877110199 757519635 -1662925506 337209764 1573067893 826229011 -1618096891 1318414813 908592208 -364402237 -1080870014 -17726763 -1580499763 -186915162 -2139327074 -431345971 1693019858
REM
CELL 1.54180   50.00000   50.00000   50.00000   90.00000   90.00000   90.00000
LATT -1
SFAC C  
C      1  0.5230980000000  0.4739640000000  0.4445410000000 1.0
C      1  0.5266660000000  0.5450400000000  0.4594370000000 1.0
C      1  0.5166820000000  0.5498620000000  0.5285500000000 1.0
C      1  0.5216270000000  0.4889670000000  0.5563250000000 1.0
C      1  0.5172910000000  0.4412020000000  0.5048290000000 1.0
C      1  0.5225790000000  0.5722580000000  0.5631160000000 1.0
C      1  0.5152650000000  0.4475380000000  0.5840930000000 1.0
C      1  0.5131470000000  0.3994230000000  0.4843050000000 1.0
C      1  0.5212920000000  0.4922430000000  0.4063440000000 1.0
C      1  0.5193710000000  0.5836650000000  0.4519330000000 1.0
C      1  0.4746960000000  0.5682710000000  0.5782350000000 1.0
C      1  0.4804770000000  0.4371670000000  0.5862620000000 1.0
C      1  0.4734150000000  0.4075680000000  0.4694180000000 1.0
C      1  0.4752550000000  0.4953750000000  0.3967150000000 1.0
C      1  0.4719250000000  0.5996130000000  0.4609790000000 1.0
C      1  0.4769580000000  0.4698090000000  0.5193850000000 1.0
C      1  0.4672070000000  0.4681670000000  0.4707240000000 1.0
C      1  0.4739890000000  0.5091490000000  0.4723060000000 1.0
C      1  0.4520560000000  0.5496870000000  0.5093500000000 1.0
C      1  0.4746280000000  0.5058780000000  0.5406470000000 1.0
C      1  0.4503460000000  0.4223860000000  0.4620910000000 1.0
C      1  0.4594830000000  0.5035260000000  0.4183700000000 1.0
C      1  0.4500740000000  0.5987540000000  0.4786550000000 1.0
C      1  0.4546010000000  0.5450140000000  0.5717310000000 1.0
C      1  0.4571010000000  0.4457090000000  0.5679230000000 1.0
C      1  0.4460280000000  0.4722350000000  0.5089140000000 1.0
C      1  0.4429560000000  0.4858240000000  0.4807290000000 1.0
C      1  0.4450910000000  0.5179160000000  0.4861390000000 1.0
C      1  0.4387110000000  0.5211970000000  0.5179790000000 1.0
C      1  0.4472110000000  0.4926770000000  0.5331100000000 1.0
C      1  0.5406910000000  0.4409760000000  0.4801590000000 1.0
C      1  0.5414770000000  0.4997770000000  0.4397100000000 1.0
C      1  0.5426640000000  0.5607710000000  0.4837930000000 1.0
C      1  0.5488650000000  0.5330630000000  0.5597230000000 1.0
C      1  0.5402190000000  0.4630180000000  0.5533460000000 1.0
C      1  0.5808450000000  0.5206030000000  0.4860980000000 1.0
C      1  0.5819810000000  0.5214960000000  0.5185130000000 1.0
C      1  0.5809560000000  0.4892920000000  0.5281080000000 1.0
C      1  0.5789650000000  0.4703630000000  0.5017180000000 1.0
C      1  0.5804860000000  0.4894410000000  0.4760810000000 1.0
C      1  0.5539570000000  0.5172280000000  0.4655630000000 1.0
C      1  0.5610500000000  0.5465980000000  0.5090110000000 1.0
C      1  0.5554820000000  0.5056380000000  0.5436010000000 1.0
C      1  0.5575400000000  0.4571290000000  0.5246600000000 1.0
C      1  0.5533490000000  0.4695760000000  0.4710480000000 1.0
C      1  0.5002330000000  0.6031960000000  0.4721440000000 1.0
C      1  0.5021140000000  0.5621080000000  0.5864890000000 1.0
C      1  0.5048950000000  0.4167480000000  0.5778130000000 1.0
C      1  0.5023290000000  0.4062220000000  0.4527900000000 1.0
C      1  0.5003820000000  0.5084330000000  0.3925910000000 1.0
C      1  0.5164960000000  0.4020330000000  0.5341580000000 1.0
C      1  0.5255650000000  0.4426090000000  0.4198480000000 1.0
C      1  0.5141550000000  0.5535120000000  0.4094280000000 1.0
C      1  0.5232890000000  0.6026430000000  0.5178770000000 1.0
C      1  0.5261540000000  0.4951940000000  0.5955650000000 1.0
C      1  0.4858670000000  0.4941570000000  0.4468760000000 1.0
C      1  0.4882860000000  0.5524050000000  0.4678250000000 1.0
C      1  0.4846170000000  0.5350990000000  0.5468860000000 1.0
C      1  0.4824670000000  0.4672860000000  0.5467680000000 1.0
C      1  0.4775790000000  0.4437260000000  0.4859370000000 1.0
C      1  0.4574420000000  0.4768170000000  0.4393250000000 1.0
C      1  0.4552190000000  0.5436600000000  0.4663620000000 1.0
C      1  0.4596310000000  0.5572540000000  0.5403840000000 1.0
C      1  0.4553310000000  0.4793700000000  0.5633430000000 1.0
C      1  0.4513550000000  0.4393140000000  0.5069670000000 1.0
C      1  0.5138860000000  0.3970800000000  0.5618750000000 1.0
C      1  0.5168680000000  0.4152620000000  0.4264410000000 1.0
C      1  0.5069720000000  0.5359000000000  0.3889180000000 1.0
C      1  0.5176990000000  0.6177600000000  0.4957960000000 1.0
C      1  0.5091330000000  0.5581140000000  0.6125340000000 1.0
C      1  0.4221300000000  0.5922130000000  0.4658100000000 1.0
C      1  0.4279890000000  0.5579230000000  0.5528850000000 1.0
C      1  0.4235830000000  0.4672460000000  0.5646070000000 1.0
C      1  0.4330310000000  0.4259460000000  0.4850640000000 1.0
C      1  0.4235720000000  0.4794470000000  0.4289510000000 1.0
C      1  0.5702250000000  0.4397740000000  0.4913700000000 1.0
C      1  0.5724370000000  0.4908250000000  0.4430750000000 1.0
C      1  0.5732710000000  0.5511310000000  0.4731800000000 1.0
C      1  0.5747350000000  0.5404660000000  0.5457850000000 1.0
C      1  0.5724630000000  0.4721930000000  0.5565230000000 1.0
C      1  0.4428210000000  0.5711120000000  0.4925050000000 1.0
C      1  0.4497910000000  0.5120050000000  0.5712420000000 1.0
C      1  0.4469220000000  0.4311600000000  0.5396970000000 1.0
C      1  0.4513590000000  0.4428730000000  0.4435970000000 1.0
C      1  0.4517630000000  0.5281070000000  0.4368570000000 1.0
C      1  0.4695880000000  0.5819150000000  0.4381270000000 1.0
C      1  0.4731920000000  0.5892110000000  0.5601960000000 1.0
C      1  0.4785380000000  0.4690750000000  0.5942340000000 1.0
C      1  0.4743030000000  0.4020920000000  0.4963200000000 1.0
C      1  0.4767770000000  0.4663720000000  0.3972710000000 1.0
C      1  0.5271920000000  0.4703070000000  0.5980800000000 1.0
C      1  0.5209250000000  0.3908630000000  0.5083260000000 1.0
C      1  0.5322180000000  0.4664000000000  0.4063650000000 1.0
C      1  0.5256170000000  0.5737070000000  0.4284650000000 1.0
C      1  0.5300010000000  0.5905210000000  0.5450530000000 1.0
C      1  0.4934000000000  0.5274900000000  0.4855270000000 1.0
C      1  0.4799930000000  0.5340830000000  0.5132150000000 1.0
C      1  0.4959850000000  0.5049610000000  0.5181930000000 1.0
C      1  0.5015540000000  0.4778030000000  0.5034960000000 1.0
C      1  0.4972640000000  0.4771070000000  0.4736180000000 1.0
C      1  0.5022810000000  0.5427770000000  0.4383420000000 1.0
C      1  0.5055210000000  0.5763160000000  0.5168280000000 1.0
C      1  0.5061760000000  0.5093070000000  0.5744510000000 1.0
C      1  0.5039660000000  0.4291610000000  0.5288450000000 1.0
C      1  0.5045450000000  0.4491370000000  0.4437480000000 1.0
C      1  0.5760430000000  0.5671630000000  0.5315620000000 1.0
C      1  0.5751180000000  0.4997410000000  0.5707350000000 1.0
C      1  0.5727200000000  0.4271840000000  0.5192660000000 1.0
C      1  0.5774330000000  0.4607250000000  0.4484990000000 1.0
C      1  0.5784930000000  0.5333500000000  0.4482840000000 1.0
C      1  0.5341390000000  0.5315460000000  0.5118920000000 1.0
C      1  0.5274530000000  0.5009520000000  0.5250450000000 1.0
C      1  0.5308040000000  0.4690320000000  0.5138160000000 1.0
C      1  0.5277750000000  0.4878660000000  0.4752180000000 1.0
C      1  0.5251240000000  0.5208010000000  0.4832350000000 1.0
C      1  0.4787690000000  0.4532750000000  0.4271690000000 1.0
C      1  0.4712940000000  0.5551710000000  0.4318120000000 1.0
C      1  0.4793620000000  0.5829450000000  0.5323520000000 1.0
C      1  0.4786510000000  0.4966650000000  0.5810820000000 1.0
C      1  0.4751230000000  0.4209740000000  0.5229490000000 1.0
C      1  0.4269680000000  0.5615290000000  0.4668110000000 1.0
C      1  0.4295300000000  0.5250870000000  0.5482650000000 1.0
C      1  0.4202730000000  0.4449530000000  0.5525920000000 1.0
C      1  0.4061360000000  0.4225940000000  0.4871450000000 1.0
C      1  0.4364680000000  0.5009680000000  0.4509830000000 1.0
C      1  0.5108600000000  0.5728510000000  0.4832290000000 1.0
C      1  0.5153890000000  0.5390920000000  0.5607880000000 1.0
C      1  0.5084680000000  0.4509350000000  0.5516850000000 1.0
C      1  0.5071160000000  0.4327790000000  0.4734870000000 1.0
C      1  0.5096530000000  0.5098400000000  0.4330420000000 1.0
END
