TITL C-2622964-2985-271 -0.00668337332521955 125000 -859.534504655246 0 0 156 (C1) n - 1
REM
REM in /nfs/bkarasulu/CARBON/AIRSS/Generating-Clusters/AIREBO/with-SteepDescent/Higher-Symm/SD-CG/HFTN-CG
REM
REM
REM
REM
REM
REM ./C.cell (b20cbc046b6831c77cfcea5457e17084)
REM
REM compiler GCC version 9.2.1 20190827 (Red Hat 9.2.1-1)
REM options -cpp -mtune=generic -march=x86-64 -g -O0 -fpre-include=/usr/include/finclude/math-vector-fortran.h
REM seed 997634130 1902355022 948837272 1411263640 -804451350 -1349771094 -2018602442 -1977895095 761226997 -1470806793 -674939832 -690163416 -1731249479 1406553202 726391984 -1894334607 533502779 -334177777 -782652192 -563846350 -1892734128 -1539212717 -1627507451 1805179385 1509498719 -16842147 310626731 1066667386 1891101955 -859903282 2038112995 -1467118021 -1727579227
REM
CELL 1.54180   50.00000   50.00000   50.00000   90.00000   90.00000   90.00000
LATT -1
SFAC C  
C      1  0.5044690000000  0.5846410000000  0.4317180000000 1.0
C      1  0.4292120000000  0.5045730000000  0.4157880000000 1.0
C      1  0.4814140000000  0.4155150000000  0.4339680000000 1.0
C      1  0.5837630000000  0.4929570000000  0.4336100000000 1.0
C      1  0.5134680000000  0.5821300000000  0.5701900000000 1.0
C      1  0.4281330000000  0.5155860000000  0.5649130000000 1.0
C      1  0.4861160000000  0.4214910000000  0.5812110000000 1.0
C      1  0.5704890000000  0.4942090000000  0.5697930000000 1.0
C      1  0.5082260000000  0.5194050000000  0.4736200000000 1.0
C      1  0.4794520000000  0.5123290000000  0.4854000000000 1.0
C      1  0.4839040000000  0.4857020000000  0.4698440000000 1.0
C      1  0.5117620000000  0.4888130000000  0.4842900000000 1.0
C      1  0.5092850000000  0.5162910000000  0.5266050000000 1.0
C      1  0.4787200000000  0.5114970000000  0.5145910000000 1.0
C      1  0.4831100000000  0.4821320000000  0.5316210000000 1.0
C      1  0.5089050000000  0.4856690000000  0.5133020000000 1.0
C      1  0.5893840000000  0.4768280000000  0.5193800000000 1.0
C      1  0.5304410000000  0.5890360000000  0.5180320000000 1.0
C      1  0.4098350000000  0.5189200000000  0.5159230000000 1.0
C      1  0.4722870000000  0.4062590000000  0.5020700000000 1.0
C      1  0.5821200000000  0.4754620000000  0.4861640000000 1.0
C      1  0.5291400000000  0.6024060000000  0.4866090000000 1.0
C      1  0.4267170000000  0.5321030000000  0.4973810000000 1.0
C      1  0.4677310000000  0.4174630000000  0.4773070000000 1.0
C      1  0.4614030000000  0.4657040000000  0.4692970000000 1.0
C      1  0.5312570000000  0.4689060000000  0.4697780000000 1.0
C      1  0.5348160000000  0.5368340000000  0.4757230000000 1.0
C      1  0.4672350000000  0.5372230000000  0.4685010000000 1.0
C      1  0.4638990000000  0.4573840000000  0.5339950000000 1.0
C      1  0.5226450000000  0.4573800000000  0.5262530000000 1.0
C      1  0.5336910000000  0.5346240000000  0.5284300000000 1.0
C      1  0.4766000000000  0.5415470000000  0.5279360000000 1.0
C      1  0.5474940000000  0.4813590000000  0.3924700000000 1.0
C      1  0.5221040000000  0.5475640000000  0.3988860000000 1.0
C      1  0.4650650000000  0.5220940000000  0.3871040000000 1.0
C      1  0.4812760000000  0.4516420000000  0.3971600000000 1.0
C      1  0.5398000000000  0.4737360000000  0.6057420000000 1.0
C      1  0.5291250000000  0.5424080000000  0.6043810000000 1.0
C      1  0.4613990000000  0.5347670000000  0.6044300000000 1.0
C      1  0.4852210000000  0.4632420000000  0.6089660000000 1.0
C      1  0.5618090000000  0.4448970000000  0.4532870000000 1.0
C      1  0.5587310000000  0.5740810000000  0.4623770000000 1.0
C      1  0.4315920000000  0.5583530000000  0.4390340000000 1.0
C      1  0.4326350000000  0.4117910000000  0.4461200000000 1.0
C      1  0.5654240000000  0.4406920000000  0.5496990000000 1.0
C      1  0.5641170000000  0.5725210000000  0.5544970000000 1.0
C      1  0.4329690000000  0.5532020000000  0.5476580000000 1.0
C      1  0.4459010000000  0.4185260000000  0.5559340000000 1.0
C      1  0.5774850000000  0.5413370000000  0.5616840000000 1.0
C      1  0.4571770000000  0.5750910000000  0.5576640000000 1.0
C      1  0.4344580000000  0.4626740000000  0.5696580000000 1.0
C      1  0.5356770000000  0.4276830000000  0.5602790000000 1.0
C      1  0.5676900000000  0.5543750000000  0.4375830000000 1.0
C      1  0.4590940000000  0.5717740000000  0.4274900000000 1.0
C      1  0.4275760000000  0.4425740000000  0.4394070000000 1.0
C      1  0.5401170000000  0.4366240000000  0.4302330000000 1.0
C      1  0.5082400000000  0.4822440000000  0.5530920000000 1.0
C      1  0.5271130000000  0.5092020000000  0.5616500000000 1.0
C      1  0.4959620000000  0.5220990000000  0.5569570000000 1.0
C      1  0.4743710000000  0.4977250000000  0.5670030000000 1.0
C      1  0.5052120000000  0.4838340000000  0.4433970000000 1.0
C      1  0.5229670000000  0.5122510000000  0.4373880000000 1.0
C      1  0.4993850000000  0.5355580000000  0.4450380000000 1.0
C      1  0.4733570000000  0.4847090000000  0.4314770000000 1.0
C      1  0.4999600000000  0.5961890000000  0.5126470000000 1.0
C      1  0.4114720000000  0.4920640000000  0.5077410000000 1.0
C      1  0.4995820000000  0.3993110000000  0.5010420000000 1.0
C      1  0.5949030000000  0.5077550000000  0.5258320000000 1.0
C      1  0.4995720000000  0.6101660000000  0.4850130000000 1.0
C      1  0.4142240000000  0.4882660000000  0.4760330000000 1.0
C      1  0.5050510000000  0.3905790000000  0.4750700000000 1.0
C      1  0.5999110000000  0.5023000000000  0.4925360000000 1.0
C      1  0.4871790000000  0.5776320000000  0.5483140000000 1.0
C      1  0.4221560000000  0.4858210000000  0.5757200000000 1.0
C      1  0.5064050000000  0.4191180000000  0.5617070000000 1.0
C      1  0.5887860000000  0.5136990000000  0.5587830000000 1.0
C      1  0.4884410000000  0.5924550000000  0.4616350000000 1.0
C      1  0.4201430000000  0.4999060000000  0.4482520000000 1.0
C      1  0.5077330000000  0.4180780000000  0.4552450000000 1.0
C      1  0.5823320000000  0.5088060000000  0.4640870000000 1.0
C      1  0.5166160000000  0.5157470000000  0.5933540000000 1.0
C      1  0.4855910000000  0.5230020000000  0.6061260000000 1.0
C      1  0.4847380000000  0.4927590000000  0.5991250000000 1.0
C      1  0.5170320000000  0.4873410000000  0.6082850000000 1.0
C      1  0.5165810000000  0.5175900000000  0.4042930000000 1.0
C      1  0.4888220000000  0.5101300000000  0.3885990000000 1.0
C      1  0.4904900000000  0.4810570000000  0.4022910000000 1.0
C      1  0.5216290000000  0.4888330000000  0.3906240000000 1.0
C      1  0.5387530000000  0.5418410000000  0.4431830000000 1.0
C      1  0.4673770000000  0.5410140000000  0.4346970000000 1.0
C      1  0.4542170000000  0.4573140000000  0.4382290000000 1.0
C      1  0.5347930000000  0.4685390000000  0.4364520000000 1.0
C      1  0.5450610000000  0.5380550000000  0.5600230000000 1.0
C      1  0.4697580000000  0.5435880000000  0.5600080000000 1.0
C      1  0.4649940000000  0.4650300000000  0.5665210000000 1.0
C      1  0.5319390000000  0.4602050000000  0.5589310000000 1.0
C      1  0.5353750000000  0.5744120000000  0.5459290000000 1.0
C      1  0.4084560000000  0.5304570000000  0.5424030000000 1.0
C      1  0.4621040000000  0.4067990000000  0.5759060000000 1.0
C      1  0.5717960000000  0.4660840000000  0.5419270000000 1.0
C      1  0.5347840000000  0.5862830000000  0.4635420000000 1.0
C      1  0.4293620000000  0.5323210000000  0.4437320000000 1.0
C      1  0.4600800000000  0.4069720000000  0.4522660000000 1.0
C      1  0.5696720000000  0.4722960000000  0.4556610000000 1.0
C      1  0.5085270000000  0.5651020000000  0.4592490000000 1.0
C      1  0.4528010000000  0.5064920000000  0.4477700000000 1.0
C      1  0.5010420000000  0.4501860000000  0.4462160000000 1.0
C      1  0.5510550000000  0.5006780000000  0.4534220000000 1.0
C      1  0.5088050000000  0.5533550000000  0.5531670000000 1.0
C      1  0.4484650000000  0.4977540000000  0.5442940000000 1.0
C      1  0.4950800000000  0.4210410000000  0.5367070000000 1.0
C      1  0.5498240000000  0.4920730000000  0.5428770000000 1.0
C      1  0.4734340000000  0.4387070000000  0.4198580000000 1.0
C      1  0.5576910000000  0.4818460000000  0.4188520000000 1.0
C      1  0.5231940000000  0.5617900000000  0.4223200000000 1.0
C      1  0.4501360000000  0.5239860000000  0.4107840000000 1.0
C      1  0.4797910000000  0.4479260000000  0.5875370000000 1.0
C      1  0.5513840000000  0.4736260000000  0.5801110000000 1.0
C      1  0.5347180000000  0.5586470000000  0.5825840000000 1.0
C      1  0.4494070000000  0.5329780000000  0.5798820000000 1.0
C      1  0.5516720000000  0.4907750000000  0.4859450000000 1.0
C      1  0.5104210000000  0.5556540000000  0.4901110000000 1.0
C      1  0.4412230000000  0.5189440000000  0.4772310000000 1.0
C      1  0.4826760000000  0.4432490000000  0.4735470000000 1.0
C      1  0.5468810000000  0.4758660000000  0.5130990000000 1.0
C      1  0.5339070000000  0.5578890000000  0.5097090000000 1.0
C      1  0.4466330000000  0.5276190000000  0.5317220000000 1.0
C      1  0.4635450000000  0.4238830000000  0.5280570000000 1.0
C      1  0.5865520000000  0.5592660000000  0.4623220000000 1.0
C      1  0.4423150000000  0.5858330000000  0.4508480000000 1.0
C      1  0.4150450000000  0.4298870000000  0.4665150000000 1.0
C      1  0.5519070000000  0.4154020000000  0.4514830000000 1.0
C      1  0.5906040000000  0.5606510000000  0.5388410000000 1.0
C      1  0.4366670000000  0.5837270000000  0.5331350000000 1.0
C      1  0.4263450000000  0.4397040000000  0.5558940000000 1.0
C      1  0.5556200000000  0.4127480000000  0.5371400000000 1.0
C      1  0.5151380000000  0.4277870000000  0.5112200000000 1.0
C      1  0.5626210000000  0.5184410000000  0.5256030000000 1.0
C      1  0.4829800000000  0.5695770000000  0.5155400000000 1.0
C      1  0.4373080000000  0.4747010000000  0.5217880000000 1.0
C      1  0.5141500000000  0.4453830000000  0.4832700000000 1.0
C      1  0.5572550000000  0.5221610000000  0.4922270000000 1.0
C      1  0.4775550000000  0.5613770000000  0.4841970000000 1.0
C      1  0.4380000000000  0.4680150000000  0.4884530000000 1.0
C      1  0.5457420000000  0.4164920000000  0.5090700000000 1.0
C      1  0.5824130000000  0.5440530000000  0.5146000000000 1.0
C      1  0.4463310000000  0.5809090000000  0.5043660000000 1.0
C      1  0.4167170000000  0.4475560000000  0.5264340000000 1.0
C      1  0.5336760000000  0.4175840000000  0.4772920000000 1.0
C      1  0.5863190000000  0.5363440000000  0.4817150000000 1.0
C      1  0.4588670000000  0.5876640000000  0.4757980000000 1.0
C      1  0.4208550000000  0.4414050000000  0.4932330000000 1.0
C      1  0.4327460000000  0.4207720000000  0.5155090000000 1.0
C      1  0.5517410000000  0.4471120000000  0.5011430000000 1.0
C      1  0.4432140000000  0.5527310000000  0.5090500000000 1.0
C      1  0.5609670000000  0.5611870000000  0.4998710000000 1.0
END
