TITL C-2622955-8511-235 0.00309449396253321 125000 -942.713563455293 0 0 181 (C1) n - 1
REM
REM in /nfs/bkarasulu/CARBON/AIRSS/Generating-Clusters/AIREBO/with-SteepDescent/Higher-Symm/SD-CG/HFTN-CG
REM
REM
REM
REM
REM
REM ./C.cell (b20cbc046b6831c77cfcea5457e17084)
REM
REM compiler GCC version 9.2.1 20190827 (Red Hat 9.2.1-1)
REM options -cpp -mtune=generic -march=x86-64 -g -O0 -fpre-include=/usr/include/finclude/math-vector-fortran.h
REM seed -1055352909 12115586 -2017376919 1086311437 -779030819 -790323561 2051370942 -1749789642 1791002123 1809019008 -1831922261 -960138441 959518832 2023279611 -1799233333 1124298025 -1288003324 -1515383254 -862953155 562883220 -28904687 1101853475 -291256202 447947850 -1917184484 72726176 -209773557 -778743533 581016669 -1661028135 2107797395 -810347413 -1638128212
REM
CELL 1.54180   50.00000   50.00000   50.00000   90.00000   90.00000   90.00000
LATT -1
SFAC C  
C      1  0.5133280000000  0.5096690000000  0.5654570000000 1.0
C      1  0.5616910000000  0.5013700000000  0.5411060000000 1.0
C      1  0.5584290000000  0.5183520000000  0.5051220000000 1.0
C      1  0.5515590000000  0.5065170000000  0.4588420000000 1.0
C      1  0.5038410000000  0.5128370000000  0.4254480000000 1.0
C      1  0.4557220000000  0.5036490000000  0.4350240000000 1.0
C      1  0.4024470000000  0.5136820000000  0.4682570000000 1.0
C      1  0.4376750000000  0.5178180000000  0.5414400000000 1.0
C      1  0.4699830000000  0.5200690000000  0.5764350000000 1.0
C      1  0.4266730000000  0.4067900000000  0.5370260000000 1.0
C      1  0.4777660000000  0.4019090000000  0.5909150000000 1.0
C      1  0.5470250000000  0.4035800000000  0.5881150000000 1.0
C      1  0.5841770000000  0.4147000000000  0.5515880000000 1.0
C      1  0.5851610000000  0.3964520000000  0.4741120000000 1.0
C      1  0.5576130000000  0.4078680000000  0.4317560000000 1.0
C      1  0.4936580000000  0.4021260000000  0.4166230000000 1.0
C      1  0.4247860000000  0.4095120000000  0.4053060000000 1.0
C      1  0.4227310000000  0.4071690000000  0.4802580000000 1.0
C      1  0.5401630000000  0.5933440000000  0.5126810000000 1.0
C      1  0.5408960000000  0.6080490000000  0.4886860000000 1.0
C      1  0.5244810000000  0.5993300000000  0.4683210000000 1.0
C      1  0.4955160000000  0.5951640000000  0.4634980000000 1.0
C      1  0.4760070000000  0.5838840000000  0.4819500000000 1.0
C      1  0.4652540000000  0.5920220000000  0.5074260000000 1.0
C      1  0.4785610000000  0.6060160000000  0.5272520000000 1.0
C      1  0.5012400000000  0.5939490000000  0.5386320000000 1.0
C      1  0.5268280000000  0.6043500000000  0.5346730000000 1.0
C      1  0.3767550000000  0.4947890000000  0.4439710000000 1.0
C      1  0.3841880000000  0.5169380000000  0.5402460000000 1.0
C      1  0.4342490000000  0.5022220000000  0.5774400000000 1.0
C      1  0.5077580000000  0.5054120000000  0.6046390000000 1.0
C      1  0.5919670000000  0.5268520000000  0.5868190000000 1.0
C      1  0.6059120000000  0.5001580000000  0.5134000000000 1.0
C      1  0.6045360000000  0.4997990000000  0.4327090000000 1.0
C      1  0.5322870000000  0.5152970000000  0.3976490000000 1.0
C      1  0.4575370000000  0.4933870000000  0.3967440000000 1.0
C      1  0.5597200000000  0.5350940000000  0.5450470000000 1.0
C      1  0.5778770000000  0.5391770000000  0.4936480000000 1.0
C      1  0.5445550000000  0.5446950000000  0.4492140000000 1.0
C      1  0.4986000000000  0.5464250000000  0.4245980000000 1.0
C      1  0.4394500000000  0.5397310000000  0.4369660000000 1.0
C      1  0.4257480000000  0.5367080000000  0.4740320000000 1.0
C      1  0.4308600000000  0.5461700000000  0.5239140000000 1.0
C      1  0.4548060000000  0.5457460000000  0.5643530000000 1.0
C      1  0.5224190000000  0.5390590000000  0.5710210000000 1.0
C      1  0.5901110000000  0.5580830000000  0.5191300000000 1.0
C      1  0.5790490000000  0.5809720000000  0.4627030000000 1.0
C      1  0.5390820000000  0.5666560000000  0.4163680000000 1.0
C      1  0.4768370000000  0.5725890000000  0.4164160000000 1.0
C      1  0.4285220000000  0.5684340000000  0.4499880000000 1.0
C      1  0.4202510000000  0.5734850000000  0.5066540000000 1.0
C      1  0.4454250000000  0.5783600000000  0.5621560000000 1.0
C      1  0.5015600000000  0.5597190000000  0.5881870000000 1.0
C      1  0.5572490000000  0.5780010000000  0.5680180000000 1.0
C      1  0.5163570000000  0.4755460000000  0.5340310000000 1.0
C      1  0.5410870000000  0.4805450000000  0.5131610000000 1.0
C      1  0.5364560000000  0.4998050000000  0.4869720000000 1.0
C      1  0.5164920000000  0.4802260000000  0.4739510000000 1.0
C      1  0.4924550000000  0.4884280000000  0.4573020000000 1.0
C      1  0.4628550000000  0.4912470000000  0.4704590000000 1.0
C      1  0.4506510000000  0.4888850000000  0.4985520000000 1.0
C      1  0.4647970000000  0.4721580000000  0.5200870000000 1.0
C      1  0.4864560000000  0.4805230000000  0.5373650000000 1.0
C      1  0.4555960000000  0.4556550000000  0.4138780000000 1.0
C      1  0.4246010000000  0.4687610000000  0.4665230000000 1.0
C      1  0.4195350000000  0.4710040000000  0.5325070000000 1.0
C      1  0.4668660000000  0.4683230000000  0.5698600000000 1.0
C      1  0.5202670000000  0.4684810000000  0.5786410000000 1.0
C      1  0.5708230000000  0.4635440000000  0.5498630000000 1.0
C      1  0.5752660000000  0.4631500000000  0.4963270000000 1.0
C      1  0.5655490000000  0.4576780000000  0.4427670000000 1.0
C      1  0.5094770000000  0.4705100000000  0.4199130000000 1.0
C      1  0.4606970000000  0.5203560000000  0.4962630000000 1.0
C      1  0.4641880000000  0.5244030000000  0.5268400000000 1.0
C      1  0.4857490000000  0.5100260000000  0.5480240000000 1.0
C      1  0.5075490000000  0.5244290000000  0.5262590000000 1.0
C      1  0.5340020000000  0.5106320000000  0.5253870000000 1.0
C      1  0.5209070000000  0.5281150000000  0.4870100000000 1.0
C      1  0.5209250000000  0.5206710000000  0.4538280000000 1.0
C      1  0.4887160000000  0.5202910000000  0.4652800000000 1.0
C      1  0.4549710000000  0.5235740000000  0.4626010000000 1.0
C      1  0.4446900000000  0.4265360000000  0.4720800000000 1.0
C      1  0.4483080000000  0.4250670000000  0.5363090000000 1.0
C      1  0.4849210000000  0.4252740000000  0.5747840000000 1.0
C      1  0.5367570000000  0.4249600000000  0.5703700000000 1.0
C      1  0.5659790000000  0.4331800000000  0.5352850000000 1.0
C      1  0.5712310000000  0.4216330000000  0.4815340000000 1.0
C      1  0.5441870000000  0.4313510000000  0.4454290000000 1.0
C      1  0.4920570000000  0.4266210000000  0.4322410000000 1.0
C      1  0.4357340000000  0.4288310000000  0.4178240000000 1.0
C      1  0.5931190000000  0.5289780000000  0.5470270000000 1.0
C      1  0.5988390000000  0.5212300000000  0.4803490000000 1.0
C      1  0.5647920000000  0.5277970000000  0.4276750000000 1.0
C      1  0.4965950000000  0.5336460000000  0.3925820000000 1.0
C      1  0.4227650000000  0.5198130000000  0.4192000000000 1.0
C      1  0.3960980000000  0.5376320000000  0.4892600000000 1.0
C      1  0.3945040000000  0.5258250000000  0.5701470000000 1.0
C      1  0.4672440000000  0.5272830000000  0.6101380000000 1.0
C      1  0.5445810000000  0.5276400000000  0.5921780000000 1.0
C      1  0.5404260000000  0.5646960000000  0.5114800000000 1.0
C      1  0.5492280000000  0.5532220000000  0.4818920000000 1.0
C      1  0.5244370000000  0.5678980000000  0.4638190000000 1.0
C      1  0.4941860000000  0.5607780000000  0.4551010000000 1.0
C      1  0.4673810000000  0.5529320000000  0.4744950000000 1.0
C      1  0.4574880000000  0.5589110000000  0.5069910000000 1.0
C      1  0.4731060000000  0.5532370000000  0.5366770000000 1.0
C      1  0.5001250000000  0.5660950000000  0.5404610000000 1.0
C      1  0.5287890000000  0.5478600000000  0.5387820000000 1.0
C      1  0.5433100000000  0.4104480000000  0.5240190000000 1.0
C      1  0.5433370000000  0.4075240000000  0.4949650000000 1.0
C      1  0.5259630000000  0.4144700000000  0.4686720000000 1.0
C      1  0.4978510000000  0.4186510000000  0.4626660000000 1.0
C      1  0.4743050000000  0.4145530000000  0.4767670000000 1.0
C      1  0.4763720000000  0.4026060000000  0.5017490000000 1.0
C      1  0.4750310000000  0.4108790000000  0.5278600000000 1.0
C      1  0.4955760000000  0.4106320000000  0.5460040000000 1.0
C      1  0.5238170000000  0.4057380000000  0.5454680000000 1.0
C      1  0.5027720000000  0.5001370000000  0.3939130000000 1.0
C      1  0.4304760000000  0.4925510000000  0.4060850000000 1.0
C      1  0.3822940000000  0.4886030000000  0.4727660000000 1.0
C      1  0.3869180000000  0.4944730000000  0.5647580000000 1.0
C      1  0.4551110000000  0.4995480000000  0.5991090000000 1.0
C      1  0.5359900000000  0.5037740000000  0.6036450000000 1.0
C      1  0.6022100000000  0.5071200000000  0.5672970000000 1.0
C      1  0.6140880000000  0.4925930000000  0.4854060000000 1.0
C      1  0.5775120000000  0.5035320000000  0.4207100000000 1.0
C      1  0.5420320000000  0.4498260000000  0.5177850000000 1.0
C      1  0.5477460000000  0.4459590000000  0.4861650000000 1.0
C      1  0.5278370000000  0.4540560000000  0.4647610000000 1.0
C      1  0.4977000000000  0.4560390000000  0.4483590000000 1.0
C      1  0.4788740000000  0.4550120000000  0.4754940000000 1.0
C      1  0.4495540000000  0.4570380000000  0.4864220000000 1.0
C      1  0.4421950000000  0.4496610000000  0.5187990000000 1.0
C      1  0.4917180000000  0.4515180000000  0.5538350000000 1.0
C      1  0.5241400000000  0.4454020000000  0.5462930000000 1.0
C      1  0.4731590000000  0.5694610000000  0.5803940000000 1.0
C      1  0.5336940000000  0.5699320000000  0.5797520000000 1.0
C      1  0.5713940000000  0.5670110000000  0.5460980000000 1.0
C      1  0.5871740000000  0.5712130000000  0.4870520000000 1.0
C      1  0.5595480000000  0.5744300000000  0.4423210000000 1.0
C      1  0.5104650000000  0.5758860000000  0.4124450000000 1.0
C      1  0.4522360000000  0.5697940000000  0.4274870000000 1.0
C      1  0.4240370000000  0.5702630000000  0.4792760000000 1.0
C      1  0.4289530000000  0.5778080000000  0.5392500000000 1.0
C      1  0.5265490000000  0.4411450000000  0.4186960000000 1.0
C      1  0.4832570000000  0.4443830000000  0.4052220000000 1.0
C      1  0.4345250000000  0.4460910000000  0.4461900000000 1.0
C      1  0.4002970000000  0.4577020000000  0.5078200000000 1.0
C      1  0.4548170000000  0.4370300000000  0.5642150000000 1.0
C      1  0.5118940000000  0.4393610000000  0.5868980000000 1.0
C      1  0.5564250000000  0.4515760000000  0.5782470000000 1.0
C      1  0.5857250000000  0.4339760000000  0.5096370000000 1.0
C      1  0.5877940000000  0.4449220000000  0.4630790000000 1.0
C      1  0.5664760000000  0.4783560000000  0.4672120000000 1.0
C      1  0.5358810000000  0.4876250000000  0.4118850000000 1.0
C      1  0.4769310000000  0.4802750000000  0.4214090000000 1.0
C      1  0.4267610000000  0.4967030000000  0.4514480000000 1.0
C      1  0.4075630000000  0.5001320000000  0.5219780000000 1.0
C      1  0.4436380000000  0.4855380000000  0.5516210000000 1.0
C      1  0.4935190000000  0.4865550000000  0.5806070000000 1.0
C      1  0.5415360000000  0.4801400000000  0.5547410000000 1.0
C      1  0.5799920000000  0.4823160000000  0.5221300000000 1.0
C      1  0.4731140000000  0.5186920000000  0.4121030000000 1.0
C      1  0.4003550000000  0.5014570000000  0.4305480000000 1.0
C      1  0.4014240000000  0.5325340000000  0.5175460000000 1.0
C      1  0.4242820000000  0.5315970000000  0.5694250000000 1.0
C      1  0.4964220000000  0.5315440000000  0.6063260000000 1.0
C      1  0.5667520000000  0.5354750000000  0.5783240000000 1.0
C      1  0.6048580000000  0.5273910000000  0.5207070000000 1.0
C      1  0.5855460000000  0.5036430000000  0.4596940000000 1.0
C      1  0.5434780000000  0.5381570000000  0.4097840000000 1.0
C      1  0.5469940000000  0.4772940000000  0.5958010000000 1.0
C      1  0.5963920000000  0.4796460000000  0.5654600000000 1.0
C      1  0.6041830000000  0.4666350000000  0.4788810000000 1.0
C      1  0.5608870000000  0.4806360000000  0.4203340000000 1.0
C      1  0.4987710000000  0.4682140000000  0.3877180000000 1.0
C      1  0.4250210000000  0.4664360000000  0.4204290000000 1.0
C      1  0.3984870000000  0.4677510000000  0.4825610000000 1.0
C      1  0.3970460000000  0.4702720000000  0.5578670000000 1.0
C      1  0.4589020000000  0.4681610000000  0.6029240000000 1.0
C      1  0.4927790000000  0.5234940000000  0.4988880000000 1.0
END
