TITL C-2622967-6265-202 -0.00145138485967937 125000 -912.314407225778 0 0 160 (C1) n - 1
REM
REM in /nfs/bkarasulu/CARBON/AIRSS/Generating-Clusters/AIREBO/with-SteepDescent/Higher-Symm/SD-CG/HFTN-CG
REM
REM
REM
REM
REM
REM ./C.cell (b20cbc046b6831c77cfcea5457e17084)
REM
REM compiler GCC version 9.2.1 20190827 (Red Hat 9.2.1-1)
REM options -cpp -mtune=generic -march=x86-64 -g -O0 -fpre-include=/usr/include/finclude/math-vector-fortran.h
REM seed -1698655762 173480636 -898605157 -96821079 -1973583794 -380108450 -364666060 2094275241 1027511210 162916605 1575788770 1730177175 590323256 -1591245042 -719717069 -1323928046 776614478 690294530 -1952146791 2074225287 -774655984 506891636 711475135 1739378002 -1385949476 -306443861 1888496063 1456789851 1033343019 2128744892 1686375178 2040971670 -318137468
REM
CELL 1.54180   50.00000   50.00000   50.00000   90.00000   90.00000   90.00000
LATT -1
SFAC C  
C      1  0.3994750000000  0.5158990000000  0.4906840000000 1.0
C      1  0.3908990000000  0.4849370000000  0.4891060000000 1.0
C      1  0.4522850000000  0.5273800000000  0.5788610000000 1.0
C      1  0.4512850000000  0.4719200000000  0.5768650000000 1.0
C      1  0.4283680000000  0.4810590000000  0.5260040000000 1.0
C      1  0.4341830000000  0.5132110000000  0.5294090000000 1.0
C      1  0.4580760000000  0.5139630000000  0.4076080000000 1.0
C      1  0.4581490000000  0.4896780000000  0.3934440000000 1.0
C      1  0.5251760000000  0.5439220000000  0.5873480000000 1.0
C      1  0.5255360000000  0.4486250000000  0.5980450000000 1.0
C      1  0.4083980000000  0.4592010000000  0.5284360000000 1.0
C      1  0.4158220000000  0.5362420000000  0.5310800000000 1.0
C      1  0.4104440000000  0.4902520000000  0.4621930000000 1.0
C      1  0.4298270000000  0.5153990000000  0.4743700000000 1.0
C      1  0.4967440000000  0.4788100000000  0.5866070000000 1.0
C      1  0.4957150000000  0.5180120000000  0.5944610000000 1.0
C      1  0.5322580000000  0.4917900000000  0.4360480000000 1.0
C      1  0.5225520000000  0.5227190000000  0.4245590000000 1.0
C      1  0.5036670000000  0.5434590000000  0.5610020000000 1.0
C      1  0.4975770000000  0.4386870000000  0.5856170000000 1.0
C      1  0.5782190000000  0.5171370000000  0.4289590000000 1.0
C      1  0.5703060000000  0.4844590000000  0.4238890000000 1.0
C      1  0.5465620000000  0.5860550000000  0.5339650000000 1.0
C      1  0.5413050000000  0.4091630000000  0.5371750000000 1.0
C      1  0.4715310000000  0.4312590000000  0.5905560000000 1.0
C      1  0.4845530000000  0.5594690000000  0.5841200000000 1.0
C      1  0.5477930000000  0.4384990000000  0.5531610000000 1.0
C      1  0.5657080000000  0.5599260000000  0.5443210000000 1.0
C      1  0.5006960000000  0.4135220000000  0.5366630000000 1.0
C      1  0.5008260000000  0.5869580000000  0.5338460000000 1.0
C      1  0.5987310000000  0.5621240000000  0.4659650000000 1.0
C      1  0.5875610000000  0.4509540000000  0.4918320000000 1.0
C      1  0.5753480000000  0.4863690000000  0.5766850000000 1.0
C      1  0.5725410000000  0.5129050000000  0.5694880000000 1.0
C      1  0.5516050000000  0.4921760000000  0.4611830000000 1.0
C      1  0.5524950000000  0.5200300000000  0.4764640000000 1.0
C      1  0.4619940000000  0.4509450000000  0.5031390000000 1.0
C      1  0.4729850000000  0.5577660000000  0.5101350000000 1.0
C      1  0.5082850000000  0.5493030000000  0.4088240000000 1.0
C      1  0.5241950000000  0.4494750000000  0.4198400000000 1.0
C      1  0.5306790000000  0.4102400000000  0.5072170000000 1.0
C      1  0.5365960000000  0.5981890000000  0.5035570000000 1.0
C      1  0.4701820000000  0.5905790000000  0.5419730000000 1.0
C      1  0.4674070000000  0.4104830000000  0.5428960000000 1.0
C      1  0.4725370000000  0.5507620000000  0.4699090000000 1.0
C      1  0.4796860000000  0.4470640000000  0.4580340000000 1.0
C      1  0.4596810000000  0.5445720000000  0.4119110000000 1.0
C      1  0.4638180000000  0.4653060000000  0.4048990000000 1.0
C      1  0.4567330000000  0.5163600000000  0.5504210000000 1.0
C      1  0.4522900000000  0.4830000000000  0.5481490000000 1.0
C      1  0.4778450000000  0.5128880000000  0.4352720000000 1.0
C      1  0.4870040000000  0.4820940000000  0.4403580000000 1.0
C      1  0.4511370000000  0.5798610000000  0.4983330000000 1.0
C      1  0.4522430000000  0.4217970000000  0.4973420000000 1.0
C      1  0.5632680000000  0.5789340000000  0.4985620000000 1.0
C      1  0.5624680000000  0.4090160000000  0.5033360000000 1.0
C      1  0.5589470000000  0.4752460000000  0.5421560000000 1.0
C      1  0.5761850000000  0.5307420000000  0.5182460000000 1.0
C      1  0.5454040000000  0.5731550000000  0.4436100000000 1.0
C      1  0.5442470000000  0.4219120000000  0.4539350000000 1.0
C      1  0.4311400000000  0.5691570000000  0.4448090000000 1.0
C      1  0.4406870000000  0.4295530000000  0.4477970000000 1.0
C      1  0.5271150000000  0.4825290000000  0.5958430000000 1.0
C      1  0.5267860000000  0.5158740000000  0.5997710000000 1.0
C      1  0.4498880000000  0.5030180000000  0.4498670000000 1.0
C      1  0.4566990000000  0.4704980000000  0.4505260000000 1.0
C      1  0.4337910000000  0.5431780000000  0.4262760000000 1.0
C      1  0.4417930000000  0.4556760000000  0.4257310000000 1.0
C      1  0.5224670000000  0.5126840000000  0.5336440000000 1.0
C      1  0.5333030000000  0.4843930000000  0.5268550000000 1.0
C      1  0.4281950000000  0.5613740000000  0.5358370000000 1.0
C      1  0.4219260000000  0.4342010000000  0.5327270000000 1.0
C      1  0.5142230000000  0.4866200000000  0.4099240000000 1.0
C      1  0.4975670000000  0.5115240000000  0.4075930000000 1.0
C      1  0.5728770000000  0.4526110000000  0.5713130000000 1.0
C      1  0.5872960000000  0.5387540000000  0.5556500000000 1.0
C      1  0.5870140000000  0.5783250000000  0.4860620000000 1.0
C      1  0.5715330000000  0.4342790000000  0.5064790000000 1.0
C      1  0.5083270000000  0.5100250000000  0.5644610000000 1.0
C      1  0.5051210000000  0.4792160000000  0.5547060000000 1.0
C      1  0.4211450000000  0.4823460000000  0.4315980000000 1.0
C      1  0.4267160000000  0.5160830000000  0.4323030000000 1.0
C      1  0.4316640000000  0.4683730000000  0.4698940000000 1.0
C      1  0.4422960000000  0.5457970000000  0.4671640000000 1.0
C      1  0.4676210000000  0.5131650000000  0.5975360000000 1.0
C      1  0.4702060000000  0.4846710000000  0.5931910000000 1.0
C      1  0.5208430000000  0.4131340000000  0.4766870000000 1.0
C      1  0.5334960000000  0.5867800000000  0.4733760000000 1.0
C      1  0.5936980000000  0.5115820000000  0.5360720000000 1.0
C      1  0.5866520000000  0.4848550000000  0.5314150000000 1.0
C      1  0.5320810000000  0.4193970000000  0.5864050000000 1.0
C      1  0.5257100000000  0.5727280000000  0.5769520000000 1.0
C      1  0.5290160000000  0.5347420000000  0.5086010000000 1.0
C      1  0.5223300000000  0.4591150000000  0.5074690000000 1.0
C      1  0.4908790000000  0.4839240000000  0.5280560000000 1.0
C      1  0.4913400000000  0.5162840000000  0.5204290000000 1.0
C      1  0.5216440000000  0.5572320000000  0.4714010000000 1.0
C      1  0.5164320000000  0.4449180000000  0.4771400000000 1.0
C      1  0.4418010000000  0.4729220000000  0.4974630000000 1.0
C      1  0.4463230000000  0.5049590000000  0.4996960000000 1.0
C      1  0.5276340000000  0.4617600000000  0.4513600000000 1.0
C      1  0.5111450000000  0.5404020000000  0.4473180000000 1.0
C      1  0.4836740000000  0.5577420000000  0.4188870000000 1.0
C      1  0.4940140000000  0.4618910000000  0.4144380000000 1.0
C      1  0.4580080000000  0.5548570000000  0.5777520000000 1.0
C      1  0.4509880000000  0.4441370000000  0.5763360000000 1.0
C      1  0.4747440000000  0.5117670000000  0.4933210000000 1.0
C      1  0.4920690000000  0.4855390000000  0.4949240000000 1.0
C      1  0.5141090000000  0.5865480000000  0.4454450000000 1.0
C      1  0.5186630000000  0.4249810000000  0.4385790000000 1.0
C      1  0.5027080000000  0.5958040000000  0.5010010000000 1.0
C      1  0.4990110000000  0.3979030000000  0.5059570000000 1.0
C      1  0.4828050000000  0.5920820000000  0.4735380000000 1.0
C      1  0.4891370000000  0.4008740000000  0.4729770000000 1.0
C      1  0.5012520000000  0.4454000000000  0.5304810000000 1.0
C      1  0.5108920000000  0.5593590000000  0.5225750000000 1.0
C      1  0.4515480000000  0.5845740000000  0.4672280000000 1.0
C      1  0.4585160000000  0.4144570000000  0.4669570000000 1.0
C      1  0.6001200000000  0.5342730000000  0.4705030000000 1.0
C      1  0.5927330000000  0.4754900000000  0.5050670000000 1.0
C      1  0.5334680000000  0.5491270000000  0.5456370000000 1.0
C      1  0.5167530000000  0.4484230000000  0.5592800000000 1.0
C      1  0.4933210000000  0.4238800000000  0.4499510000000 1.0
C      1  0.4851930000000  0.5715660000000  0.4465170000000 1.0
C      1  0.5487570000000  0.5432040000000  0.4585310000000 1.0
C      1  0.5639610000000  0.4416080000000  0.4473740000000 1.0
C      1  0.6013240000000  0.5162570000000  0.4484800000000 1.0
C      1  0.5846290000000  0.4872940000000  0.4547020000000 1.0
C      1  0.4866870000000  0.4552630000000  0.4867640000000 1.0
C      1  0.4988190000000  0.5541720000000  0.4912150000000 1.0
C      1  0.4697210000000  0.4578300000000  0.5333190000000 1.0
C      1  0.4774890000000  0.5409170000000  0.5393390000000 1.0
C      1  0.4196660000000  0.4413380000000  0.4651830000000 1.0
C      1  0.4126550000000  0.5619650000000  0.4706420000000 1.0
C      1  0.4492130000000  0.4348270000000  0.5477240000000 1.0
C      1  0.4551620000000  0.5647600000000  0.5488440000000 1.0
C      1  0.5310720000000  0.4847730000000  0.4869200000000 1.0
C      1  0.5192980000000  0.5164460000000  0.4831300000000 1.0
C      1  0.5927090000000  0.4952500000000  0.4862910000000 1.0
C      1  0.5792550000000  0.5222650000000  0.4902510000000 1.0
C      1  0.5552960000000  0.5534560000000  0.5127490000000 1.0
C      1  0.5515390000000  0.4491450000000  0.5223200000000 1.0
C      1  0.4043330000000  0.5640300000000  0.4963700000000 1.0
C      1  0.4054250000000  0.4349570000000  0.4885930000000 1.0
C      1  0.4907550000000  0.5224290000000  0.4652820000000 1.0
C      1  0.5058300000000  0.4819940000000  0.4643090000000 1.0
C      1  0.5670170000000  0.5492390000000  0.4310010000000 1.0
C      1  0.5565220000000  0.4590460000000  0.4242460000000 1.0
C      1  0.3981310000000  0.5380330000000  0.5084130000000 1.0
C      1  0.3939980000000  0.4593590000000  0.5023980000000 1.0
C      1  0.4246160000000  0.5764740000000  0.5123220000000 1.0
C      1  0.4232250000000  0.4216310000000  0.5071570000000 1.0
C      1  0.4692370000000  0.4038930000000  0.5141660000000 1.0
C      1  0.4706520000000  0.5994650000000  0.5117370000000 1.0
C      1  0.5834160000000  0.4544880000000  0.4636540000000 1.0
C      1  0.5917650000000  0.5677140000000  0.4388740000000 1.0
C      1  0.5462750000000  0.4726110000000  0.5736760000000 1.0
C      1  0.5539630000000  0.5219740000000  0.5424800000000 1.0
C      1  0.5224730000000  0.4088220000000  0.5617530000000 1.0
C      1  0.5249380000000  0.5878750000000  0.5529690000000 1.0
END
