TITL C-2622965-4321-531 0.00639882000839052 125000 -23.0679465437044 0 0 6 (C5) n - 1
REM
REM in /nfs/bkarasulu/CARBON/AIRSS/Generating-Clusters/AIREBO/with-SteepDescent/Higher-Symm/SD-CG/HFTN-CG
REM
REM
REM
REM
REM
REM ./C.cell (b20cbc046b6831c77cfcea5457e17084)
REM
REM compiler GCC version 9.2.1 20190827 (Red Hat 9.2.1-1)
REM options -cpp -mtune=generic -march=x86-64 -g -O0 -fpre-include=/usr/include/finclude/math-vector-fortran.h
REM seed 1826509783 -1726659226 82900743 -768399707 -1748160945 777728063 1659435869 -2096039481 -1961549977 1610994140 -906421950 -1859665136 -1852888785 789546409 1077241310 1503165987 -122775132 -607227359 -809460559 553527985 575547891 -188962586 -1178015157 112842424 1501000493 202408959 832100234 1105031121 -101172788 1346921018 -713985146 1549447668 692990579
REM
CELL 1.54180   50.00000   50.00000   50.00000   90.00000   90.00000   90.00000
LATT -1
SFAC C  
C      1  0.5079560000000  0.5018230000000  0.4738460000000 1.0
C      1  0.5102400000000  0.5274940000000  0.4932110000000 1.0
C      1  0.5093750000000  0.5168630000000  0.5230760000000 1.0
C      1  0.5093750000000  0.4852790000000  0.5225920000000 1.0
C      1  0.5102400000000  0.4755700000000  0.4924150000000 1.0
C      1  0.4862920000000  0.5014210000000  0.5000520000000 1.0
END
