TITL C-2622958-629-670 -2.46365233232183e-07 125000 -202.294492234065 0 0 37 (C1) n - 1
REM
REM in /nfs/bkarasulu/CARBON/AIRSS/Generating-Clusters/AIREBO/with-SteepDescent/Higher-Symm/SD-CG/HFTN-CG
REM
REM
REM
REM
REM
REM ./C.cell (b20cbc046b6831c77cfcea5457e17084)
REM
REM compiler GCC version 9.2.1 20190827 (Red Hat 9.2.1-1)
REM options -cpp -mtune=generic -march=x86-64 -g -O0 -fpre-include=/usr/include/finclude/math-vector-fortran.h
REM seed -256986152 2142635130 -2088964094 1433921579 -1450617670 -1711950678 -1414383708 -515889436 -520147792 658784710 338673500 622795461 111919829 -1566338834 1222016790 1974855258 -2024544973 -1708568171 1582718456 407099908 -479372219 -101278667 -1271861112 -1228497929 1656766537 614179133 -808470934 1269560123 1641189112 -530341270 496370778 -1409945559 -1601295288
REM
CELL 1.54180   50.00000   50.00000   50.00000   90.00000   90.00000   90.00000
LATT -1
SFAC C  
C      1  0.4610530000000  0.5715080000000  0.5016310000000 1.0
C      1  0.5036460000000  0.5752710000000  0.5448620000000 1.0
C      1  0.4732040000000  0.4358640000000  0.4848320000000 1.0
C      1  0.5308810000000  0.3934450000000  0.4750520000000 1.0
C      1  0.4672650000000  0.5108770000000  0.4943310000000 1.0
C      1  0.5039380000000  0.5783830000000  0.4802380000000 1.0
C      1  0.5246560000000  0.5360580000000  0.5302590000000 1.0
C      1  0.4836840000000  0.4087250000000  0.5220760000000 1.0
C      1  0.5402340000000  0.4377410000000  0.4884400000000 1.0
C      1  0.4988740000000  0.5211560000000  0.4613530000000 1.0
C      1  0.4748150000000  0.4486780000000  0.4613890000000 1.0
C      1  0.5184240000000  0.3700920000000  0.4710820000000 1.0
C      1  0.4518950000000  0.5115120000000  0.5162510000000 1.0
C      1  0.4409100000000  0.5620410000000  0.5173710000000 1.0
C      1  0.4861030000000  0.5958690000000  0.5497420000000 1.0
C      1  0.4966850000000  0.3925690000000  0.5389950000000 1.0
C      1  0.5377100000000  0.4623160000000  0.5004090000000 1.0
C      1  0.5182710000000  0.5322910000000  0.4466120000000 1.0
C      1  0.5300460000000  0.5759770000000  0.4727630000000 1.0
C      1  0.5304060000000  0.5116960000000  0.5189230000000 1.0
C      1  0.5580930000000  0.4001290000000  0.4674850000000 1.0
C      1  0.4690540000000  0.4884770000000  0.4759780000000 1.0
C      1  0.4609650000000  0.5951390000000  0.4857870000000 1.0
C      1  0.5266750000000  0.5702100000000  0.5618410000000 1.0
C      1  0.4501680000000  0.4345770000000  0.5023910000000 1.0
C      1  0.5636650000000  0.4267280000000  0.4754610000000 1.0
C      1  0.4880980000000  0.4947150000000  0.4559800000000 1.0
C      1  0.4857110000000  0.5991580000000  0.4735840000000 1.0
C      1  0.5394210000000  0.5465560000000  0.5529540000000 1.0
C      1  0.4564260000000  0.4182830000000  0.5246740000000 1.0
C      1  0.5200640000000  0.4170380000000  0.4878120000000 1.0
C      1  0.4938400000000  0.4200080000000  0.4974580000000 1.0
C      1  0.4892470000000  0.5571740000000  0.4985820000000 1.0
C      1  0.4852300000000  0.5308670000000  0.4844800000000 1.0
C      1  0.5034750000000  0.5546210000000  0.5249600000000 1.0
C      1  0.4680840000000  0.6138760000000  0.5559250000000 1.0
C      1  0.5343410000000  0.4870280000000  0.5097130000000 1.0
END
