TITL C-2622961-1971-452 -0.00875707398387839 125000 -1041.69364770041 0 0 188 (C1) n - 1
REM
REM in /nfs/bkarasulu/CARBON/AIRSS/Generating-Clusters/AIREBO/with-SteepDescent/Higher-Symm/SD-CG/HFTN-CG
REM
REM
REM
REM
REM
REM ./C.cell (b20cbc046b6831c77cfcea5457e17084)
REM
REM compiler GCC version 9.2.1 20190827 (Red Hat 9.2.1-1)
REM options -cpp -mtune=generic -march=x86-64 -g -O0 -fpre-include=/usr/include/finclude/math-vector-fortran.h
REM seed -1635932580 -335346063 -1166479608 -777416956 1745727017 -431094804 -1203241429 -1704574607 30460366 729350273 -863009218 -791940893 -763258653 -1008974234 -537514584 -571796075 -1442151718 1952242409 1077986099 -1352371597 918527520 -411181155 1019980019 950266147 -1753347274 -1852656509 1987327404 1511503437 -1263502084 586921953 116753491 326345907 -1289534608
REM
CELL 1.54180   50.00000   50.00000   50.00000   90.00000   90.00000   90.00000
LATT -1
SFAC C  
C      1  0.4586960000000  0.5500250000000  0.5999660000000 1.0
C      1  0.4569020000000  0.4056540000000  0.5559670000000 1.0
C      1  0.4542480000000  0.4402770000000  0.4031290000000 1.0
C      1  0.4590710000000  0.6005780000000  0.4461000000000 1.0
C      1  0.5417020000000  0.5526460000000  0.6005050000000 1.0
C      1  0.5468760000000  0.3997020000000  0.5570640000000 1.0
C      1  0.5464440000000  0.4444720000000  0.3988080000000 1.0
C      1  0.5377070000000  0.5948210000000  0.4459030000000 1.0
C      1  0.6057470000000  0.5249020000000  0.4521450000000 1.0
C      1  0.6013840000000  0.5469780000000  0.5249910000000 1.0
C      1  0.6095960000000  0.4777150000000  0.5511450000000 1.0
C      1  0.6021010000000  0.4541760000000  0.4780460000000 1.0
C      1  0.3949990000000  0.5270560000000  0.4501770000000 1.0
C      1  0.3954750000000  0.5528690000000  0.5242850000000 1.0
C      1  0.3966810000000  0.4816030000000  0.5486870000000 1.0
C      1  0.3987380000000  0.4570340000000  0.4797810000000 1.0
C      1  0.4728190000000  0.5881080000000  0.5158100000000 1.0
C      1  0.4713260000000  0.4856520000000  0.5838080000000 1.0
C      1  0.4742520000000  0.4003970000000  0.4903140000000 1.0
C      1  0.4752450000000  0.5153580000000  0.4139470000000 1.0
C      1  0.5263890000000  0.5945860000000  0.5162040000000 1.0
C      1  0.5198350000000  0.4774990000000  0.5931500000000 1.0
C      1  0.5282660000000  0.4041170000000  0.4835330000000 1.0
C      1  0.5251800000000  0.5159570000000  0.4044820000000 1.0
C      1  0.5735850000000  0.4281070000000  0.4859870000000 1.0
C      1  0.5783140000000  0.5215530000000  0.4253760000000 1.0
C      1  0.5731620000000  0.5733950000000  0.5173040000000 1.0
C      1  0.5787080000000  0.4801660000000  0.5752860000000 1.0
C      1  0.4290940000000  0.4323270000000  0.4853570000000 1.0
C      1  0.4193720000000  0.5245340000000  0.4209810000000 1.0
C      1  0.4162200000000  0.5797120000000  0.5248370000000 1.0
C      1  0.4213790000000  0.4694260000000  0.5894910000000 1.0
C      1  0.5190720000000  0.5151200000000  0.4370830000000 1.0
C      1  0.5182240000000  0.5622840000000  0.5083150000000 1.0
C      1  0.5160120000000  0.4759130000000  0.5594030000000 1.0
C      1  0.5136280000000  0.4348000000000  0.4834860000000 1.0
C      1  0.4867320000000  0.5127300000000  0.4458610000000 1.0
C      1  0.4848230000000  0.5564260000000  0.5129180000000 1.0
C      1  0.4832830000000  0.4813440000000  0.5524440000000 1.0
C      1  0.4837280000000  0.4326970000000  0.4951370000000 1.0
C      1  0.5210170000000  0.4816080000000  0.5137080000000 1.0
C      1  0.5169730000000  0.4922060000000  0.4847610000000 1.0
C      1  0.5219130000000  0.5228260000000  0.4846320000000 1.0
C      1  0.5141300000000  0.5156820000000  0.5169560000000 1.0
C      1  0.4815760000000  0.4855310000000  0.5019330000000 1.0
C      1  0.4909100000000  0.4884480000000  0.4693630000000 1.0
C      1  0.4816190000000  0.5346820000000  0.4869750000000 1.0
C      1  0.4824890000000  0.5146300000000  0.5122580000000 1.0
C      1  0.4508100000000  0.4872040000000  0.5442130000000 1.0
C      1  0.4629170000000  0.4534870000000  0.4878450000000 1.0
C      1  0.4537630000000  0.5097760000000  0.4536970000000 1.0
C      1  0.4523590000000  0.5464010000000  0.5112490000000 1.0
C      1  0.5468350000000  0.4827680000000  0.5467610000000 1.0
C      1  0.5387350000000  0.4576600000000  0.4870150000000 1.0
C      1  0.5496180000000  0.5122180000000  0.4515370000000 1.0
C      1  0.5445380000000  0.5409270000000  0.5116100000000 1.0
C      1  0.5483320000000  0.5439800000000  0.4393950000000 1.0
C      1  0.5426210000000  0.5603150000000  0.5394770000000 1.0
C      1  0.5582110000000  0.4519320000000  0.5560220000000 1.0
C      1  0.5454550000000  0.4384910000000  0.4597380000000 1.0
C      1  0.4512630000000  0.5402940000000  0.4389040000000 1.0
C      1  0.4497320000000  0.5618160000000  0.5414430000000 1.0
C      1  0.4457750000000  0.4574890000000  0.5602570000000 1.0
C      1  0.4548320000000  0.4467640000000  0.4575230000000 1.0
C      1  0.4200900000000  0.4811370000000  0.5044620000000 1.0
C      1  0.4217770000000  0.4879860000000  0.4710470000000 1.0
C      1  0.4182000000000  0.5301650000000  0.4932810000000 1.0
C      1  0.4217690000000  0.5108600000000  0.5209070000000 1.0
C      1  0.5833180000000  0.4742920000000  0.5067940000000 1.0
C      1  0.5755000000000  0.4848650000000  0.4752330000000 1.0
C      1  0.5828950000000  0.5270180000000  0.4958970000000 1.0
C      1  0.5768190000000  0.5155030000000  0.5273470000000 1.0
C      1  0.5160540000000  0.4133310000000  0.5621410000000 1.0
C      1  0.5178240000000  0.4376620000000  0.4145130000000 1.0
C      1  0.5139390000000  0.5819910000000  0.4339540000000 1.0
C      1  0.5158180000000  0.5583390000000  0.5813460000000 1.0
C      1  0.4870400000000  0.4175660000000  0.5591280000000 1.0
C      1  0.4871290000000  0.4403320000000  0.4116990000000 1.0
C      1  0.4834650000000  0.5808280000000  0.4379060000000 1.0
C      1  0.4848710000000  0.5592890000000  0.5825780000000 1.0
C      1  0.5294370000000  0.4281470000000  0.5356630000000 1.0
C      1  0.5288290000000  0.4667590000000  0.4268480000000 1.0
C      1  0.5307500000000  0.5731210000000  0.4786210000000 1.0
C      1  0.5275580000000  0.5275970000000  0.5727810000000 1.0
C      1  0.4784720000000  0.4300670000000  0.5286320000000 1.0
C      1  0.4721280000000  0.4664570000000  0.4274620000000 1.0
C      1  0.4745170000000  0.5698260000000  0.4669360000000 1.0
C      1  0.4721830000000  0.5336830000000  0.5660680000000 1.0
C      1  0.4329520000000  0.4523440000000  0.4072730000000 1.0
C      1  0.4359960000000  0.5965320000000  0.4547200000000 1.0
C      1  0.4359730000000  0.5416730000000  0.5943550000000 1.0
C      1  0.4338400000000  0.4259070000000  0.5643660000000 1.0
C      1  0.5682590000000  0.4530600000000  0.4074090000000 1.0
C      1  0.5580750000000  0.5761020000000  0.4339050000000 1.0
C      1  0.5648490000000  0.5457660000000  0.5937340000000 1.0
C      1  0.5696270000000  0.4208880000000  0.5639370000000 1.0
C      1  0.5535130000000  0.4850320000000  0.4314520000000 1.0
C      1  0.5585700000000  0.5881310000000  0.4719320000000 1.0
C      1  0.5523300000000  0.5091450000000  0.5675600000000 1.0
C      1  0.5574050000000  0.4123650000000  0.5273040000000 1.0
C      1  0.4469890000000  0.4849280000000  0.4314750000000 1.0
C      1  0.4482970000000  0.5684350000000  0.4856480000000 1.0
C      1  0.4468360000000  0.5122550000000  0.5668890000000 1.0
C      1  0.4462330000000  0.4193420000000  0.5273050000000 1.0
C      1  0.5839500000000  0.5697270000000  0.4679390000000 1.0
C      1  0.5763420000000  0.5332530000000  0.5668610000000 1.0
C      1  0.5850090000000  0.4311840000000  0.5349300000000 1.0
C      1  0.5794500000000  0.4658600000000  0.4346630000000 1.0
C      1  0.4209950000000  0.5705790000000  0.4660490000000 1.0
C      1  0.4196650000000  0.5326520000000  0.5682180000000 1.0
C      1  0.4197960000000  0.4372850000000  0.5352560000000 1.0
C      1  0.4193530000000  0.4672080000000  0.4322570000000 1.0
C      1  0.4546580000000  0.5165640000000  0.5274460000000 1.0
C      1  0.4520920000000  0.4736150000000  0.5130570000000 1.0
C      1  0.4523030000000  0.4828700000000  0.4744470000000 1.0
C      1  0.4502020000000  0.5250620000000  0.4838740000000 1.0
C      1  0.5458570000000  0.5113970000000  0.5284230000000 1.0
C      1  0.5523770000000  0.4703410000000  0.5155770000000 1.0
C      1  0.5426060000000  0.4845030000000  0.4698600000000 1.0
C      1  0.5539820000000  0.5281510000000  0.4812800000000 1.0
C      1  0.5245470000000  0.5590590000000  0.4203210000000 1.0
C      1  0.5263230000000  0.5766680000000  0.5597080000000 1.0
C      1  0.5352190000000  0.4359080000000  0.5749360000000 1.0
C      1  0.5306940000000  0.4202670000000  0.4374110000000 1.0
C      1  0.4689630000000  0.5570920000000  0.4236650000000 1.0
C      1  0.4688760000000  0.5742840000000  0.5587560000000 1.0
C      1  0.4693990000000  0.4381910000000  0.5755810000000 1.0
C      1  0.4706340000000  0.4278100000000  0.4372850000000 1.0
C      1  0.4195060000000  0.5543320000000  0.5475250000000 1.0
C      1  0.4117830000000  0.4585070000000  0.5606250000000 1.0
C      1  0.4232270000000  0.4499600000000  0.4572420000000 1.0
C      1  0.4212250000000  0.5480500000000  0.4455540000000 1.0
C      1  0.5735260000000  0.5519060000000  0.5433040000000 1.0
C      1  0.5919550000000  0.4530090000000  0.5600620000000 1.0
C      1  0.5770990000000  0.4473640000000  0.4583730000000 1.0
C      1  0.5809290000000  0.5460190000000  0.4488640000000 1.0
C      1  0.4842010000000  0.5900850000000  0.4874410000000 1.0
C      1  0.4849280000000  0.5116750000000  0.5830460000000 1.0
C      1  0.4919570000000  0.4007870000000  0.5175140000000 1.0
C      1  0.4876510000000  0.4873170000000  0.4128150000000 1.0
C      1  0.5111400000000  0.5957840000000  0.4877930000000 1.0
C      1  0.5108550000000  0.5091710000000  0.5887950000000 1.0
C      1  0.5201250000000  0.4055860000000  0.5146580000000 1.0
C      1  0.5138440000000  0.4867910000000  0.4095990000000 1.0
C      1  0.4102880000000  0.5063920000000  0.5526030000000 1.0
C      1  0.4128640000000  0.4480940000000  0.5080040000000 1.0
C      1  0.4104450000000  0.4982890000000  0.4406910000000 1.0
C      1  0.4103080000000  0.5615910000000  0.4954550000000 1.0
C      1  0.5904930000000  0.5052680000000  0.5568900000000 1.0
C      1  0.5917320000000  0.4428260000000  0.5077590000000 1.0
C      1  0.5891130000000  0.4959240000000  0.4458160000000 1.0
C      1  0.5908660000000  0.5584150000000  0.4956600000000 1.0
C      1  0.5557500000000  0.4116800000000  0.4970830000000 1.0
C      1  0.5547960000000  0.5099210000000  0.4113600000000 1.0
C      1  0.5553130000000  0.5902220000000  0.5050760000000 1.0
C      1  0.5522170000000  0.4858750000000  0.5889940000000 1.0
C      1  0.4473200000000  0.4161920000000  0.4965050000000 1.0
C      1  0.4448380000000  0.5105470000000  0.4130190000000 1.0
C      1  0.4423410000000  0.5873010000000  0.5115360000000 1.0
C      1  0.4411750000000  0.4880030000000  0.5890710000000 1.0
C      1  0.5149690000000  0.4526380000000  0.4545650000000 1.0
C      1  0.5243670000000  0.5480010000000  0.4631790000000 1.0
C      1  0.5188250000000  0.5368930000000  0.5431260000000 1.0
C      1  0.5199720000000  0.4555060000000  0.5335630000000 1.0
C      1  0.4853290000000  0.4617560000000  0.4558550000000 1.0
C      1  0.4932910000000  0.5427000000000  0.4605200000000 1.0
C      1  0.4884210000000  0.5418540000000  0.5409610000000 1.0
C      1  0.4881390000000  0.4626040000000  0.5262720000000 1.0
C      1  0.6104800000000  0.5181850000000  0.5233570000000 1.0
C      1  0.6057310000000  0.4884130000000  0.5240130000000 1.0
C      1  0.6093680000000  0.4834170000000  0.4779210000000 1.0
C      1  0.6041170000000  0.5124910000000  0.4788890000000 1.0
C      1  0.3905670000000  0.5242630000000  0.5228340000000 1.0
C      1  0.3910030000000  0.4784520000000  0.5218820000000 1.0
C      1  0.3890070000000  0.4869430000000  0.4800620000000 1.0
C      1  0.3949840000000  0.5167120000000  0.4777310000000 1.0
C      1  0.4777370000000  0.4023490000000  0.4445490000000 1.0
C      1  0.4759320000000  0.5519440000000  0.3980210000000 1.0
C      1  0.4771500000000  0.5996730000000  0.5537750000000 1.0
C      1  0.4783470000000  0.4439560000000  0.6005220000000 1.0
C      1  0.5200420000000  0.3962870000000  0.4453310000000 1.0
C      1  0.5157400000000  0.5536550000000  0.3956470000000 1.0
C      1  0.5170740000000  0.6016540000000  0.5544190000000 1.0
C      1  0.5302870000000  0.4475110000000  0.5996740000000 1.0
C      1  0.4884520000000  0.4689760000000  0.6025500000000 1.0
C      1  0.4978240000000  0.3989980000000  0.4692290000000 1.0
C      1  0.4969600000000  0.5271150000000  0.3914330000000 1.0
C      1  0.4973450000000  0.6060680000000  0.5285940000000 1.0
END
