TITL C-2622955-8511-123 0.000584487254758638 125000 -499.631669080754 0 0 87 (C1) n - 1
REM
REM in /nfs/bkarasulu/CARBON/AIRSS/Generating-Clusters/AIREBO/with-SteepDescent/Higher-Symm/SD-CG/HFTN-CG
REM
REM
REM
REM
REM
REM ./C.cell (b20cbc046b6831c77cfcea5457e17084)
REM
REM compiler GCC version 9.2.1 20190827 (Red Hat 9.2.1-1)
REM options -cpp -mtune=generic -march=x86-64 -g -O0 -fpre-include=/usr/include/finclude/math-vector-fortran.h
REM seed -386614728 1909413292 943422224 -760077704 -1919316360 1827319527 235453027 1072516860 1618706017 1851742236 -1027868731 1150463172 716044775 1298999016 -1931433565 319617263 -1346890664 -583552208 -740639963 1261386393 968143029 377102869 1131949455 47374901 1459146981 1172403908 -1158104407 -1581212854 -1864064964 -2129619065 802435885 1821959079 -335817106
REM
CELL 1.54180   50.00000   50.00000   50.00000   90.00000   90.00000   90.00000
LATT -1
SFAC C  
C      1  0.5395250000000  0.4303900000000  0.4992930000000 1.0
C      1  0.5421840000000  0.5382500000000  0.4405210000000 1.0
C      1  0.5430980000000  0.5385430000000  0.5623400000000 1.0
C      1  0.4436840000000  0.5432570000000  0.5582110000000 1.0
C      1  0.4410930000000  0.4438280000000  0.5065200000000 1.0
C      1  0.4470050000000  0.5231540000000  0.4406440000000 1.0
C      1  0.4982100000000  0.5388730000000  0.5322360000000 1.0
C      1  0.5012600000000  0.4585210000000  0.5210090000000 1.0
C      1  0.5105080000000  0.4996420000000  0.4481400000000 1.0
C      1  0.5256640000000  0.4750820000000  0.4759030000000 1.0
C      1  0.5207450000000  0.5297040000000  0.4879140000000 1.0
C      1  0.5188880000000  0.4950690000000  0.5345300000000 1.0
C      1  0.4395110000000  0.4961940000000  0.4361310000000 1.0
C      1  0.4433300000000  0.5588130000000  0.5344350000000 1.0
C      1  0.4415920000000  0.4644260000000  0.5297780000000 1.0
C      1  0.5804190000000  0.4497690000000  0.4721190000000 1.0
C      1  0.5645980000000  0.5559010000000  0.4669360000000 1.0
C      1  0.5734990000000  0.4951800000000  0.5597410000000 1.0
C      1  0.5556410000000  0.5701100000000  0.4856650000000 1.0
C      1  0.5662460000000  0.4716820000000  0.5632890000000 1.0
C      1  0.5776820000000  0.4568900000000  0.4484080000000 1.0
C      1  0.5587110000000  0.4702940000000  0.5240740000000 1.0
C      1  0.5665090000000  0.4928590000000  0.4617770000000 1.0
C      1  0.5605550000000  0.5324980000000  0.5169030000000 1.0
C      1  0.4644420000000  0.4811250000000  0.5703580000000 1.0
C      1  0.4641880000000  0.4767180000000  0.4608630000000 1.0
C      1  0.4563160000000  0.5392020000000  0.5012210000000 1.0
C      1  0.5075060000000  0.5281110000000  0.4142810000000 1.0
C      1  0.5120810000000  0.5582940000000  0.5776070000000 1.0
C      1  0.5053890000000  0.4106210000000  0.5044560000000 1.0
C      1  0.4806680000000  0.4610630000000  0.5594680000000 1.0
C      1  0.4855620000000  0.4561390000000  0.4192550000000 1.0
C      1  0.4809120000000  0.5627420000000  0.5016210000000 1.0
C      1  0.5261590000000  0.5565100000000  0.5403090000000 1.0
C      1  0.5252960000000  0.4376770000000  0.5286230000000 1.0
C      1  0.5404100000000  0.5050510000000  0.4340720000000 1.0
C      1  0.4873800000000  0.4288430000000  0.5194550000000 1.0
C      1  0.4882700000000  0.5048390000000  0.4256780000000 1.0
C      1  0.4900520000000  0.5597670000000  0.5571540000000 1.0
C      1  0.5469230000000  0.4966600000000  0.5299020000000 1.0
C      1  0.5533710000000  0.4773660000000  0.4823740000000 1.0
C      1  0.5485670000000  0.5274580000000  0.4899650000000 1.0
C      1  0.5313000000000  0.5155980000000  0.4030590000000 1.0
C      1  0.5385680000000  0.5722690000000  0.5677710000000 1.0
C      1  0.5315090000000  0.4050760000000  0.5212170000000 1.0
C      1  0.5418130000000  0.5601960000000  0.5118110000000 1.0
C      1  0.5437400000000  0.4536510000000  0.5492210000000 1.0
C      1  0.5567980000000  0.4769860000000  0.4344180000000 1.0
C      1  0.4435830000000  0.4567810000000  0.4795570000000 1.0
C      1  0.4565330000000  0.5302260000000  0.4713100000000 1.0
C      1  0.4528560000000  0.5150770000000  0.5528470000000 1.0
C      1  0.5125680000000  0.4676760000000  0.5517460000000 1.0
C      1  0.5248620000000  0.4697620000000  0.4439070000000 1.0
C      1  0.5094640000000  0.5519670000000  0.5047890000000 1.0
C      1  0.4386160000000  0.4927480000000  0.5161900000000 1.0
C      1  0.4729960000000  0.5037160000000  0.4713100000000 1.0
C      1  0.4617300000000  0.5143030000000  0.5207420000000 1.0
C      1  0.4671890000000  0.5548920000000  0.4541080000000 1.0
C      1  0.4764650000000  0.5071410000000  0.5763350000000 1.0
C      1  0.4723680000000  0.4447990000000  0.4683640000000 1.0
C      1  0.5034110000000  0.5075900000000  0.4786650000000 1.0
C      1  0.4933420000000  0.5079600000000  0.5189120000000 1.0
C      1  0.5036680000000  0.4813280000000  0.5002850000000 1.0
C      1  0.4669670000000  0.5289720000000  0.4221150000000 1.0
C      1  0.4624150000000  0.5563360000000  0.5740130000000 1.0
C      1  0.4564080000000  0.4212610000000  0.5109380000000 1.0
C      1  0.4178150000000  0.4843700000000  0.4488490000000 1.0
C      1  0.4278820000000  0.5541680000000  0.5094080000000 1.0
C      1  0.4387690000000  0.4842100000000  0.5550690000000 1.0
C      1  0.3963720000000  0.5103150000000  0.5002870000000 1.0
C      1  0.4177020000000  0.4941800000000  0.4973090000000 1.0
C      1  0.4211410000000  0.4771160000000  0.4755220000000 1.0
C      1  0.5053840000000  0.4485260000000  0.4369250000000 1.0
C      1  0.4813030000000  0.5752580000000  0.4738440000000 1.0
C      1  0.5152870000000  0.4816740000000  0.5821970000000 1.0
C      1  0.5620400000000  0.4514290000000  0.4983840000000 1.0
C      1  0.5623830000000  0.5222380000000  0.4627030000000 1.0
C      1  0.5608440000000  0.5210460000000  0.5459660000000 1.0
C      1  0.4975250000000  0.5644190000000  0.4474630000000 1.0
C      1  0.5029630000000  0.5073540000000  0.5846380000000 1.0
C      1  0.4964750000000  0.4347520000000  0.4599060000000 1.0
C      1  0.5140240000000  0.4220370000000  0.4777680000000 1.0
C      1  0.5156560000000  0.5483300000000  0.4335010000000 1.0
C      1  0.5191000000000  0.5297460000000  0.5847470000000 1.0
C      1  0.4699930000000  0.5681320000000  0.5308110000000 1.0
C      1  0.4673130000000  0.4472700000000  0.5388960000000 1.0
C      1  0.4672080000000  0.4800030000000  0.4289980000000 1.0
END
