TITL C-2622955-8511-137 -0.00182011731317952 125000 -226.375228011596 0 0 40 (C1) n - 1
REM
REM in /nfs/bkarasulu/CARBON/AIRSS/Generating-Clusters/AIREBO/with-SteepDescent/Higher-Symm/SD-CG/HFTN-CG
REM
REM
REM
REM
REM
REM ./C.cell (b20cbc046b6831c77cfcea5457e17084)
REM
REM compiler GCC version 9.2.1 20190827 (Red Hat 9.2.1-1)
REM options -cpp -mtune=generic -march=x86-64 -g -O0 -fpre-include=/usr/include/finclude/math-vector-fortran.h
REM seed 111986280 74237470 -1276267675 595694849 -1377900180 -410145017 1022669928 -780684924 -2049357834 1685988114 -2034197229 -727103281 -602784695 1861173384 -844877104 1648584919 -1180016506 -1915514223 1985625288 -258942864 -1476476973 -1960656077 1639415238 -1745284512 -272794179 -877346371 1003481745 1252311585 -1522290084 -306344300 1516759552 -644526362 110148512
REM
CELL 1.54180   50.00000   50.00000   50.00000   90.00000   90.00000   90.00000
LATT -1
SFAC C  
C      1  0.4984480000000  0.5356550000000  0.4479910000000 1.0
C      1  0.5015170000000  0.5451760000000  0.5537220000000 1.0
C      1  0.4834390000000  0.4580460000000  0.4914260000000 1.0
C      1  0.4659740000000  0.5186720000000  0.5781880000000 1.0
C      1  0.4659390000000  0.4990850000000  0.4289160000000 1.0
C      1  0.5759010000000  0.5296630000000  0.4884090000000 1.0
C      1  0.4620550000000  0.4585850000000  0.5676260000000 1.0
C      1  0.4587980000000  0.4683050000000  0.4217700000000 1.0
C      1  0.5807890000000  0.4981640000000  0.4877290000000 1.0
C      1  0.4872830000000  0.4752140000000  0.4387370000000 1.0
C      1  0.5687940000000  0.5120560000000  0.5163580000000 1.0
C      1  0.4614770000000  0.5050510000000  0.5474420000000 1.0
C      1  0.4870630000000  0.4666470000000  0.5242820000000 1.0
C      1  0.4713870000000  0.4389640000000  0.4704810000000 1.0
C      1  0.5289330000000  0.4748380000000  0.5017270000000 1.0
C      1  0.5251540000000  0.5299960000000  0.4465890000000 1.0
C      1  0.5199900000000  0.5321530000000  0.5711520000000 1.0
C      1  0.4535510000000  0.5475620000000  0.4810310000000 1.0
C      1  0.5164450000000  0.4720390000000  0.5271620000000 1.0
C      1  0.4608340000000  0.4768690000000  0.5055920000000 1.0
C      1  0.5109230000000  0.4699380000000  0.4811240000000 1.0
C      1  0.5123690000000  0.4784160000000  0.4525320000000 1.0
C      1  0.5498310000000  0.4984700000000  0.5338060000000 1.0
C      1  0.4477220000000  0.5030850000000  0.5213220000000 1.0
C      1  0.4704130000000  0.5457840000000  0.4594120000000 1.0
C      1  0.5459420000000  0.5475010000000  0.4532930000000 1.0
C      1  0.5093940000000  0.5287650000000  0.5974860000000 1.0
C      1  0.5318820000000  0.5040280000000  0.4413910000000 1.0
C      1  0.5358400000000  0.5126490000000  0.5597410000000 1.0
C      1  0.4451980000000  0.5278060000000  0.4979910000000 1.0
C      1  0.5408670000000  0.4746200000000  0.4347520000000 1.0
C      1  0.5289840000000  0.4826950000000  0.5516210000000 1.0
C      1  0.4412820000000  0.4976300000000  0.4883320000000 1.0
C      1  0.5664630000000  0.5484820000000  0.4712390000000 1.0
C      1  0.4829790000000  0.5200890000000  0.6003240000000 1.0
C      1  0.4710810000000  0.5245280000000  0.4350760000000 1.0
C      1  0.4702600000000  0.4752610000000  0.5493320000000 1.0
C      1  0.4692210000000  0.4485610000000  0.4456270000000 1.0
C      1  0.5546750000000  0.4841680000000  0.4973460000000 1.0
C      1  0.4760560000000  0.5341440000000  0.5528460000000 1.0
END
