TITL C-2622959-7779-355 -0.000280640122261727 125000 -414.213601213899 0 0 79 (C1) n - 1
REM
REM in /nfs/bkarasulu/CARBON/AIRSS/Generating-Clusters/AIREBO/with-SteepDescent/Higher-Symm/SD-CG/HFTN-CG
REM
REM
REM
REM
REM
REM ./C.cell (b20cbc046b6831c77cfcea5457e17084)
REM
REM compiler GCC version 9.2.1 20190827 (Red Hat 9.2.1-1)
REM options -cpp -mtune=generic -march=x86-64 -g -O0 -fpre-include=/usr/include/finclude/math-vector-fortran.h
REM seed -1083151211 -1472142524 -984925541 1640151799 609334282 -410074320 -1220807618 -1588580352 -2086890487 621835712 -1952794317 1133210127 1095885374 336651145 1200548227 958432934 -545909439 1675847288 813292784 845401309 -1790560843 2012161633 299396169 -1266799961 -850951039 513079876 -716094963 -2074266429 1132901084 -1577477156 -1824355578 1122939032 894763447
REM
CELL 1.54180   50.00000   50.00000   50.00000   90.00000   90.00000   90.00000
LATT -1
SFAC C  
C      1  0.4631670000000  0.5161700000000  0.5679540000000 1.0
C      1  0.5426350000000  0.4881890000000  0.5671750000000 1.0
C      1  0.4668710000000  0.4865900000000  0.5692140000000 1.0
C      1  0.5401980000000  0.5159040000000  0.5721870000000 1.0
C      1  0.5139600000000  0.4779810000000  0.4784050000000 1.0
C      1  0.4807560000000  0.5157420000000  0.4651760000000 1.0
C      1  0.5098900000000  0.5208850000000  0.4721750000000 1.0
C      1  0.4870880000000  0.4843020000000  0.4635890000000 1.0
C      1  0.4436300000000  0.5589520000000  0.4955440000000 1.0
C      1  0.5551300000000  0.4490210000000  0.4964060000000 1.0
C      1  0.4451250000000  0.4441770000000  0.4995880000000 1.0
C      1  0.5547500000000  0.5562100000000  0.4994950000000 1.0
C      1  0.4851260000000  0.5541500000000  0.4555080000000 1.0
C      1  0.5145240000000  0.4432710000000  0.4589830000000 1.0
C      1  0.4803960000000  0.4451450000000  0.4597460000000 1.0
C      1  0.5192880000000  0.5544310000000  0.4529440000000 1.0
C      1  0.5256330000000  0.4815650000000  0.5316090000000 1.0
C      1  0.4741470000000  0.5176750000000  0.5296860000000 1.0
C      1  0.5241430000000  0.5261710000000  0.5375390000000 1.0
C      1  0.4764840000000  0.4795430000000  0.5316810000000 1.0
C      1  0.5254890000000  0.5771450000000  0.4725550000000 1.0
C      1  0.4727710000000  0.4233280000000  0.4797380000000 1.0
C      1  0.5228090000000  0.4139420000000  0.4717960000000 1.0
C      1  0.4783640000000  0.5761310000000  0.4768640000000 1.0
C      1  0.5666430000000  0.4865440000000  0.4887900000000 1.0
C      1  0.4384070000000  0.5210860000000  0.4839450000000 1.0
C      1  0.5680630000000  0.5187940000000  0.4780760000000 1.0
C      1  0.4380570000000  0.4878380000000  0.4768000000000 1.0
C      1  0.5359380000000  0.4876760000000  0.5016550000000 1.0
C      1  0.4748340000000  0.5130810000000  0.4982500000000 1.0
C      1  0.5450560000000  0.5176140000000  0.5011750000000 1.0
C      1  0.4674950000000  0.4860360000000  0.4881750000000 1.0
C      1  0.4728980000000  0.4697760000000  0.4387350000000 1.0
C      1  0.5261910000000  0.5225900000000  0.4431670000000 1.0
C      1  0.4724950000000  0.5290730000000  0.4363160000000 1.0
C      1  0.5238040000000  0.4889760000000  0.4477120000000 1.0
C      1  0.4439720000000  0.5169020000000  0.4502850000000 1.0
C      1  0.5552170000000  0.4850250000000  0.4568030000000 1.0
C      1  0.4439570000000  0.4833380000000  0.4448170000000 1.0
C      1  0.5588360000000  0.5182760000000  0.4472910000000 1.0
C      1  0.5155440000000  0.5679590000000  0.5003620000000 1.0
C      1  0.4832570000000  0.4272600000000  0.5090690000000 1.0
C      1  0.5120110000000  0.4143150000000  0.5019480000000 1.0
C      1  0.4834200000000  0.5743680000000  0.5090090000000 1.0
C      1  0.5448630000000  0.4549480000000  0.4690800000000 1.0
C      1  0.4536930000000  0.5465910000000  0.4660960000000 1.0
C      1  0.5481390000000  0.5445320000000  0.4682190000000 1.0
C      1  0.4493040000000  0.4569290000000  0.4681390000000 1.0
C      1  0.5137270000000  0.4469470000000  0.4924170000000 1.0
C      1  0.4729840000000  0.5447310000000  0.5007260000000 1.0
C      1  0.5212330000000  0.5347100000000  0.4959330000000 1.0
C      1  0.4748940000000  0.4584690000000  0.4984840000000 1.0
C      1  0.5150490000000  0.4782520000000  0.4194140000000 1.0
C      1  0.4885200000000  0.5251470000000  0.4110590000000 1.0
C      1  0.5137220000000  0.5243150000000  0.4133950000000 1.0
C      1  0.4910820000000  0.4718120000000  0.4145730000000 1.0
C      1  0.4806700000000  0.5624100000000  0.5407500000000 1.0
C      1  0.5175840000000  0.4311170000000  0.5288870000000 1.0
C      1  0.4863290000000  0.4382580000000  0.5411100000000 1.0
C      1  0.5131850000000  0.5710470000000  0.5341490000000 1.0
C      1  0.5104400000000  0.5283910000000  0.5680760000000 1.0
C      1  0.4901150000000  0.4621930000000  0.5646780000000 1.0
C      1  0.5157150000000  0.4720280000000  0.5628260000000 1.0
C      1  0.4843300000000  0.5382560000000  0.5646580000000 1.0
C      1  0.4484090000000  0.4725410000000  0.5459220000000 1.0
C      1  0.5535630000000  0.5373050000000  0.5504650000000 1.0
C      1  0.4473480000000  0.5260310000000  0.5405340000000 1.0
C      1  0.5517780000000  0.4647900000000  0.5454410000000 1.0
C      1  0.4488530000000  0.5578620000000  0.5296070000000 1.0
C      1  0.5418650000000  0.4460570000000  0.5231300000000 1.0
C      1  0.4552010000000  0.4422580000000  0.5329990000000 1.0
C      1  0.5417400000000  0.5610730000000  0.5294200000000 1.0
C      1  0.5663300000000  0.5320920000000  0.5204900000000 1.0
C      1  0.4266660000000  0.4584990000000  0.5238730000000 1.0
C      1  0.5834830000000  0.4606450000000  0.4988540000000 1.0
C      1  0.4287260000000  0.5343750000000  0.5137080000000 1.0
C      1  0.5017470000000  0.4652570000000  0.5161300000000 1.0
C      1  0.5002840000000  0.5360310000000  0.5185340000000 1.0
C      1  0.5004850000000  0.5023230000000  0.5395620000000 1.0
END
