TITL C-2622962-9663-498 0.00692210183360642 125000 -475.103195443743 0 0 82 (C1) n - 1
REM
REM in /nfs/bkarasulu/CARBON/AIRSS/Generating-Clusters/AIREBO/with-SteepDescent/Higher-Symm/SD-CG/HFTN-CG
REM
REM
REM
REM
REM
REM ./C.cell (b20cbc046b6831c77cfcea5457e17084)
REM
REM compiler GCC version 9.2.1 20190827 (Red Hat 9.2.1-1)
REM options -cpp -mtune=generic -march=x86-64 -g -O0 -fpre-include=/usr/include/finclude/math-vector-fortran.h
REM seed 510242814 432337403 1660342477 -17354055 189156433 -980973461 -1605486590 2003993306 834358019 -1715363230 -1517195832 1229901866 1714641526 -2009670701 -2059607397 1217559971 1667880210 1710520212 -798896928 128969452 2071735859 104461628 291723152 1472968994 689756088 -1813926358 -1238383143 422654828 1626001681 1902636222 -883127654 321618430 -1177147119
REM
CELL 1.54180   50.00000   50.00000   50.00000   90.00000   90.00000   90.00000
LATT -1
SFAC C  
C      1  0.5674730000000  0.4908630000000  0.5408920000000 1.0
C      1  0.4724420000000  0.5622770000000  0.5367770000000 1.0
C      1  0.4575790000000  0.4430230000000  0.5419030000000 1.0
C      1  0.4342330000000  0.4946080000000  0.4624120000000 1.0
C      1  0.5253150000000  0.5600650000000  0.4600740000000 1.0
C      1  0.5394910000000  0.4471980000000  0.4633250000000 1.0
C      1  0.4978640000000  0.5383610000000  0.4872470000000 1.0
C      1  0.4790290000000  0.4889670000000  0.4858070000000 1.0
C      1  0.5359020000000  0.4773260000000  0.4925380000000 1.0
C      1  0.5028070000000  0.5264400000000  0.5164130000000 1.0
C      1  0.5214040000000  0.4809010000000  0.5189410000000 1.0
C      1  0.4667230000000  0.4856840000000  0.5168030000000 1.0
C      1  0.4788860000000  0.4671160000000  0.5389440000000 1.0
C      1  0.5357480000000  0.4979040000000  0.5407240000000 1.0
C      1  0.4804990000000  0.5305180000000  0.5363800000000 1.0
C      1  0.5250010000000  0.4752550000000  0.4610650000000 1.0
C      1  0.4654410000000  0.5081060000000  0.4621980000000 1.0
C      1  0.5176880000000  0.5270000000000  0.4623280000000 1.0
C      1  0.5291100000000  0.4277500000000  0.5556010000000 1.0
C      1  0.5406630000000  0.5548750000000  0.5490310000000 1.0
C      1  0.4301050000000  0.5136030000000  0.5498330000000 1.0
C      1  0.4854360000000  0.4460090000000  0.4563170000000 1.0
C      1  0.4476990000000  0.5625920000000  0.4414360000000 1.0
C      1  0.5754510000000  0.5113670000000  0.4411240000000 1.0
C      1  0.4980100000000  0.4241500000000  0.4872350000000 1.0
C      1  0.5592630000000  0.5259250000000  0.4850320000000 1.0
C      1  0.4404100000000  0.5432740000000  0.4871440000000 1.0
C      1  0.5061180000000  0.4284910000000  0.5153380000000 1.0
C      1  0.4324450000000  0.5319620000000  0.5144600000000 1.0
C      1  0.5563790000000  0.5375420000000  0.5122550000000 1.0
C      1  0.5522910000000  0.5468250000000  0.4606920000000 1.0
C      1  0.4294890000000  0.5248280000000  0.4603970000000 1.0
C      1  0.5183080000000  0.4260580000000  0.4670350000000 1.0
C      1  0.4455360000000  0.5491950000000  0.5403820000000 1.0
C      1  0.5683400000000  0.5208250000000  0.5393900000000 1.0
C      1  0.4838540000000  0.4275800000000  0.5411550000000 1.0
C      1  0.5760060000000  0.5013830000000  0.4684620000000 1.0
C      1  0.4550620000000  0.5679520000000  0.4687990000000 1.0
C      1  0.4692630000000  0.4334590000000  0.4779170000000 1.0
C      1  0.4180650000000  0.5018830000000  0.5243410000000 1.0
C      1  0.5378780000000  0.5649490000000  0.5202250000000 1.0
C      1  0.5375170000000  0.4327540000000  0.5277100000000 1.0
C      1  0.4755740000000  0.4878610000000  0.5729620000000 1.0
C      1  0.5260370000000  0.4799070000000  0.5758150000000 1.0
C      1  0.5054060000000  0.5267980000000  0.5813250000000 1.0
C      1  0.5276320000000  0.4946750000000  0.4155250000000 1.0
C      1  0.4828980000000  0.4877560000000  0.4322830000000 1.0
C      1  0.4968750000000  0.5345730000000  0.4220240000000 1.0
C      1  0.5025930000000  0.4364740000000  0.5616130000000 1.0
C      1  0.5532320000000  0.5312800000000  0.5617140000000 1.0
C      1  0.4501530000000  0.5312460000000  0.5640780000000 1.0
C      1  0.5091620000000  0.4392400000000  0.4385820000000 1.0
C      1  0.4448260000000  0.5345280000000  0.4374940000000 1.0
C      1  0.5553620000000  0.5312210000000  0.4369780000000 1.0
C      1  0.4789750000000  0.5185160000000  0.5673040000000 1.0
C      1  0.4993230000000  0.4673860000000  0.5661260000000 1.0
C      1  0.5304530000000  0.5114160000000  0.5714750000000 1.0
C      1  0.5259420000000  0.5229100000000  0.4294860000000 1.0
C      1  0.5130620000000  0.4724590000000  0.4320550000000 1.0
C      1  0.4728280000000  0.5175680000000  0.4321560000000 1.0
C      1  0.5790110000000  0.4739520000000  0.4748910000000 1.0
C      1  0.4805710000000  0.5799950000000  0.4715950000000 1.0
C      1  0.4463150000000  0.4515980000000  0.4827480000000 1.0
C      1  0.4208130000000  0.4739440000000  0.5224600000000 1.0
C      1  0.5125970000000  0.5758160000000  0.5146260000000 1.0
C      1  0.5602230000000  0.4482850000000  0.5211470000000 1.0
C      1  0.5360450000000  0.5046040000000  0.4745910000000 1.0
C      1  0.4692200000000  0.5322500000000  0.4796780000000 1.0
C      1  0.4830700000000  0.4730190000000  0.4583390000000 1.0
C      1  0.4564290000000  0.5122600000000  0.5283430000000 1.0
C      1  0.5297250000000  0.5271940000000  0.5297690000000 1.0
C      1  0.5063500000000  0.4578170000000  0.5280760000000 1.0
C      1  0.4935530000000  0.5802950000000  0.5352260000000 1.0
C      1  0.4305430000000  0.4510550000000  0.5406670000000 1.0
C      1  0.5732640000000  0.4636810000000  0.5411950000000 1.0
C      1  0.5053110000000  0.5786270000000  0.4533530000000 1.0
C      1  0.5673320000000  0.4503860000000  0.4594430000000 1.0
C      1  0.4313310000000  0.4665030000000  0.4629140000000 1.0
C      1  0.4446970000000  0.4661540000000  0.5065300000000 1.0
C      1  0.5611800000000  0.4626250000000  0.4968890000000 1.0
C      1  0.4997000000000  0.5680530000000  0.4913310000000 1.0
C      1  0.5020290000000  0.4989410000000  0.5034500000000 1.0
END
