TITL C-2622968-4806-658 0.00237036635930216 125000 -923.467245129559 0 0 169 (C1) n - 1
REM
REM in /nfs/bkarasulu/CARBON/AIRSS/Generating-Clusters/AIREBO/with-SteepDescent/Higher-Symm/SD-CG/HFTN-CG
REM
REM
REM
REM
REM
REM ./C.cell (b20cbc046b6831c77cfcea5457e17084)
REM
REM compiler GCC version 9.2.1 20190827 (Red Hat 9.2.1-1)
REM options -cpp -mtune=generic -march=x86-64 -g -O0 -fpre-include=/usr/include/finclude/math-vector-fortran.h
REM seed -706632107 -912381973 1906842009 1130882909 -1839811085 -1818633524 1635588141 -1063069066 -848820366 58079376 2147391342 1192647488 -652710432 -305404506 506080968 -667289074 -1025786063 -725514585 576489480 -1187200879 1586671836 -1504267273 606719442 -563502951 1032362751 1515132627 -1224670748 724360364 -1069683606 1227538784 1845239144 1754152360 -1614437864
REM
CELL 1.54180   50.00000   50.00000   50.00000   90.00000   90.00000   90.00000
LATT -1
SFAC C  
C      1  0.5078700000000  0.5347020000000  0.6135880000000 1.0
C      1  0.5093010000000  0.4086530000000  0.5660470000000 1.0
C      1  0.4983820000000  0.4150730000000  0.4391820000000 1.0
C      1  0.5078160000000  0.5366420000000  0.3903180000000 1.0
C      1  0.5006490000000  0.6002990000000  0.4969410000000 1.0
C      1  0.4280720000000  0.4672140000000  0.5427350000000 1.0
C      1  0.4304150000000  0.4620330000000  0.4910580000000 1.0
C      1  0.4323470000000  0.5009060000000  0.4606840000000 1.0
C      1  0.4243850000000  0.5467750000000  0.4745880000000 1.0
C      1  0.4377700000000  0.5123390000000  0.5139360000000 1.0
C      1  0.4721780000000  0.5226380000000  0.4863810000000 1.0
C      1  0.4705200000000  0.5190350000000  0.5201590000000 1.0
C      1  0.4735050000000  0.4872180000000  0.5276580000000 1.0
C      1  0.4672070000000  0.4748570000000  0.4988820000000 1.0
C      1  0.4793640000000  0.4929100000000  0.4710610000000 1.0
C      1  0.5725000000000  0.4817700000000  0.4279360000000 1.0
C      1  0.5750690000000  0.5644090000000  0.4644860000000 1.0
C      1  0.5749630000000  0.5529040000000  0.5510220000000 1.0
C      1  0.5777450000000  0.4674750000000  0.5664430000000 1.0
C      1  0.5760910000000  0.4276780000000  0.4904160000000 1.0
C      1  0.4788650000000  0.4149810000000  0.5633260000000 1.0
C      1  0.4667160000000  0.4243450000000  0.4373290000000 1.0
C      1  0.4793550000000  0.5335580000000  0.4046260000000 1.0
C      1  0.4704850000000  0.6061100000000  0.5051070000000 1.0
C      1  0.4814150000000  0.5281380000000  0.5977200000000 1.0
C      1  0.5631350000000  0.5190520000000  0.4380390000000 1.0
C      1  0.5674350000000  0.5675330000000  0.5035420000000 1.0
C      1  0.5652380000000  0.5190270000000  0.5693990000000 1.0
C      1  0.5664850000000  0.4458470000000  0.5348040000000 1.0
C      1  0.5652450000000  0.4469160000000  0.4575270000000 1.0
C      1  0.5940290000000  0.5048540000000  0.4380560000000 1.0
C      1  0.5966820000000  0.5590870000000  0.4883870000000 1.0
C      1  0.5933040000000  0.5247900000000  0.5527630000000 1.0
C      1  0.5943170000000  0.4647210000000  0.5398620000000 1.0
C      1  0.5960290000000  0.4455550000000  0.4714550000000 1.0
C      1  0.5347380000000  0.5606180000000  0.5102540000000 1.0
C      1  0.5328590000000  0.5214330000000  0.5650820000000 1.0
C      1  0.5324460000000  0.4445330000000  0.5318610000000 1.0
C      1  0.5317520000000  0.4508270000000  0.4645250000000 1.0
C      1  0.5294750000000  0.5190980000000  0.4428860000000 1.0
C      1  0.5332380000000  0.4249070000000  0.5730470000000 1.0
C      1  0.5301830000000  0.4113230000000  0.4506590000000 1.0
C      1  0.5318050000000  0.5188840000000  0.3956840000000 1.0
C      1  0.5305810000000  0.6015580000000  0.4871100000000 1.0
C      1  0.5323580000000  0.5462720000000  0.5994710000000 1.0
C      1  0.5534950000000  0.5271250000000  0.5986690000000 1.0
C      1  0.5551760000000  0.4213110000000  0.5549070000000 1.0
C      1  0.5500110000000  0.4267710000000  0.4384940000000 1.0
C      1  0.5519550000000  0.5310620000000  0.4105710000000 1.0
C      1  0.5513120000000  0.5964850000000  0.5052430000000 1.0
C      1  0.5444730000000  0.5896910000000  0.5358320000000 1.0
C      1  0.5453080000000  0.4958460000000  0.5948390000000 1.0
C      1  0.5489470000000  0.4087950000000  0.5256180000000 1.0
C      1  0.5408910000000  0.4444270000000  0.4155740000000 1.0
C      1  0.5440390000000  0.5539330000000  0.4302040000000 1.0
C      1  0.4767360000000  0.5818450000000  0.5866770000000 1.0
C      1  0.4708930000000  0.4480870000000  0.5972060000000 1.0
C      1  0.4765970000000  0.3933800000000  0.4752680000000 1.0
C      1  0.4713400000000  0.4927510000000  0.3898560000000 1.0
C      1  0.4723800000000  0.6019380000000  0.4533720000000 1.0
C      1  0.4459240000000  0.5810880000000  0.4313030000000 1.0
C      1  0.4442540000000  0.5748190000000  0.5457510000000 1.0
C      1  0.4437810000000  0.4772460000000  0.5973010000000 1.0
C      1  0.4465620000000  0.3994840000000  0.5113950000000 1.0
C      1  0.4461610000000  0.4660550000000  0.4054770000000 1.0
C      1  0.4947340000000  0.4895200000000  0.5912250000000 1.0
C      1  0.4976870000000  0.4052510000000  0.5190850000000 1.0
C      1  0.4945580000000  0.4594330000000  0.4182610000000 1.0
C      1  0.4966280000000  0.5654370000000  0.4303700000000 1.0
C      1  0.4945610000000  0.5810080000000  0.5407530000000 1.0
C      1  0.6038360000000  0.4721930000000  0.4892470000000 1.0
C      1  0.6020370000000  0.4986330000000  0.4700220000000 1.0
C      1  0.6016260000000  0.5256520000000  0.4900590000000 1.0
C      1  0.5983970000000  0.5136010000000  0.5214480000000 1.0
C      1  0.6035810000000  0.4829660000000  0.5201910000000 1.0
C      1  0.5461340000000  0.5632950000000  0.5529040000000 1.0
C      1  0.5467380000000  0.4724510000000  0.5760570000000 1.0
C      1  0.5474070000000  0.4212930000000  0.4973920000000 1.0
C      1  0.5432490000000  0.4764240000000  0.4208850000000 1.0
C      1  0.5459190000000  0.5656480000000  0.4575530000000 1.0
C      1  0.5698240000000  0.4938770000000  0.5516120000000 1.0
C      1  0.5775880000000  0.4569590000000  0.5046420000000 1.0
C      1  0.5760320000000  0.4784540000000  0.4612280000000 1.0
C      1  0.5812780000000  0.5322000000000  0.4636130000000 1.0
C      1  0.5801550000000  0.5423160000000  0.5199490000000 1.0
C      1  0.4844730000000  0.5540970000000  0.5075310000000 1.0
C      1  0.5043770000000  0.5139110000000  0.5553190000000 1.0
C      1  0.4816510000000  0.4483750000000  0.5250170000000 1.0
C      1  0.4906140000000  0.4608150000000  0.4700340000000 1.0
C      1  0.4917870000000  0.5267760000000  0.4519610000000 1.0
C      1  0.4520980000000  0.4115500000000  0.4831490000000 1.0
C      1  0.4480370000000  0.4975320000000  0.4117610000000 1.0
C      1  0.4472680000000  0.5818630000000  0.4640800000000 1.0
C      1  0.4566090000000  0.5618580000000  0.5700440000000 1.0
C      1  0.4465930000000  0.4534590000000  0.5755570000000 1.0
C      1  0.4455630000000  0.5125750000000  0.5645440000000 1.0
C      1  0.4498270000000  0.4360130000000  0.5269060000000 1.0
C      1  0.4603930000000  0.4595300000000  0.4549540000000 1.0
C      1  0.4669190000000  0.5399710000000  0.4417990000000 1.0
C      1  0.4523460000000  0.5590740000000  0.5175450000000 1.0
C      1  0.5299480000000  0.4731040000000  0.5465060000000 1.0
C      1  0.5298200000000  0.4503940000000  0.4984720000000 1.0
C      1  0.5296190000000  0.4799490000000  0.4509130000000 1.0
C      1  0.5290370000000  0.5495630000000  0.4823420000000 1.0
C      1  0.5308490000000  0.5383040000000  0.5356140000000 1.0
C      1  0.5501500000000  0.4932700000000  0.4745160000000 1.0
C      1  0.5495350000000  0.5277810000000  0.4742360000000 1.0
C      1  0.5555650000000  0.5209810000000  0.5261770000000 1.0
C      1  0.5489040000000  0.4897780000000  0.5275540000000 1.0
C      1  0.5518120000000  0.4744300000000  0.5021570000000 1.0
C      1  0.5303130000000  0.4051980000000  0.4780890000000 1.0
C      1  0.5266830000000  0.4916310000000  0.3998550000000 1.0
C      1  0.5285120000000  0.5903460000000  0.4610850000000 1.0
C      1  0.5274550000000  0.5635040000000  0.5774810000000 1.0
C      1  0.5275610000000  0.4499070000000  0.5839080000000 1.0
C      1  0.5050880000000  0.4911980000000  0.5340230000000 1.0
C      1  0.4998800000000  0.4660790000000  0.5023310000000 1.0
C      1  0.5114430000000  0.5036060000000  0.4672350000000 1.0
C      1  0.5004480000000  0.5406600000000  0.4806820000000 1.0
C      1  0.5033320000000  0.5278180000000  0.5182780000000 1.0
C      1  0.4503030000000  0.6060420000000  0.4862080000000 1.0
C      1  0.4514390000000  0.5363850000000  0.5870020000000 1.0
C      1  0.4482780000000  0.4281620000000  0.5581660000000 1.0
C      1  0.4446060000000  0.4228170000000  0.4551910000000 1.0
C      1  0.4467320000000  0.5284920000000  0.4177770000000 1.0
C      1  0.4823530000000  0.5759280000000  0.4818200000000 1.0
C      1  0.4872900000000  0.5364050000000  0.5669090000000 1.0
C      1  0.4826140000000  0.4483220000000  0.5590240000000 1.0
C      1  0.4981370000000  0.4298880000000  0.4690690000000 1.0
C      1  0.4843300000000  0.5087680000000  0.4240940000000 1.0
C      1  0.4675420000000  0.5625370000000  0.4179390000000 1.0
C      1  0.4678860000000  0.5868420000000  0.5277790000000 1.0
C      1  0.4644290000000  0.4997480000000  0.5898670000000 1.0
C      1  0.4700660000000  0.4090400000000  0.5315410000000 1.0
C      1  0.4665130000000  0.4522740000000  0.4240740000000 1.0
C      1  0.4279740000000  0.4502270000000  0.4592660000000 1.0
C      1  0.4378820000000  0.5303850000000  0.4509020000000 1.0
C      1  0.4298800000000  0.5422790000000  0.5069990000000 1.0
C      1  0.4305470000000  0.5005440000000  0.5425280000000 1.0
C      1  0.4216110000000  0.4493300000000  0.5174840000000 1.0
C      1  0.3830100000000  0.5262650000000  0.5147020000000 1.0
C      1  0.3814150000000  0.4952670000000  0.5285900000000 1.0
C      1  0.3801560000000  0.4713700000000  0.5039170000000 1.0
C      1  0.3819960000000  0.4854310000000  0.4729990000000 1.0
C      1  0.3826200000000  0.5187820000000  0.4813850000000 1.0
C      1  0.4100000000000  0.4771140000000  0.4596180000000 1.0
C      1  0.3960330000000  0.5411240000000  0.4685750000000 1.0
C      1  0.4032870000000  0.5460830000000  0.5204210000000 1.0
C      1  0.4014840000000  0.4873740000000  0.5497500000000 1.0
C      1  0.3926930000000  0.4469950000000  0.5131810000000 1.0
C      1  0.5148820000000  0.5425880000000  0.4230720000000 1.0
C      1  0.5161920000000  0.5850350000000  0.5204940000000 1.0
C      1  0.5167300000000  0.5101380000000  0.5928750000000 1.0
C      1  0.5196490000000  0.4143150000000  0.5370120000000 1.0
C      1  0.5144980000000  0.4448300000000  0.4358410000000 1.0
C      1  0.4981950000000  0.5656700000000  0.5673590000000 1.0
C      1  0.4989270000000  0.4594530000000  0.5846750000000 1.0
C      1  0.5016630000000  0.4048070000000  0.4901330000000 1.0
C      1  0.4981070000000  0.4859060000000  0.4061370000000 1.0
C      1  0.4995340000000  0.5843070000000  0.4536950000000 1.0
C      1  0.4574450000000  0.4450620000000  0.4856840000000 1.0
C      1  0.4597260000000  0.4977210000000  0.4437150000000 1.0
C      1  0.4576790000000  0.5526410000000  0.4782910000000 1.0
C      1  0.4620530000000  0.5358780000000  0.5486360000000 1.0
C      1  0.4602820000000  0.4710460000000  0.5498670000000 1.0
C      1  0.5086540000000  0.4989250000000  0.5010720000000 1.0
C      1  0.5652080000000  0.5119790000000  0.4985920000000 1.0
C      1  0.4295240000000  0.4921100000000  0.4910740000000 1.0
C      1  0.4011000000000  0.4980120000000  0.5009920000000 1.0
END
