TITL C-2622958-629-67 -0.000366790726933259 125000 -826.06614058127 0 0 148 (C1) n - 1
REM
REM in /nfs/bkarasulu/CARBON/AIRSS/Generating-Clusters/AIREBO/with-SteepDescent/Higher-Symm/SD-CG/HFTN-CG
REM
REM
REM
REM
REM
REM ./C.cell (b20cbc046b6831c77cfcea5457e17084)
REM
REM compiler GCC version 9.2.1 20190827 (Red Hat 9.2.1-1)
REM options -cpp -mtune=generic -march=x86-64 -g -O0 -fpre-include=/usr/include/finclude/math-vector-fortran.h
REM seed 957080943 -1990293269 1667641212 -683914455 1941949459 758133840 -1089829621 1804842030 -676353276 -1840231259 -2127962120 892828810 1370678693 739309570 -101991737 1576655515 1919374897 -1505461156 892305130 -250442608 -93402509 622618797 1287628321 -1379382608 -1000401671 506060659 -1575284002 1513633088 -403604105 573360765 824366123 1369171874 -618968931
REM
CELL 1.54180   50.00000   50.00000   50.00000   90.00000   90.00000   90.00000
LATT -1
SFAC C  
C      1  0.4430750000000  0.5756410000000  0.5358060000000 1.0
C      1  0.4363190000000  0.5746460000000  0.4512220000000 1.0
C      1  0.5177200000000  0.5759330000000  0.4323780000000 1.0
C      1  0.5787500000000  0.5760730000000  0.5042830000000 1.0
C      1  0.5263890000000  0.5707090000000  0.5749130000000 1.0
C      1  0.4279630000000  0.4525830000000  0.5556620000000 1.0
C      1  0.4378740000000  0.4527420000000  0.4489480000000 1.0
C      1  0.5294500000000  0.4473550000000  0.4131400000000 1.0
C      1  0.5808400000000  0.4453730000000  0.4961330000000 1.0
C      1  0.5296850000000  0.4465350000000  0.5825060000000 1.0
C      1  0.4564130000000  0.4893030000000  0.4440460000000 1.0
C      1  0.5316010000000  0.5041740000000  0.4333930000000 1.0
C      1  0.5675010000000  0.4895310000000  0.5144140000000 1.0
C      1  0.5108220000000  0.4931760000000  0.5746790000000 1.0
C      1  0.4329120000000  0.4925530000000  0.5334430000000 1.0
C      1  0.4869840000000  0.5617380000000  0.5412710000000 1.0
C      1  0.4453540000000  0.5666030000000  0.4970490000000 1.0
C      1  0.4753660000000  0.5681010000000  0.4556090000000 1.0
C      1  0.5365160000000  0.5626090000000  0.4789650000000 1.0
C      1  0.5345100000000  0.5609020000000  0.5271980000000 1.0
C      1  0.4538440000000  0.5216660000000  0.5927550000000 1.0
C      1  0.3958240000000  0.5160210000000  0.4808860000000 1.0
C      1  0.4892030000000  0.5110570000000  0.3821710000000 1.0
C      1  0.5849780000000  0.5178380000000  0.4557090000000 1.0
C      1  0.5774490000000  0.5022520000000  0.5792170000000 1.0
C      1  0.4831100000000  0.4653910000000  0.4851970000000 1.0
C      1  0.5171540000000  0.4607320000000  0.4565890000000 1.0
C      1  0.5298390000000  0.4542330000000  0.5020240000000 1.0
C      1  0.5077120000000  0.4514830000000  0.5409480000000 1.0
C      1  0.4674380000000  0.4530950000000  0.5255740000000 1.0
C      1  0.5442670000000  0.4817120000000  0.4924040000000 1.0
C      1  0.5199940000000  0.4811340000000  0.5447030000000 1.0
C      1  0.4633710000000  0.4814850000000  0.5391760000000 1.0
C      1  0.4613900000000  0.4865950000000  0.4778510000000 1.0
C      1  0.5203910000000  0.4811090000000  0.4325510000000 1.0
C      1  0.4729230000000  0.5255610000000  0.4240820000000 1.0
C      1  0.5632960000000  0.5354590000000  0.4414540000000 1.0
C      1  0.5774430000000  0.5366210000000  0.5516450000000 1.0
C      1  0.4815520000000  0.5313780000000  0.5853150000000 1.0
C      1  0.4084810000000  0.5282450000000  0.5054620000000 1.0
C      1  0.4458090000000  0.5147970000000  0.4151570000000 1.0
C      1  0.5606710000000  0.5315050000000  0.4123920000000 1.0
C      1  0.6006550000000  0.5211910000000  0.5376520000000 1.0
C      1  0.5066210000000  0.5322850000000  0.6035290000000 1.0
C      1  0.3951260000000  0.5236120000000  0.5330630000000 1.0
C      1  0.4292200000000  0.4283540000000  0.5673890000000 1.0
C      1  0.4334800000000  0.4276500000000  0.4585610000000 1.0
C      1  0.5183790000000  0.4231290000000  0.4071320000000 1.0
C      1  0.5859220000000  0.4222330000000  0.4838300000000 1.0
C      1  0.5466170000000  0.4256160000000  0.5847850000000 1.0
C      1  0.4308570000000  0.4293880000000  0.5079910000000 1.0
C      1  0.4820670000000  0.4357280000000  0.4344630000000 1.0
C      1  0.5456950000000  0.4265470000000  0.4594420000000 1.0
C      1  0.5516210000000  0.4298230000000  0.5381930000000 1.0
C      1  0.4822140000000  0.4318690000000  0.5737580000000 1.0
C      1  0.5925640000000  0.5314920000000  0.4849320000000 1.0
C      1  0.5533350000000  0.5262950000000  0.5733040000000 1.0
C      1  0.4317610000000  0.5366550000000  0.5717850000000 1.0
C      1  0.4087530000000  0.5290870000000  0.4524230000000 1.0
C      1  0.5008570000000  0.5324840000000  0.4061730000000 1.0
C      1  0.5717050000000  0.4706230000000  0.4794720000000 1.0
C      1  0.5422900000000  0.4703180000000  0.5664080000000 1.0
C      1  0.4481700000000  0.4746180000000  0.5662790000000 1.0
C      1  0.4323550000000  0.4730780000000  0.4711560000000 1.0
C      1  0.5105660000000  0.4714930000000  0.4047190000000 1.0
C      1  0.4817700000000  0.6046200000000  0.5172330000000 1.0
C      1  0.4790510000000  0.6064920000000  0.4874540000000 1.0
C      1  0.5068360000000  0.6021410000000  0.4789310000000 1.0
C      1  0.5249910000000  0.6026850000000  0.5016090000000 1.0
C      1  0.5094990000000  0.6032710000000  0.5255990000000 1.0
C      1  0.4445510000000  0.5364670000000  0.5423260000000 1.0
C      1  0.4388890000000  0.5358090000000  0.4600660000000 1.0
C      1  0.5113720000000  0.5423760000000  0.4369640000000 1.0
C      1  0.5651700000000  0.5339250000000  0.5018910000000 1.0
C      1  0.5256710000000  0.5350270000000  0.5568870000000 1.0
C      1  0.4278540000000  0.5049770000000  0.4377080000000 1.0
C      1  0.5323440000000  0.5196350000000  0.4060770000000 1.0
C      1  0.5950250000000  0.5091990000000  0.5112950000000 1.0
C      1  0.5281620000000  0.5155580000000  0.5935080000000 1.0
C      1  0.4153560000000  0.5124390000000  0.5542970000000 1.0
C      1  0.4078680000000  0.4917230000000  0.4603720000000 1.0
C      1  0.5156310000000  0.4991760000000  0.3894990000000 1.0
C      1  0.5915520000000  0.4939110000000  0.4789620000000 1.0
C      1  0.5488460000000  0.4921040000000  0.5863940000000 1.0
C      1  0.4339220000000  0.4989310000000  0.5771860000000 1.0
C      1  0.4724000000000  0.4265890000000  0.5412960000000 1.0
C      1  0.4740130000000  0.4331000000000  0.4834720000000 1.0
C      1  0.4967180000000  0.4367530000000  0.4611260000000 1.0
C      1  0.5238570000000  0.4293350000000  0.4802370000000 1.0
C      1  0.5241190000000  0.4266360000000  0.5366120000000 1.0
C      1  0.5604100000000  0.5175570000000  0.5292250000000 1.0
C      1  0.4917150000000  0.5126570000000  0.5596860000000 1.0
C      1  0.4376970000000  0.5130020000000  0.5107740000000 1.0
C      1  0.4826250000000  0.5063490000000  0.4504540000000 1.0
C      1  0.5410510000000  0.5163470000000  0.4586620000000 1.0
C      1  0.5866910000000  0.4885480000000  0.4396490000000 1.0
C      1  0.5881750000000  0.4825700000000  0.5624090000000 1.0
C      1  0.4641180000000  0.4921060000000  0.6055340000000 1.0
C      1  0.3908100000000  0.4848720000000  0.4931300000000 1.0
C      1  0.4698380000000  0.4901800000000  0.3860180000000 1.0
C      1  0.5681040000000  0.4126590000000  0.4651460000000 1.0
C      1  0.5622680000000  0.4199290000000  0.5622790000000 1.0
C      1  0.4546500000000  0.4172590000000  0.5670800000000 1.0
C      1  0.4440880000000  0.4243810000000  0.4845390000000 1.0
C      1  0.4924320000000  0.4188130000000  0.4159500000000 1.0
C      1  0.5121200000000  0.4065080000000  0.5223370000000 1.0
C      1  0.4839240000000  0.4059930000000  0.5240440000000 1.0
C      1  0.4768050000000  0.4046210000000  0.4965590000000 1.0
C      1  0.4962380000000  0.3867400000000  0.4812130000000 1.0
C      1  0.5180850000000  0.4032290000000  0.4946420000000 1.0
C      1  0.5053560000000  0.5661840000000  0.4054100000000 1.0
C      1  0.5971560000000  0.5630910000000  0.4881560000000 1.0
C      1  0.5490690000000  0.5579430000000  0.5850030000000 1.0
C      1  0.4370120000000  0.5693750000000  0.5634980000000 1.0
C      1  0.4112690000000  0.5627410000000  0.4497150000000 1.0
C      1  0.4578060000000  0.5867040000000  0.4746610000000 1.0
C      1  0.5076420000000  0.5728510000000  0.4651990000000 1.0
C      1  0.5463140000000  0.5797920000000  0.5019100000000 1.0
C      1  0.5158990000000  0.5783750000000  0.5442000000000 1.0
C      1  0.4719360000000  0.5744940000000  0.5167250000000 1.0
C      1  0.4713550000000  0.4721770000000  0.5865350000000 1.0
C      1  0.4151850000000  0.4698400000000  0.4966710000000 1.0
C      1  0.4788810000000  0.4697060000000  0.4027330000000 1.0
C      1  0.5700680000000  0.4675820000000  0.4487180000000 1.0
C      1  0.5686290000000  0.4667140000000  0.5505700000000 1.0
C      1  0.4267210000000  0.5503550000000  0.5200200000000 1.0
C      1  0.4569700000000  0.5478970000000  0.4385140000000 1.0
C      1  0.5391500000000  0.5549060000000  0.4483360000000 1.0
C      1  0.5666250000000  0.5568250000000  0.5275300000000 1.0
C      1  0.5009460000000  0.5505370000000  0.5684030000000 1.0
C      1  0.5009580000000  0.4877470000000  0.4668370000000 1.0
C      1  0.5208440000000  0.5058770000000  0.4874230000000 1.0
C      1  0.5142900000000  0.5015270000000  0.5205150000000 1.0
C      1  0.4819290000000  0.5040630000000  0.5282650000000 1.0
C      1  0.4691150000000  0.5120750000000  0.4977940000000 1.0
C      1  0.5301120000000  0.5273860000000  0.5276370000000 1.0
C      1  0.4736080000000  0.5346020000000  0.5417110000000 1.0
C      1  0.4460480000000  0.5368450000000  0.4880100000000 1.0
C      1  0.4901620000000  0.5376440000000  0.4580160000000 1.0
C      1  0.5406830000000  0.5334520000000  0.4856560000000 1.0
C      1  0.4627580000000  0.4610210000000  0.4287570000000 1.0
C      1  0.5456090000000  0.4512150000000  0.4404580000000 1.0
C      1  0.5601000000000  0.4566840000000  0.5192160000000 1.0
C      1  0.5002900000000  0.4606520000000  0.5728420000000 1.0
C      1  0.4341730000000  0.4597190000000  0.5230020000000 1.0
C      1  0.4978150000000  0.4599620000000  0.5118920000000 1.0
C      1  0.4912930000000  0.5604120000000  0.4923150000000 1.0
C      1  0.4953100000000  0.5283270000000  0.4882570000000 1.0
END
