TITL C-2622966-9038-200 -18.0197073587823 125000 -104.758925969547 0 0 20 (C1) n - 1
REM
REM in /nfs/bkarasulu/CARBON/AIRSS/Generating-Clusters/AIREBO/with-SteepDescent/Higher-Symm/SD-CG/HFTN-CG
REM
REM
REM
REM
REM
REM ./C.cell (b20cbc046b6831c77cfcea5457e17084)
REM
REM compiler GCC version 9.2.1 20190827 (Red Hat 9.2.1-1)
REM options -cpp -mtune=generic -march=x86-64 -g -O0 -fpre-include=/usr/include/finclude/math-vector-fortran.h
REM seed -754971538 1464283577 334603085 -1845509654 -1391233738 868148355 -1703030233 1086550007 -1777978199 -1987895943 -1889139446 1499180224 1068619508 -1758594444 -1862206753 -270183302 854186941 -158349682 1055011846 543376562 -1432690664 -345014788 -563534480 -392436197 -415454654 -1654753612 185393085 -1042690802 -1883173759 968190826 330789994 -2040971504 -387975801
REM
CELL 1.54180   50.00000   50.00000   50.00000   90.00000   90.00000   90.00000
LATT -1
SFAC C  
C      1  0.4794270000000  0.4596840000000  0.4296700000000 1.0
C      1  0.3937360000000  0.4581310000000  0.5117390000000 1.0
C      1  0.4907970000000  0.4422990000000  0.4117210000000 1.0
C      1  0.4583840000000  0.4985970000000  0.4472100000000 1.0
C      1  0.5724540000000  0.5480720000000  0.5748300000000 1.0
C      1  0.6032570000000  0.5625050000000  0.6211470000000 1.0
C      1  0.4829220000000  0.4954130000000  0.4922440000000 1.0
C      1  0.5168890000000  0.5173930000000  0.5264330000000 1.0
C      1  0.6159090000000  0.5787640000000  0.5965570000000 1.0
C      1  0.4161500000000  0.4648100000000  0.4999080000000 1.0
C      1  0.5901140000000  0.5594900000000  0.5914660000000 1.0
C      1  0.4463500000000  0.5230530000000  0.4485260000000 1.0
C      1  0.4677740000000  0.4850980000000  0.4240230000000 1.0
C      1  0.5533040000000  0.5387620000000  0.5588210000000 1.0
C      1  0.4373670000000  0.4732950000000  0.4866910000000 1.0
C      1  0.4775880000000  0.4563230000000  0.4580340000000 1.0
C      1  0.4636160000000  0.4813060000000  0.4731280000000 1.0
C      1  0.4993160000000  0.4246210000000  0.3943440000000 1.0
C      1  0.5349990000000  0.5270330000000  0.5434240000000 1.0
C      1  0.4996470000000  0.5053500000000  0.5100850000000 1.0
END
