TITL C-2622963-3633-324 0.00349367493563021 125000 -480.22412706649 0 0 95 (C1) n - 1
REM
REM in /nfs/bkarasulu/CARBON/AIRSS/Generating-Clusters/AIREBO/with-SteepDescent/Higher-Symm/SD-CG/HFTN-CG
REM
REM
REM
REM
REM
REM ./C.cell (b20cbc046b6831c77cfcea5457e17084)
REM
REM compiler GCC version 9.2.1 20190827 (Red Hat 9.2.1-1)
REM options -cpp -mtune=generic -march=x86-64 -g -O0 -fpre-include=/usr/include/finclude/math-vector-fortran.h
REM seed 330661080 222320540 1035096303 -574160159 -859191026 -26987354 -695752258 -1519759081 150447541 -1343109258 -1511560657 1671319172 1193273740 2018491844 -743869212 -1338981936 885486207 2051203027 -1620335675 387068359 209453509 629735618 1664295597 1312503609 -145778597 908325862 -1848488914 -933290360 -1266565639 1925403493 -1104004391 -1540351798 -1481423865
REM
CELL 1.54180   50.00000   50.00000   50.00000   90.00000   90.00000   90.00000
LATT -1
SFAC C  
C      1  0.4484590000000  0.5349210000000  0.5812990000000 1.0
C      1  0.5381710000000  0.4006600000000  0.5236150000000 1.0
C      1  0.4467720000000  0.5777770000000  0.4711250000000 1.0
C      1  0.4865360000000  0.4983240000000  0.4294530000000 1.0
C      1  0.5099210000000  0.4480960000000  0.4812490000000 1.0
C      1  0.4739160000000  0.5608100000000  0.4757090000000 1.0
C      1  0.5339840000000  0.5522020000000  0.4452130000000 1.0
C      1  0.4961200000000  0.4791830000000  0.4816250000000 1.0
C      1  0.5342320000000  0.4752730000000  0.4927710000000 1.0
C      1  0.4835240000000  0.4727950000000  0.5102070000000 1.0
C      1  0.5608780000000  0.5338460000000  0.5664750000000 1.0
C      1  0.4683600000000  0.5237510000000  0.4160680000000 1.0
C      1  0.5064780000000  0.4831780000000  0.4524580000000 1.0
C      1  0.4625710000000  0.5337280000000  0.4855450000000 1.0
C      1  0.5195320000000  0.5019520000000  0.4911510000000 1.0
C      1  0.4892670000000  0.4472260000000  0.5628800000000 1.0
C      1  0.5255790000000  0.4483930000000  0.4510440000000 1.0
C      1  0.4883890000000  0.4642360000000  0.4224430000000 1.0
C      1  0.4634360000000  0.5039900000000  0.5250470000000 1.0
C      1  0.4300910000000  0.4671280000000  0.5166480000000 1.0
C      1  0.5449960000000  0.5566190000000  0.5594820000000 1.0
C      1  0.4867400000000  0.5525480000000  0.5193890000000 1.0
C      1  0.4572040000000  0.4659780000000  0.4554850000000 1.0
C      1  0.5275240000000  0.5256400000000  0.4515950000000 1.0
C      1  0.5199020000000  0.4966140000000  0.5655140000000 1.0
C      1  0.5522320000000  0.5134850000000  0.5512380000000 1.0
C      1  0.4598780000000  0.4364380000000  0.5491210000000 1.0
C      1  0.5032520000000  0.5921120000000  0.4895430000000 1.0
C      1  0.5170690000000  0.4663170000000  0.5681680000000 1.0
C      1  0.5285240000000  0.4775420000000  0.4060790000000 1.0
C      1  0.5595250000000  0.5460830000000  0.4858750000000 1.0
C      1  0.5079920000000  0.4152620000000  0.4900630000000 1.0
C      1  0.4313780000000  0.5109970000000  0.4420490000000 1.0
C      1  0.4889690000000  0.5125880000000  0.5458260000000 1.0
C      1  0.5722530000000  0.5278280000000  0.4601500000000 1.0
C      1  0.4398300000000  0.4435490000000  0.5704440000000 1.0
C      1  0.5569000000000  0.4947750000000  0.5256130000000 1.0
C      1  0.5568670000000  0.4576220000000  0.5110190000000 1.0
C      1  0.4951210000000  0.5209520000000  0.4533950000000 1.0
C      1  0.5218530000000  0.5180270000000  0.5390570000000 1.0
C      1  0.5336710000000  0.4707950000000  0.5321280000000 1.0
C      1  0.5707290000000  0.4647550000000  0.4808030000000 1.0
C      1  0.5416770000000  0.5705250000000  0.4874250000000 1.0
C      1  0.5842650000000  0.4602670000000  0.5276100000000 1.0
C      1  0.5120900000000  0.5001400000000  0.4070840000000 1.0
C      1  0.5182410000000  0.5527380000000  0.5705700000000 1.0
C      1  0.4800040000000  0.4751210000000  0.5800750000000 1.0
C      1  0.4193630000000  0.4966630000000  0.5296640000000 1.0
C      1  0.4964380000000  0.4304210000000  0.5345700000000 1.0
C      1  0.5555220000000  0.4572840000000  0.4553660000000 1.0
C      1  0.4747490000000  0.5687500000000  0.4441220000000 1.0
C      1  0.4076940000000  0.5421330000000  0.5271540000000 1.0
C      1  0.4700180000000  0.4748810000000  0.5413450000000 1.0
C      1  0.5173320000000  0.5712290000000  0.4669190000000 1.0
C      1  0.4614590000000  0.5173450000000  0.4565770000000 1.0
C      1  0.5787970000000  0.5206060000000  0.5224900000000 1.0
C      1  0.4947140000000  0.4989240000000  0.5828360000000 1.0
C      1  0.4452390000000  0.4416290000000  0.5190110000000 1.0
C      1  0.5008470000000  0.5306080000000  0.5721220000000 1.0
C      1  0.5681810000000  0.5450780000000  0.5156850000000 1.0
C      1  0.6069400000000  0.4604830000000  0.5393700000000 1.0
C      1  0.3960700000000  0.4934930000000  0.5446050000000 1.0
C      1  0.4333810000000  0.4932020000000  0.4237650000000 1.0
C      1  0.5100360000000  0.4065570000000  0.5165340000000 1.0
C      1  0.4678290000000  0.4408020000000  0.4630310000000 1.0
C      1  0.4944630000000  0.5971150000000  0.5403570000000 1.0
C      1  0.4642000000000  0.4884230000000  0.4742820000000 1.0
C      1  0.4989150000000  0.5821330000000  0.4413800000000 1.0
C      1  0.5510310000000  0.5631550000000  0.5318460000000 1.0
C      1  0.4821840000000  0.5128480000000  0.5000360000000 1.0
C      1  0.5023510000000  0.4843100000000  0.5324440000000 1.0
C      1  0.4580360000000  0.4322250000000  0.4886370000000 1.0
C      1  0.4352950000000  0.5671620000000  0.4502250000000 1.0
C      1  0.4626240000000  0.5277700000000  0.5610670000000 1.0
C      1  0.5462900000000  0.5138610000000  0.4771010000000 1.0
C      1  0.5016240000000  0.5797000000000  0.5197050000000 1.0
C      1  0.4280600000000  0.5230770000000  0.5262520000000 1.0
C      1  0.5026890000000  0.5429290000000  0.4788150000000 1.0
C      1  0.4523860000000  0.4708910000000  0.5676570000000 1.0
C      1  0.5752600000000  0.5093040000000  0.4395370000000 1.0
C      1  0.4548450000000  0.5443120000000  0.4369260000000 1.0
C      1  0.4593250000000  0.4780260000000  0.4272300000000 1.0
C      1  0.5186610000000  0.4558380000000  0.4207140000000 1.0
C      1  0.5660970000000  0.4841770000000  0.4463940000000 1.0
C      1  0.5686390000000  0.4943110000000  0.4937070000000 1.0
C      1  0.5466150000000  0.4265970000000  0.5162710000000 1.0
C      1  0.4927880000000  0.4403440000000  0.4462850000000 1.0
C      1  0.5334660000000  0.5762090000000  0.5142170000000 1.0
C      1  0.5086940000000  0.5286900000000  0.5091400000000 1.0
C      1  0.4565370000000  0.5367610000000  0.5188700000000 1.0
C      1  0.4147290000000  0.4851150000000  0.4918960000000 1.0
C      1  0.5419400000000  0.4534940000000  0.5602100000000 1.0
C      1  0.4771610000000  0.4431410000000  0.5137160000000 1.0
C      1  0.5190190000000  0.4453220000000  0.5139760000000 1.0
C      1  0.4465620000000  0.4898880000000  0.4991150000000 1.0
END
