TITL C-2622960-5345-501 -0.00274938172036509 125000 -942.289097660334 0 0 170 (C1) n - 1
REM
REM in /nfs/bkarasulu/CARBON/AIRSS/Generating-Clusters/AIREBO/with-SteepDescent/Higher-Symm/SD-CG/HFTN-CG
REM
REM
REM
REM
REM
REM ./C.cell (b20cbc046b6831c77cfcea5457e17084)
REM
REM compiler GCC version 9.2.1 20190827 (Red Hat 9.2.1-1)
REM options -cpp -mtune=generic -march=x86-64 -g -O0 -fpre-include=/usr/include/finclude/math-vector-fortran.h
REM seed -1902268937 619644069 319655562 -918301590 -1289135885 723713074 639117899 -8505517 -949446670 1308715010 -1914809989 -652156129 -2035871441 -541124307 -907840084 36395977 99257537 1280153555 -1634121490 1280551141 -2103537954 1455586382 1090639027 487042668 -1216174060 83105910 1317359082 -966542076 3094117 1059976759 1571542569 -2145790047 1876738406
REM
CELL 1.54180   50.00000   50.00000   50.00000   90.00000   90.00000   90.00000
LATT -1
SFAC C  
C      1  0.5563680000000  0.4628790000000  0.5888440000000 1.0
C      1  0.5571060000000  0.4406420000000  0.4223600000000 1.0
C      1  0.5549930000000  0.5974110000000  0.4883480000000 1.0
C      1  0.4436020000000  0.5076490000000  0.4012850000000 1.0
C      1  0.4463110000000  0.5943530000000  0.5544040000000 1.0
C      1  0.4435580000000  0.4130600000000  0.5425800000000 1.0
C      1  0.4314730000000  0.5775970000000  0.5304770000000 1.0
C      1  0.4276940000000  0.4374940000000  0.5580470000000 1.0
C      1  0.4300240000000  0.4815250000000  0.4182420000000 1.0
C      1  0.4463390000000  0.5545770000000  0.5872890000000 1.0
C      1  0.4424440000000  0.3948570000000  0.5132980000000 1.0
C      1  0.4458720000000  0.5408450000000  0.4098630000000 1.0
C      1  0.5904930000000  0.5045110000000  0.5260150000000 1.0
C      1  0.5974610000000  0.4707160000000  0.4902910000000 1.0
C      1  0.5952150000000  0.5223630000000  0.4764200000000 1.0
C      1  0.4717650000000  0.5844370000000  0.5583620000000 1.0
C      1  0.4748800000000  0.4200320000000  0.5524730000000 1.0
C      1  0.4754760000000  0.4976230000000  0.4005010000000 1.0
C      1  0.4999730000000  0.5242100000000  0.5116800000000 1.0
C      1  0.4940840000000  0.4847090000000  0.5105240000000 1.0
C      1  0.5084660000000  0.4988890000000  0.4732010000000 1.0
C      1  0.5565600000000  0.5469900000000  0.4950140000000 1.0
C      1  0.5658980000000  0.4748260000000  0.5455350000000 1.0
C      1  0.5584700000000  0.4749950000000  0.4609850000000 1.0
C      1  0.5243480000000  0.4334830000000  0.4634950000000 1.0
C      1  0.5262320000000  0.5642190000000  0.4611630000000 1.0
C      1  0.5217610000000  0.4991020000000  0.5719180000000 1.0
C      1  0.5516180000000  0.5903240000000  0.5187090000000 1.0
C      1  0.5552550000000  0.4376030000000  0.5710770000000 1.0
C      1  0.5542700000000  0.4695100000000  0.4113620000000 1.0
C      1  0.4293950000000  0.5188390000000  0.4824770000000 1.0
C      1  0.4303500000000  0.5102670000000  0.5304280000000 1.0
C      1  0.4179540000000  0.4711000000000  0.4927160000000 1.0
C      1  0.4115220000000  0.4531270000000  0.5413420000000 1.0
C      1  0.4155660000000  0.4857860000000  0.4420320000000 1.0
C      1  0.4220270000000  0.5508760000000  0.5159500000000 1.0
C      1  0.5828940000000  0.4938440000000  0.5636490000000 1.0
C      1  0.5751540000000  0.4472820000000  0.4668620000000 1.0
C      1  0.5750730000000  0.5562750000000  0.4701150000000 1.0
C      1  0.4744130000000  0.4802940000000  0.4363130000000 1.0
C      1  0.4726520000000  0.5668310000000  0.5163750000000 1.0
C      1  0.4752170000000  0.4654110000000  0.5398320000000 1.0
C      1  0.4725770000000  0.5600810000000  0.6003130000000 1.0
C      1  0.4724360000000  0.3864580000000  0.5024650000000 1.0
C      1  0.4738770000000  0.5545730000000  0.4086060000000 1.0
C      1  0.5126200000000  0.4996770000000  0.6027560000000 1.0
C      1  0.5136090000000  0.4078980000000  0.4464410000000 1.0
C      1  0.5139380000000  0.5892750000000  0.4417320000000 1.0
C      1  0.4785970000000  0.5105580000000  0.4618820000000 1.0
C      1  0.4847020000000  0.5282820000000  0.5419040000000 1.0
C      1  0.4720290000000  0.4441760000000  0.4946860000000 1.0
C      1  0.5364810000000  0.5070470000000  0.4459380000000 1.0
C      1  0.5293700000000  0.5397970000000  0.5328170000000 1.0
C      1  0.5238070000000  0.4439650000000  0.5109610000000 1.0
C      1  0.5667150000000  0.5231170000000  0.4261330000000 1.0
C      1  0.5624970000000  0.5484860000000  0.5526560000000 1.0
C      1  0.5631390000000  0.4304490000000  0.5186970000000 1.0
C      1  0.5302470000000  0.4245610000000  0.5697110000000 1.0
C      1  0.5300430000000  0.4773530000000  0.3993890000000 1.0
C      1  0.5259810000000  0.5955940000000  0.5300840000000 1.0
C      1  0.6154110000000  0.5123700000000  0.5455450000000 1.0
C      1  0.6179090000000  0.4461750000000  0.4972810000000 1.0
C      1  0.6182320000000  0.5285830000000  0.4541660000000 1.0
C      1  0.5452830000000  0.4699760000000  0.5067470000000 1.0
C      1  0.5519950000000  0.5139690000000  0.4731200000000 1.0
C      1  0.5541780000000  0.5206930000000  0.5247230000000 1.0
C      1  0.4231840000000  0.5634570000000  0.4575900000000 1.0
C      1  0.4295790000000  0.5108090000000  0.5794610000000 1.0
C      1  0.4304060000000  0.4222490000000  0.4672660000000 1.0
C      1  0.4963840000000  0.5882740000000  0.5713490000000 1.0
C      1  0.4969700000000  0.4003770000000  0.5451860000000 1.0
C      1  0.4980560000000  0.5142430000000  0.3892880000000 1.0
C      1  0.5405130000000  0.5259110000000  0.4062640000000 1.0
C      1  0.5354670000000  0.5639740000000  0.5662870000000 1.0
C      1  0.5408820000000  0.4071200000000  0.5215430000000 1.0
C      1  0.4014670000000  0.5323070000000  0.5137120000000 1.0
C      1  0.3995100000000  0.4522840000000  0.5142200000000 1.0
C      1  0.3999660000000  0.5080850000000  0.4455750000000 1.0
C      1  0.5368680000000  0.4738590000000  0.5632460000000 1.0
C      1  0.5370330000000  0.4539380000000  0.4450610000000 1.0
C      1  0.5350850000000  0.5711410000000  0.4878320000000 1.0
C      1  0.4793670000000  0.5695630000000  0.4383440000000 1.0
C      1  0.4732700000000  0.5271590000000  0.5982380000000 1.0
C      1  0.4748970000000  0.3978370000000  0.4705060000000 1.0
C      1  0.5212780000000  0.5490120000000  0.4126260000000 1.0
C      1  0.5156720000000  0.5456290000000  0.5857040000000 1.0
C      1  0.5132840000000  0.4127350000000  0.5024680000000 1.0
C      1  0.4506000000000  0.5547320000000  0.4408070000000 1.0
C      1  0.4392910000000  0.5279390000000  0.5990740000000 1.0
C      1  0.4438320000000  0.4001380000000  0.4793250000000 1.0
C      1  0.5845570000000  0.4396190000000  0.4963870000000 1.0
C      1  0.5859640000000  0.5369270000000  0.4472930000000 1.0
C      1  0.5848040000000  0.5255950000000  0.5522180000000 1.0
C      1  0.4690330000000  0.4392040000000  0.5267140000000 1.0
C      1  0.4689670000000  0.5106130000000  0.4317090000000 1.0
C      1  0.4700200000000  0.5554970000000  0.5447820000000 1.0
C      1  0.5361120000000  0.5319140000000  0.6050780000000 1.0
C      1  0.5376960000000  0.3922210000000  0.4906170000000 1.0
C      1  0.5326510000000  0.5756780000000  0.4234540000000 1.0
C      1  0.4939430000000  0.4701620000000  0.4622360000000 1.0
C      1  0.4873760000000  0.5506280000000  0.4944810000000 1.0
C      1  0.5030590000000  0.4798450000000  0.5403670000000 1.0
C      1  0.5046010000000  0.5504570000000  0.4417200000000 1.0
C      1  0.4955660000000  0.5207430000000  0.5733670000000 1.0
C      1  0.4943250000000  0.4249780000000  0.4770240000000 1.0
C      1  0.4739510000000  0.4408120000000  0.5782350000000 1.0
C      1  0.4764940000000  0.4637560000000  0.4003310000000 1.0
C      1  0.4707760000000  0.6054640000000  0.5073940000000 1.0
C      1  0.4764920000000  0.4954570000000  0.5863550000000 1.0
C      1  0.4771180000000  0.4229110000000  0.4476220000000 1.0
C      1  0.4724940000000  0.5894180000000  0.4611560000000 1.0
C      1  0.5397560000000  0.5248180000000  0.5615360000000 1.0
C      1  0.5463300000000  0.4308210000000  0.4891320000000 1.0
C      1  0.5438410000000  0.5403380000000  0.4444780000000 1.0
C      1  0.5067480000000  0.4445680000000  0.5731210000000 1.0
C      1  0.5066160000000  0.4639220000000  0.4138090000000 1.0
C      1  0.5022970000000  0.5928270000000  0.5091860000000 1.0
C      1  0.4516900000000  0.4595810000000  0.4226370000000 1.0
C      1  0.4448920000000  0.5929020000000  0.5046050000000 1.0
C      1  0.4450940000000  0.4529710000000  0.5754670000000 1.0
C      1  0.5530480000000  0.4058910000000  0.4670040000000 1.0
C      1  0.5575720000000  0.5707230000000  0.4375170000000 1.0
C      1  0.5532100000000  0.5143070000000  0.5909950000000 1.0
C      1  0.5333330000000  0.4798020000000  0.4801880000000 1.0
C      1  0.5285220000000  0.5277870000000  0.4934970000000 1.0
C      1  0.5438230000000  0.4923040000000  0.5284840000000 1.0
C      1  0.4935870000000  0.3945630000000  0.5180410000000 1.0
C      1  0.4959300000000  0.5417070000000  0.3970140000000 1.0
C      1  0.4972350000000  0.5698190000000  0.5928710000000 1.0
C      1  0.4389060000000  0.5550820000000  0.5550270000000 1.0
C      1  0.4402150000000  0.4280250000000  0.5124480000000 1.0
C      1  0.4359720000000  0.5188030000000  0.4324860000000 1.0
C      1  0.5038290000000  0.5324780000000  0.4705860000000 1.0
C      1  0.5174980000000  0.5078830000000  0.5332210000000 1.0
C      1  0.5003570000000  0.4606080000000  0.4939020000000 1.0
C      1  0.5686930000000  0.4910060000000  0.5882130000000 1.0
C      1  0.5659910000000  0.4268230000000  0.4494630000000 1.0
C      1  0.5675760000000  0.5843300000000  0.4634150000000 1.0
C      1  0.5624650000000  0.4906350000000  0.4313830000000 1.0
C      1  0.5609360000000  0.5635920000000  0.5242820000000 1.0
C      1  0.5671060000000  0.4431790000000  0.5456430000000 1.0
C      1  0.4253340000000  0.5254400000000  0.5552620000000 1.0
C      1  0.4194580000000  0.4371810000000  0.4908200000000 1.0
C      1  0.4192910000000  0.5318470000000  0.4567000000000 1.0
C      1  0.5245480000000  0.4061540000000  0.5496390000000 1.0
C      1  0.5253550000000  0.5048960000000  0.3933830000000 1.0
C      1  0.5211740000000  0.5868550000000  0.5565770000000 1.0
C      1  0.4601740000000  0.4642490000000  0.4614110000000 1.0
C      1  0.4605370000000  0.5524250000000  0.4736730000000 1.0
C      1  0.4526660000000  0.4807390000000  0.5477660000000 1.0
C      1  0.5797790000000  0.4949080000000  0.4778080000000 1.0
C      1  0.5802050000000  0.5249550000000  0.5042030000000 1.0
C      1  0.5778950000000  0.4776870000000  0.5138470000000 1.0
C      1  0.4280390000000  0.4768540000000  0.5308330000000 1.0
C      1  0.4322720000000  0.4791220000000  0.4660240000000 1.0
C      1  0.4468090000000  0.5388350000000  0.5012490000000 1.0
C      1  0.5199090000000  0.4528910000000  0.5435580000000 1.0
C      1  0.5184300000000  0.4787830000000  0.4402600000000 1.0
C      1  0.5153450000000  0.5614390000000  0.5105390000000 1.0
C      1  0.4489470000000  0.4666300000000  0.5059890000000 1.0
C      1  0.4559670000000  0.5005200000000  0.4777230000000 1.0
C      1  0.4603260000000  0.5181800000000  0.5213870000000 1.0
C      1  0.4437760000000  0.5815160000000  0.4760330000000 1.0
C      1  0.4476740000000  0.4868560000000  0.5769970000000 1.0
C      1  0.4484280000000  0.4369780000000  0.4478280000000 1.0
C      1  0.4859330000000  0.4389480000000  0.4220140000000 1.0
C      1  0.4878200000000  0.6042030000000  0.4804440000000 1.0
C      1  0.4903370000000  0.4682230000000  0.5907210000000 1.0
C      1  0.4665890000000  0.4932290000000  0.5057240000000 1.0
C      1  0.4112070000000  0.5012250000000  0.5039620000000 1.0
END
