TITL C-2622960-5345-345 -0.00683593105875936 125000 -260.075213779136 0 0 48 (C1) n - 1
REM
REM in /nfs/bkarasulu/CARBON/AIRSS/Generating-Clusters/AIREBO/with-SteepDescent/Higher-Symm/SD-CG/HFTN-CG
REM
REM
REM
REM
REM
REM ./C.cell (b20cbc046b6831c77cfcea5457e17084)
REM
REM compiler GCC version 9.2.1 20190827 (Red Hat 9.2.1-1)
REM options -cpp -mtune=generic -march=x86-64 -g -O0 -fpre-include=/usr/include/finclude/math-vector-fortran.h
REM seed -1333496686 -772138035 1819728952 -1465438518 1934719314 -1170150367 803663538 398619302 -1604569216 1800446401 -1293727295 -1607596309 997570870 -1926110805 1968952533 -757098350 -1854159748 1216180809 -364041960 1605192619 812074896 -274724481 1490371529 -1960998350 2081502619 78563222 -1590800181 1267260494 -1813252965 1533632175 -805130657 -160052099 786041961
REM
CELL 1.54180   50.00000   50.00000   50.00000   90.00000   90.00000   90.00000
LATT -1
SFAC C  
C      1  0.5375480000000  0.5780190000000  0.4853070000000 1.0
C      1  0.5360900000000  0.5146820000000  0.5757250000000 1.0
C      1  0.5360360000000  0.4235560000000  0.5181890000000 1.0
C      1  0.5402490000000  0.4899740000000  0.4189210000000 1.0
C      1  0.4627690000000  0.5841090000000  0.4953220000000 1.0
C      1  0.4620430000000  0.5185610000000  0.5750030000000 1.0
C      1  0.4617470000000  0.4242210000000  0.5270280000000 1.0
C      1  0.4686170000000  0.4851630000000  0.4226910000000 1.0
C      1  0.4473880000000  0.4834350000000  0.5307490000000 1.0
C      1  0.4547150000000  0.4610770000000  0.4823320000000 1.0
C      1  0.4609290000000  0.5161270000000  0.4696130000000 1.0
C      1  0.4503110000000  0.5322860000000  0.5167000000000 1.0
C      1  0.5498760000000  0.4822390000000  0.5294080000000 1.0
C      1  0.5423970000000  0.4657040000000  0.4787790000000 1.0
C      1  0.5439090000000  0.5206390000000  0.4672730000000 1.0
C      1  0.5488730000000  0.5322570000000  0.5175900000000 1.0
C      1  0.5151290000000  0.4860300000000  0.4790950000000 1.0
C      1  0.5162440000000  0.5190810000000  0.4870360000000 1.0
C      1  0.5247070000000  0.5117220000000  0.5202710000000 1.0
C      1  0.5233910000000  0.4789290000000  0.5113160000000 1.0
C      1  0.4820620000000  0.4781920000000  0.4805330000000 1.0
C      1  0.4815860000000  0.5251880000000  0.4909390000000 1.0
C      1  0.4743160000000  0.5109480000000  0.5204700000000 1.0
C      1  0.4734680000000  0.4775710000000  0.5134400000000 1.0
C      1  0.5428080000000  0.4949080000000  0.5525210000000 1.0
C      1  0.5371740000000  0.4437210000000  0.4942170000000 1.0
C      1  0.5383570000000  0.5110200000000  0.4422410000000 1.0
C      1  0.5412410000000  0.5562880000000  0.5075250000000 1.0
C      1  0.4549010000000  0.4974900000000  0.5529520000000 1.0
C      1  0.4589000000000  0.4411380000000  0.5007540000000 1.0
C      1  0.4695040000000  0.5055650000000  0.4464580000000 1.0
C      1  0.4582720000000  0.5573860000000  0.5112280000000 1.0
C      1  0.4260350000000  0.4896330000000  0.5128890000000 1.0
C      1  0.4314830000000  0.4771810000000  0.4839200000000 1.0
C      1  0.4353420000000  0.5078700000000  0.4787560000000 1.0
C      1  0.4274350000000  0.5200510000000  0.5057000000000 1.0
C      1  0.5718660000000  0.4888700000000  0.5126920000000 1.0
C      1  0.5671220000000  0.4791630000000  0.4826680000000 1.0
C      1  0.5673420000000  0.5101910000000  0.4793860000000 1.0
C      1  0.5723740000000  0.5198260000000  0.5080480000000 1.0
C      1  0.4897560000000  0.4795710000000  0.4488890000000 1.0
C      1  0.4854870000000  0.5589340000000  0.4923680000000 1.0
C      1  0.4849970000000  0.5131070000000  0.5503930000000 1.0
C      1  0.4849730000000  0.4485290000000  0.5212860000000 1.0
C      1  0.5189060000000  0.4847520000000  0.4449040000000 1.0
C      1  0.5145540000000  0.5530210000000  0.4882750000000 1.0
C      1  0.5134940000000  0.5131510000000  0.5503640000000 1.0
C      1  0.5132760000000  0.4489260000000  0.5178350000000 1.0
END
