TITL C-2622958-629-684 -0.00331865838052422 125000 -525.524713347324 0 0 97 (C1) n - 1
REM
REM in /nfs/bkarasulu/CARBON/AIRSS/Generating-Clusters/AIREBO/with-SteepDescent/Higher-Symm/SD-CG/HFTN-CG
REM
REM
REM
REM
REM
REM ./C.cell (b20cbc046b6831c77cfcea5457e17084)
REM
REM compiler GCC version 9.2.1 20190827 (Red Hat 9.2.1-1)
REM options -cpp -mtune=generic -march=x86-64 -g -O0 -fpre-include=/usr/include/finclude/math-vector-fortran.h
REM seed -1148859993 345179765 462128960 -1881536026 -1254659659 1636482040 1634145155 2116317636 -212698626 -878090363 -515296648 -296461968 -1306184724 1458709674 -664360392 -1171429178 -2018969617 1575989672 -211471685 1003486602 -28565520 404030206 152300202 -1977468901 540134817 1728874909 547036914 2074737745 -1507487724 1437465965 1359133625 1652864792 353328891
REM
CELL 1.54180   50.00000   50.00000   50.00000   90.00000   90.00000   90.00000
LATT -1
SFAC C  
C      1  0.4749320000000  0.4322090000000  0.4660840000000 1.0
C      1  0.4400760000000  0.4432590000000  0.5670890000000 1.0
C      1  0.4710350000000  0.5465810000000  0.5704710000000 1.0
C      1  0.4654510000000  0.5949560000000  0.4902320000000 1.0
C      1  0.4558860000000  0.5064980000000  0.4186670000000 1.0
C      1  0.4456470000000  0.4698060000000  0.5483920000000 1.0
C      1  0.4536020000000  0.5342590000000  0.5387970000000 1.0
C      1  0.4507470000000  0.5306920000000  0.4805280000000 1.0
C      1  0.4545180000000  0.4832740000000  0.4442410000000 1.0
C      1  0.4578270000000  0.4654910000000  0.4934950000000 1.0
C      1  0.4891200000000  0.5347190000000  0.5886610000000 1.0
C      1  0.4838600000000  0.5753040000000  0.4856610000000 1.0
C      1  0.4887770000000  0.5152760000000  0.4197850000000 1.0
C      1  0.4927970000000  0.4231380000000  0.4461420000000 1.0
C      1  0.4860250000000  0.4368550000000  0.5564280000000 1.0
C      1  0.5587480000000  0.4964780000000  0.4209050000000 1.0
C      1  0.5537840000000  0.4054800000000  0.4790470000000 1.0
C      1  0.5490810000000  0.4265060000000  0.5880680000000 1.0
C      1  0.5536670000000  0.5516620000000  0.5586980000000 1.0
C      1  0.5486660000000  0.5991100000000  0.4631290000000 1.0
C      1  0.4440330000000  0.5048740000000  0.5532860000000 1.0
C      1  0.4471260000000  0.5400300000000  0.5091620000000 1.0
C      1  0.4393630000000  0.5125930000000  0.4467910000000 1.0
C      1  0.4379630000000  0.4656870000000  0.4665750000000 1.0
C      1  0.4392980000000  0.4565010000000  0.5177510000000 1.0
C      1  0.5195390000000  0.4295340000000  0.4527820000000 1.0
C      1  0.5140950000000  0.4323120000000  0.5541450000000 1.0
C      1  0.5143020000000  0.5306500000000  0.5764490000000 1.0
C      1  0.5119740000000  0.5759770000000  0.4899850000000 1.0
C      1  0.5178450000000  0.5213510000000  0.4185610000000 1.0
C      1  0.5099370000000  0.4328930000000  0.5021630000000 1.0
C      1  0.5035930000000  0.4803270000000  0.5714630000000 1.0
C      1  0.5103530000000  0.5642290000000  0.5402530000000 1.0
C      1  0.5058470000000  0.5585180000000  0.4534960000000 1.0
C      1  0.5144470000000  0.4724420000000  0.4246910000000 1.0
C      1  0.4901970000000  0.4758610000000  0.5263180000000 1.0
C      1  0.4891190000000  0.5250610000000  0.5230630000000 1.0
C      1  0.4883140000000  0.5333710000000  0.4931120000000 1.0
C      1  0.4972830000000  0.4989850000000  0.4616790000000 1.0
C      1  0.4927890000000  0.4826890000000  0.4870160000000 1.0
C      1  0.4794070000000  0.4674680000000  0.5525300000000 1.0
C      1  0.4831850000000  0.5497960000000  0.5402200000000 1.0
C      1  0.4769180000000  0.5490360000000  0.4689040000000 1.0
C      1  0.4862270000000  0.4865130000000  0.4353930000000 1.0
C      1  0.4867870000000  0.4499070000000  0.4901760000000 1.0
C      1  0.4187720000000  0.4702360000000  0.4943750000000 1.0
C      1  0.4203170000000  0.4883850000000  0.5353430000000 1.0
C      1  0.4220370000000  0.5224660000000  0.5342380000000 1.0
C      1  0.4196830000000  0.5185500000000  0.4738990000000 1.0
C      1  0.4171250000000  0.4891800000000  0.4569730000000 1.0
C      1  0.5616990000000  0.4647050000000  0.4875890000000 1.0
C      1  0.5594470000000  0.4840010000000  0.5350070000000 1.0
C      1  0.5586860000000  0.5318940000000  0.5389580000000 1.0
C      1  0.5592950000000  0.5238550000000  0.4893700000000 1.0
C      1  0.5626150000000  0.4963560000000  0.4490620000000 1.0
C      1  0.5499450000000  0.5057210000000  0.5488200000000 1.0
C      1  0.5529190000000  0.5410680000000  0.5114620000000 1.0
C      1  0.5530030000000  0.5212080000000  0.4617660000000 1.0
C      1  0.5573660000000  0.4699160000000  0.4601690000000 1.0
C      1  0.5540590000000  0.4586780000000  0.5187380000000 1.0
C      1  0.5198880000000  0.5258900000000  0.4950990000000 1.0
C      1  0.5133330000000  0.5186860000000  0.4657160000000 1.0
C      1  0.5223050000000  0.4726910000000  0.4780510000000 1.0
C      1  0.5156960000000  0.4694610000000  0.5200000000000 1.0
C      1  0.5146490000000  0.5080460000000  0.5303390000000 1.0
C      1  0.4619130000000  0.4255680000000  0.5668270000000 1.0
C      1  0.4829500000000  0.5275990000000  0.6138030000000 1.0
C      1  0.4473310000000  0.6126780000000  0.4969000000000 1.0
C      1  0.4653230000000  0.5320410000000  0.4017570000000 1.0
C      1  0.4852860000000  0.4104580000000  0.4236930000000 1.0
C      1  0.5278570000000  0.4393500000000  0.5779070000000 1.0
C      1  0.5260910000000  0.5529810000000  0.5638470000000 1.0
C      1  0.5259160000000  0.5840600000000  0.4635580000000 1.0
C      1  0.5315160000000  0.4968060000000  0.4143580000000 1.0
C      1  0.5284550000000  0.4166750000000  0.4787070000000 1.0
C      1  0.5267690000000  0.4413860000000  0.5277970000000 1.0
C      1  0.5191090000000  0.5045840000000  0.5611340000000 1.0
C      1  0.5233830000000  0.5560500000000  0.5104060000000 1.0
C      1  0.5275120000000  0.5357420000000  0.4444670000000 1.0
C      1  0.5276420000000  0.4585810000000  0.4500540000000 1.0
C      1  0.5099950000000  0.4533200000000  0.4010450000000 1.0
C      1  0.5051880000000  0.4011500000000  0.4981480000000 1.0
C      1  0.5163410000000  0.4631250000000  0.5884350000000 1.0
C      1  0.5078850000000  0.5947620000000  0.5423050000000 1.0
C      1  0.5048190000000  0.5861690000000  0.4368540000000 1.0
C      1  0.5298290000000  0.4943800000000  0.5031360000000 1.0
C      1  0.6748470000000  0.5057060000000  0.4977520000000 1.0
C      1  0.5964670000000  0.4954670000000  0.5013620000000 1.0
C      1  0.6490400000000  0.5011930000000  0.4985480000000 1.0
C      1  0.3613300000000  0.5085960000000  0.5070890000000 1.0
C      1  0.4792760000000  0.4986670000000  0.5107650000000 1.0
C      1  0.4534100000000  0.4993950000000  0.4935630000000 1.0
C      1  0.6226960000000  0.4983620000000  0.5012700000000 1.0
C      1  0.3875620000000  0.5060030000000  0.5059720000000 1.0
C      1  0.5638400000000  0.4942970000000  0.5036520000000 1.0
C      1  0.3352760000000  0.5111690000000  0.5081970000000 1.0
C      1  0.4213630000000  0.5026120000000  0.5044590000000 1.0
END
