TITL C-2622964-2985-19 -0.000808112050337289 125000 -534.739482925023 0 0 85 (C2) n - 1
REM
REM in /nfs/bkarasulu/CARBON/AIRSS/Generating-Clusters/AIREBO/with-SteepDescent/Higher-Symm/SD-CG/HFTN-CG
REM
REM
REM
REM
REM
REM ./C.cell (b20cbc046b6831c77cfcea5457e17084)
REM
REM compiler GCC version 9.2.1 20190827 (Red Hat 9.2.1-1)
REM options -cpp -mtune=generic -march=x86-64 -g -O0 -fpre-include=/usr/include/finclude/math-vector-fortran.h
REM seed -1042984444 -963429710 -255823783 650299648 1073247085 1190100057 1042645075 2090216048 674890475 376332230 1486516053 -1748505863 -641312487 -301748644 1051812197 32407493 870739644 -1587310985 -237836438 -1322885137 -2125424184 -1866730224 -412608013 1794638089 -654070085 1767165789 253199646 1686360025 -686679484 813105176 -1819803019 293155772 1302526724
REM
CELL 1.54180   50.00000   50.00000   50.00000   90.00000   90.00000   90.00000
LATT -1
SFAC C  
C      1  0.5895120000000  0.5075140000000  0.4773150000000 1.0
C      1  0.5896020000000  0.5238580000000  0.5015030000000 1.0
C      1  0.5903560000000  0.5058100000000  0.5245540000000 1.0
C      1  0.5907250000000  0.4781640000000  0.5145330000000 1.0
C      1  0.5904300000000  0.4792740000000  0.4852220000000 1.0
C      1  0.4113470000000  0.4912010000000  0.4777570000000 1.0
C      1  0.4105840000000  0.4748690000000  0.5020540000000 1.0
C      1  0.4102130000000  0.4929560000000  0.5252410000000 1.0
C      1  0.4105150000000  0.5204840000000  0.5151110000000 1.0
C      1  0.4114390000000  0.5192610000000  0.4858110000000 1.0
C      1  0.5351220000000  0.4511200000000  0.5182490000000 1.0
C      1  0.5326940000000  0.4657180000000  0.4577860000000 1.0
C      1  0.5274690000000  0.5293500000000  0.4537040000000 1.0
C      1  0.5314870000000  0.5516770000000  0.5147350000000 1.0
C      1  0.5363050000000  0.5031490000000  0.5518770000000 1.0
C      1  0.4682550000000  0.5507580000000  0.5195230000000 1.0
C      1  0.4734930000000  0.5349410000000  0.4577540000000 1.0
C      1  0.4694630000000  0.4699980000000  0.4554150000000 1.0
C      1  0.4646280000000  0.4497030000000  0.5130550000000 1.0
C      1  0.4658100000000  0.4977840000000  0.5521200000000 1.0
C      1  0.4404170000000  0.5577300000000  0.5107160000000 1.0
C      1  0.4393290000000  0.5101800000000  0.5604180000000 1.0
C      1  0.4387560000000  0.4457440000000  0.5298390000000 1.0
C      1  0.4418320000000  0.4581530000000  0.4590230000000 1.0
C      1  0.4443330000000  0.5265410000000  0.4514230000000 1.0
C      1  0.5616020000000  0.4393880000000  0.5090380000000 1.0
C      1  0.5621720000000  0.4884100000000  0.5608430000000 1.0
C      1  0.5591150000000  0.5519070000000  0.5271220000000 1.0
C      1  0.5566290000000  0.5379650000000  0.4597400000000 1.0
C      1  0.5605360000000  0.4719290000000  0.4484370000000 1.0
C      1  0.5744410000000  0.5167630000000  0.4549910000000 1.0
C      1  0.5746240000000  0.5482100000000  0.5031710000000 1.0
C      1  0.5751750000000  0.5117000000000  0.5480090000000 1.0
C      1  0.5768720000000  0.4565100000000  0.5273640000000 1.0
C      1  0.5771510000000  0.4601780000000  0.4683940000000 1.0
C      1  0.4263280000000  0.4820740000000  0.4551210000000 1.0
C      1  0.4257600000000  0.4507410000000  0.5037170000000 1.0
C      1  0.4240580000000  0.4874560000000  0.5498050000000 1.0
C      1  0.4237950000000  0.5423940000000  0.5280640000000 1.0
C      1  0.4265170000000  0.5376230000000  0.4701100000000 1.0
C      1  0.4397110000000  0.5596940000000  0.4830150000000 1.0
C      1  0.4391120000000  0.5370740000000  0.5526800000000 1.0
C      1  0.4397180000000  0.4628800000000  0.5519780000000 1.0
C      1  0.4414090000000  0.4416980000000  0.4814990000000 1.0
C      1  0.4426720000000  0.5012400000000  0.4405320000000 1.0
C      1  0.5618260000000  0.4384210000000  0.4810690000000 1.0
C      1  0.5612080000000  0.4620550000000  0.5514010000000 1.0
C      1  0.5595300000000  0.5356290000000  0.5497260000000 1.0
C      1  0.5582880000000  0.5561530000000  0.4804270000000 1.0
C      1  0.5612490000000  0.4976620000000  0.4379950000000 1.0
C      1  0.4911100000000  0.5099390000000  0.5612760000000 1.0
C      1  0.4903490000000  0.4450240000000  0.5274860000000 1.0
C      1  0.4930700000000  0.4522090000000  0.4523270000000 1.0
C      1  0.4924350000000  0.5312760000000  0.4322720000000 1.0
C      1  0.4892630000000  0.5707650000000  0.5093600000000 1.0
C      1  0.5105790000000  0.4908790000000  0.5607860000000 1.0
C      1  0.5078780000000  0.5601240000000  0.5306890000000 1.0
C      1  0.5085320000000  0.5547190000000  0.4492970000000 1.0
C      1  0.5116920000000  0.4691930000000  0.4356110000000 1.0
C      1  0.5098220000000  0.4386560000000  0.5095190000000 1.0
C      1  0.4658940000000  0.5636040000000  0.4710730000000 1.0
C      1  0.4669230000000  0.5489150000000  0.5511970000000 1.0
C      1  0.4679390000000  0.4673780000000  0.5616480000000 1.0
C      1  0.4689040000000  0.4295220000000  0.4876040000000 1.0
C      1  0.4693440000000  0.4908570000000  0.4314630000000 1.0
C      1  0.5340180000000  0.4361700000000  0.4693430000000 1.0
C      1  0.5329850000000  0.4514720000000  0.5501100000000 1.0
C      1  0.5320320000000  0.5335980000000  0.5631860000000 1.0
C      1  0.5316160000000  0.5679960000000  0.4874860000000 1.0
C      1  0.5350690000000  0.5078120000000  0.4305740000000 1.0
C      1  0.5258300000000  0.4843900000000  0.4809300000000 1.0
C      1  0.5156060000000  0.5144240000000  0.4779800000000 1.0
C      1  0.5277170000000  0.5235400000000  0.5053250000000 1.0
C      1  0.5339130000000  0.5022720000000  0.5217690000000 1.0
C      1  0.5325990000000  0.4791410000000  0.5076420000000 1.0
C      1  0.4853470000000  0.5164760000000  0.4794640000000 1.0
C      1  0.4732310000000  0.4876550000000  0.4792580000000 1.0
C      1  0.4670270000000  0.4786030000000  0.5045700000000 1.0
C      1  0.4683400000000  0.4991960000000  0.5221920000000 1.0
C      1  0.4751170000000  0.5229700000000  0.5089340000000 1.0
C      1  0.5004620000000  0.4604080000000  0.5545260000000 1.0
C      1  0.5019510000000  0.5004340000000  0.4331040000000 1.0
C      1  0.4990100000000  0.5634760000000  0.4788800000000 1.0
C      1  0.5012940000000  0.4345000000000  0.4785070000000 1.0
C      1  0.4996440000000  0.5407130000000  0.5556290000000 1.0
END
