TITL C-2622961-1971-785 -0.00359905392482689 125000 -519.711246780796 0 0 96 (C1) n - 1
REM
REM in /nfs/bkarasulu/CARBON/AIRSS/Generating-Clusters/AIREBO/with-SteepDescent/Higher-Symm/SD-CG/HFTN-CG
REM
REM
REM
REM
REM
REM ./C.cell (b20cbc046b6831c77cfcea5457e17084)
REM
REM compiler GCC version 9.2.1 20190827 (Red Hat 9.2.1-1)
REM options -cpp -mtune=generic -march=x86-64 -g -O0 -fpre-include=/usr/include/finclude/math-vector-fortran.h
REM seed 437543408 138190103 -559762318 954430287 -1020996093 -1825734414 211787509 1516274539 277781353 -2044562602 -1848876372 1560344024 567848445 -790093765 -1298209263 1305156502 590717730 -40868293 -1752725213 1690645842 2135712047 -878491383 -399893034 -1228134192 54800835 -1652898905 -1572859599 294562078 1332314798 2060211627 1291011540 965412687 701116348
REM
CELL 1.54180   50.00000   50.00000   50.00000   90.00000   90.00000   90.00000
LATT -1
SFAC C  
C      1  0.5452970000000  0.4825760000000  0.5155210000000 1.0
C      1  0.4463170000000  0.4169770000000  0.4960850000000 1.0
C      1  0.4291920000000  0.4581190000000  0.4795110000000 1.0
C      1  0.5414240000000  0.4658340000000  0.5448900000000 1.0
C      1  0.5009500000000  0.4229290000000  0.4722660000000 1.0
C      1  0.4734840000000  0.4501540000000  0.4943940000000 1.0
C      1  0.5611270000000  0.5470770000000  0.5068000000000 1.0
C      1  0.5595390000000  0.4463070000000  0.5238550000000 1.0
C      1  0.4807770000000  0.4590090000000  0.5421800000000 1.0
C      1  0.5062820000000  0.5151310000000  0.5975050000000 1.0
C      1  0.4546350000000  0.4582950000000  0.5210960000000 1.0
C      1  0.5877650000000  0.5273100000000  0.5050230000000 1.0
C      1  0.4980740000000  0.4888180000000  0.5208570000000 1.0
C      1  0.4219070000000  0.5284450000000  0.5079910000000 1.0
C      1  0.5306770000000  0.4572550000000  0.4361640000000 1.0
C      1  0.5620910000000  0.5227340000000  0.4627700000000 1.0
C      1  0.5265320000000  0.5884810000000  0.5235180000000 1.0
C      1  0.5121720000000  0.4746400000000  0.4128430000000 1.0
C      1  0.4240160000000  0.5084900000000  0.5355170000000 1.0
C      1  0.4893960000000  0.4705700000000  0.5732950000000 1.0
C      1  0.4744960000000  0.5560510000000  0.5671840000000 1.0
C      1  0.5393250000000  0.5369200000000  0.4827620000000 1.0
C      1  0.4855500000000  0.5548910000000  0.4787550000000 1.0
C      1  0.5160260000000  0.5344900000000  0.5306390000000 1.0
C      1  0.4814890000000  0.5367870000000  0.4305870000000 1.0
C      1  0.5823610000000  0.5066850000000  0.4830610000000 1.0
C      1  0.4426740000000  0.5254700000000  0.4636850000000 1.0
C      1  0.4367430000000  0.4995850000000  0.5054440000000 1.0
C      1  0.5156820000000  0.5127220000000  0.4793230000000 1.0
C      1  0.4328650000000  0.5232810000000  0.5619320000000 1.0
C      1  0.4497450000000  0.4583020000000  0.4573800000000 1.0
C      1  0.4939750000000  0.5853720000000  0.5208830000000 1.0
C      1  0.4918230000000  0.5560170000000  0.5379290000000 1.0
C      1  0.5198110000000  0.4885150000000  0.4985510000000 1.0
C      1  0.5491380000000  0.5192900000000  0.4335840000000 1.0
C      1  0.4793860000000  0.4693440000000  0.4698590000000 1.0
C      1  0.5100390000000  0.5454820000000  0.4571160000000 1.0
C      1  0.5407730000000  0.4724120000000  0.4771530000000 1.0
C      1  0.4920980000000  0.5332340000000  0.5846970000000 1.0
C      1  0.5426310000000  0.5395970000000  0.5412950000000 1.0
C      1  0.4714260000000  0.5132290000000  0.4114570000000 1.0
C      1  0.5690200000000  0.5243010000000  0.5314230000000 1.0
C      1  0.5371930000000  0.4475460000000  0.5712940000000 1.0
C      1  0.5324150000000  0.4951570000000  0.5592630000000 1.0
C      1  0.5111300000000  0.5130860000000  0.4467190000000 1.0
C      1  0.4837160000000  0.5011970000000  0.4776800000000 1.0
C      1  0.4440840000000  0.5425810000000  0.5407760000000 1.0
C      1  0.4981030000000  0.5014500000000  0.4225830000000 1.0
C      1  0.5125670000000  0.5457700000000  0.4239310000000 1.0
C      1  0.5437070000000  0.5726960000000  0.4999310000000 1.0
C      1  0.4806520000000  0.5007300000000  0.5602360000000 1.0
C      1  0.4742710000000  0.5615430000000  0.4506220000000 1.0
C      1  0.4819170000000  0.4659690000000  0.4137250000000 1.0
C      1  0.5676850000000  0.4950730000000  0.5378640000000 1.0
C      1  0.5119870000000  0.5483430000000  0.4998140000000 1.0
C      1  0.4784840000000  0.4175960000000  0.4940360000000 1.0
C      1  0.5081100000000  0.5075490000000  0.5435240000000 1.0
C      1  0.5949400000000  0.5185690000000  0.4541950000000 1.0
C      1  0.4610500000000  0.4607610000000  0.5893130000000 1.0
C      1  0.4706390000000  0.5226700000000  0.4585220000000 1.0
C      1  0.5328070000000  0.4459170000000  0.5059060000000 1.0
C      1  0.5627010000000  0.4625240000000  0.5785870000000 1.0
C      1  0.5128460000000  0.5801260000000  0.4877440000000 1.0
C      1  0.5350130000000  0.5665210000000  0.4665970000000 1.0
C      1  0.4607510000000  0.4933790000000  0.5387660000000 1.0
C      1  0.4651650000000  0.5788520000000  0.5188710000000 1.0
C      1  0.5117750000000  0.4459280000000  0.5802280000000 1.0
C      1  0.5818070000000  0.4687590000000  0.5213440000000 1.0
C      1  0.4629280000000  0.5252760000000  0.5713630000000 1.0
C      1  0.5001620000000  0.4549330000000  0.4475270000000 1.0
C      1  0.5701710000000  0.4812890000000  0.4923750000000 1.0
C      1  0.4700960000000  0.5363980000000  0.5205620000000 1.0
C      1  0.4561610000000  0.4339250000000  0.4395300000000 1.0
C      1  0.4702530000000  0.5042820000000  0.5088690000000 1.0
C      1  0.4550130000000  0.5706130000000  0.5434260000000 1.0
C      1  0.4351990000000  0.4417600000000  0.5011280000000 1.0
C      1  0.4435650000000  0.4829890000000  0.4392750000000 1.0
C      1  0.5064560000000  0.4558550000000  0.5217410000000 1.0
C      1  0.4364420000000  0.5420580000000  0.4862890000000 1.0
C      1  0.5517920000000  0.4474830000000  0.4568100000000 1.0
C      1  0.5375330000000  0.4932600000000  0.4521290000000 1.0
C      1  0.5162950000000  0.4487930000000  0.4763150000000 1.0
C      1  0.4611860000000  0.5563190000000  0.4969550000000 1.0
C      1  0.4617050000000  0.4857540000000  0.4180520000000 1.0
C      1  0.4800020000000  0.4399000000000  0.4273280000000 1.0
C      1  0.5438770000000  0.4836940000000  0.4201230000000 1.0
C      1  0.5371540000000  0.5368670000000  0.4166160000000 1.0
C      1  0.5192920000000  0.5732640000000  0.5490840000000 1.0
C      1  0.5519650000000  0.4318800000000  0.4815710000000 1.0
C      1  0.4245720000000  0.4857350000000  0.4822450000000 1.0
C      1  0.4296250000000  0.5004580000000  0.4580860000000 1.0
C      1  0.4931280000000  0.4273230000000  0.5215060000000 1.0
C      1  0.5635970000000  0.4885470000000  0.5687750000000 1.0
C      1  0.5129800000000  0.4925770000000  0.5840510000000 1.0
C      1  0.4527520000000  0.4610410000000  0.5606180000000 1.0
C      1  0.4318510000000  0.4763050000000  0.5387990000000 1.0
END
