TITL C-2622962-9663-487 0.000145975504652113 125000 -806.460081710327 0 0 149 (C1) n - 1
REM
REM in /nfs/bkarasulu/CARBON/AIRSS/Generating-Clusters/AIREBO/with-SteepDescent/Higher-Symm/SD-CG/HFTN-CG
REM
REM
REM
REM
REM
REM ./C.cell (b20cbc046b6831c77cfcea5457e17084)
REM
REM compiler GCC version 9.2.1 20190827 (Red Hat 9.2.1-1)
REM options -cpp -mtune=generic -march=x86-64 -g -O0 -fpre-include=/usr/include/finclude/math-vector-fortran.h
REM seed 297490499 -93969172 1961267710 -1017366881 -896386153 -2086251917 -876279527 1823479839 -1381239109 1387437098 -800641100 1795713752 -906053825 -231005002 -831586985 -730205849 -1099331881 1125659350 -1487124430 1929983181 -1461129237 1744430301 -307750628 497873146 -362607019 242414701 -637571477 856036431 1983672436 -2073766543 66284745 1776427601 -1323852659
REM
CELL 1.54180   50.00000   50.00000   50.00000   90.00000   90.00000   90.00000
LATT -1
SFAC C  
C      1  0.4512520000000  0.4245780000000  0.4287620000000 1.0
C      1  0.4305030000000  0.4312120000000  0.5299780000000 1.0
C      1  0.5063430000000  0.4317290000000  0.5786990000000 1.0
C      1  0.5778840000000  0.4385600000000  0.5205850000000 1.0
C      1  0.5473590000000  0.4357160000000  0.4361930000000 1.0
C      1  0.4554970000000  0.5663870000000  0.4348850000000 1.0
C      1  0.4296310000000  0.5613340000000  0.5276360000000 1.0
C      1  0.4996900000000  0.5612530000000  0.5767210000000 1.0
C      1  0.5746610000000  0.5702200000000  0.5224660000000 1.0
C      1  0.5459550000000  0.5636670000000  0.4347780000000 1.0
C      1  0.5111770000000  0.4483650000000  0.4628620000000 1.0
C      1  0.4610340000000  0.4508290000000  0.4675380000000 1.0
C      1  0.4604560000000  0.4570850000000  0.5242530000000 1.0
C      1  0.5135120000000  0.4613170000000  0.5529630000000 1.0
C      1  0.5485670000000  0.4659170000000  0.5040900000000 1.0
C      1  0.5192650000000  0.5326590000000  0.4541950000000 1.0
C      1  0.4607870000000  0.5424990000000  0.4660990000000 1.0
C      1  0.4586530000000  0.5270610000000  0.5309750000000 1.0
C      1  0.5100790000000  0.5403870000000  0.5446340000000 1.0
C      1  0.5556720000000  0.5387780000000  0.5046310000000 1.0
C      1  0.4638340000000  0.4699820000000  0.4395410000000 1.0
C      1  0.4346390000000  0.4658660000000  0.5107630000000 1.0
C      1  0.4840450000000  0.4554580000000  0.5688820000000 1.0
C      1  0.5607170000000  0.4731870000000  0.5307120000000 1.0
C      1  0.5405890000000  0.4634330000000  0.4546950000000 1.0
C      1  0.4636790000000  0.5333670000000  0.4353200000000 1.0
C      1  0.4318500000000  0.5319840000000  0.5105990000000 1.0
C      1  0.4938540000000  0.5285890000000  0.5692110000000 1.0
C      1  0.5683480000000  0.5398330000000  0.5363980000000 1.0
C      1  0.5529230000000  0.5336990000000  0.4493830000000 1.0
C      1  0.4410350000000  0.4819440000000  0.5644620000000 1.0
C      1  0.5470220000000  0.4826610000000  0.5812810000000 1.0
C      1  0.5888010000000  0.4675890000000  0.4818950000000 1.0
C      1  0.5048310000000  0.4643570000000  0.4110890000000 1.0
C      1  0.4238440000000  0.4709890000000  0.4609960000000 1.0
C      1  0.4354920000000  0.5155290000000  0.5681490000000 1.0
C      1  0.5430560000000  0.5163290000000  0.5774510000000 1.0
C      1  0.5873050000000  0.5301310000000  0.4817970000000 1.0
C      1  0.5107430000000  0.5282190000000  0.4089710000000 1.0
C      1  0.4223480000000  0.5260190000000  0.4615160000000 1.0
C      1  0.5587400000000  0.4511920000000  0.5759480000000 1.0
C      1  0.5938340000000  0.4462470000000  0.4632400000000 1.0
C      1  0.4910670000000  0.4410450000000  0.4032580000000 1.0
C      1  0.4024340000000  0.4582290000000  0.4771940000000 1.0
C      1  0.4556710000000  0.4612670000000  0.5867000000000 1.0
C      1  0.5674910000000  0.5375100000000  0.5703690000000 1.0
C      1  0.5832910000000  0.5477870000000  0.4556870000000 1.0
C      1  0.4941190000000  0.5537410000000  0.4022300000000 1.0
C      1  0.4115040000000  0.5412910000000  0.4863300000000 1.0
C      1  0.4485550000000  0.5382370000000  0.5879520000000 1.0
C      1  0.5118560000000  0.5639460000000  0.5223760000000 1.0
C      1  0.5203680000000  0.5757640000000  0.4975210000000 1.0
C      1  0.4932170000000  0.5762170000000  0.4772710000000 1.0
C      1  0.4743400000000  0.5576240000000  0.4921100000000 1.0
C      1  0.4835080000000  0.5557650000000  0.5190500000000 1.0
C      1  0.5103240000000  0.4355050000000  0.5129400000000 1.0
C      1  0.5219320000000  0.4396890000000  0.4901830000000 1.0
C      1  0.4687450000000  0.4181290000000  0.4681830000000 1.0
C      1  0.4696640000000  0.4086510000000  0.4975420000000 1.0
C      1  0.4814190000000  0.4319490000000  0.5160390000000 1.0
C      1  0.5114960000000  0.4858300000000  0.5345500000000 1.0
C      1  0.5331190000000  0.4861700000000  0.4865350000000 1.0
C      1  0.5051860000000  0.4804550000000  0.4723940000000 1.0
C      1  0.4760350000000  0.4738000000000  0.4876340000000 1.0
C      1  0.4811170000000  0.4837200000000  0.5197730000000 1.0
C      1  0.5164040000000  0.5156190000000  0.5237630000000 1.0
C      1  0.5363450000000  0.5144860000000  0.4992630000000 1.0
C      1  0.4970970000000  0.5086920000000  0.4616230000000 1.0
C      1  0.4757740000000  0.5189640000000  0.4821250000000 1.0
C      1  0.4844390000000  0.5165310000000  0.5114700000000 1.0
C      1  0.5530240000000  0.4406180000000  0.4877510000000 1.0
C      1  0.4948040000000  0.4247520000000  0.4505380000000 1.0
C      1  0.4337850000000  0.4338900000000  0.4789490000000 1.0
C      1  0.4708500000000  0.4334220000000  0.5483300000000 1.0
C      1  0.5266830000000  0.4384010000000  0.5389180000000 1.0
C      1  0.5465250000000  0.5616620000000  0.4889620000000 1.0
C      1  0.5066000000000  0.5592790000000  0.4522970000000 1.0
C      1  0.4427400000000  0.5658470000000  0.4826240000000 1.0
C      1  0.4653080000000  0.5572650000000  0.5451330000000 1.0
C      1  0.5336900000000  0.5648360000000  0.5472690000000 1.0
C      1  0.5631920000000  0.4823920000000  0.4709390000000 1.0
C      1  0.4872300000000  0.4827330000000  0.4247310000000 1.0
C      1  0.4431210000000  0.4819150000000  0.4845280000000 1.0
C      1  0.4730450000000  0.4833320000000  0.5528130000000 1.0
C      1  0.5422400000000  0.4885650000000  0.5488090000000 1.0
C      1  0.5586500000000  0.5137600000000  0.4736050000000 1.0
C      1  0.4874330000000  0.5144520000000  0.4296040000000 1.0
C      1  0.4430010000000  0.5124770000000  0.4848900000000 1.0
C      1  0.4686720000000  0.5142220000000  0.5608230000000 1.0
C      1  0.5438200000000  0.5195660000000  0.5436110000000 1.0
C      1  0.5341550000000  0.4064790000000  0.5392410000000 1.0
C      1  0.5494070000000  0.4084790000000  0.4829820000000 1.0
C      1  0.5143540000000  0.4007370000000  0.4500330000000 1.0
C      1  0.4286300000000  0.4095760000000  0.4682150000000 1.0
C      1  0.4752470000000  0.4003580000000  0.5459490000000 1.0
C      1  0.5296670000000  0.5960040000000  0.5375060000000 1.0
C      1  0.5512400000000  0.5944020000000  0.4807910000000 1.0
C      1  0.5039390000000  0.5916430000000  0.4421940000000 1.0
C      1  0.4585780000000  0.5938310000000  0.4867390000000 1.0
C      1  0.4746630000000  0.5888100000000  0.5393570000000 1.0
C      1  0.4084130000000  0.5139670000000  0.5274090000000 1.0
C      1  0.5074850000000  0.5117670000000  0.5949590000000 1.0
C      1  0.5971240000000  0.5220360000000  0.5329600000000 1.0
C      1  0.5620520000000  0.5154640000000  0.4221670000000 1.0
C      1  0.4373790000000  0.5166700000000  0.4259400000000 1.0
C      1  0.4176700000000  0.4843510000000  0.5321360000000 1.0
C      1  0.5152410000000  0.4811570000000  0.6054450000000 1.0
C      1  0.5888970000000  0.4891090000000  0.5268520000000 1.0
C      1  0.5462880000000  0.4861030000000  0.4299650000000 1.0
C      1  0.4360200000000  0.4829280000000  0.4250390000000 1.0
C      1  0.4524770000000  0.4324550000000  0.5773540000000 1.0
C      1  0.5577010000000  0.4450760000000  0.5462080000000 1.0
C      1  0.5685900000000  0.4355600000000  0.4606890000000 1.0
C      1  0.4784110000000  0.4278550000000  0.4240440000000 1.0
C      1  0.4154830000000  0.4415590000000  0.5029840000000 1.0
C      1  0.4660850000000  0.5559850000000  0.5765670000000 1.0
C      1  0.5567710000000  0.5637890000000  0.5662590000000 1.0
C      1  0.5687860000000  0.5695240000000  0.4670900000000 1.0
C      1  0.4867970000000  0.5669220000000  0.4261270000000 1.0
C      1  0.4106880000000  0.5702090000000  0.4831400000000 1.0
C      1  0.5559120000000  0.4131260000000  0.5160360000000 1.0
C      1  0.5400330000000  0.4084110000000  0.4551990000000 1.0
C      1  0.4471130000000  0.4023130000000  0.4472480000000 1.0
C      1  0.4497410000000  0.4092860000000  0.5250960000000 1.0
C      1  0.5057320000000  0.4100490000000  0.5575590000000 1.0
C      1  0.5542940000000  0.5909810000000  0.5145630000000 1.0
C      1  0.5361800000000  0.5858870000000  0.4513770000000 1.0
C      1  0.4711510000000  0.5890400000000  0.4552760000000 1.0
C      1  0.4510180000000  0.5825980000000  0.5179380000000 1.0
C      1  0.5012480000000  0.5865160000000  0.5536360000000 1.0
C      1  0.5284770000000  0.4552090000000  0.5894390000000 1.0
C      1  0.5925780000000  0.4618260000000  0.5097600000000 1.0
C      1  0.5323850000000  0.4597290000000  0.4168110000000 1.0
C      1  0.4362770000000  0.4506980000000  0.4362450000000 1.0
C      1  0.4245900000000  0.4566650000000  0.5486410000000 1.0
C      1  0.5231090000000  0.5404720000000  0.5908520000000 1.0
C      1  0.5964910000000  0.5475890000000  0.5094930000000 1.0
C      1  0.5415570000000  0.5397930000000  0.4118120000000 1.0
C      1  0.4270360000000  0.5476120000000  0.4355350000000 1.0
C      1  0.4184620000000  0.5360310000000  0.5478100000000 1.0
C      1  0.5773450000000  0.5128580000000  0.5084500000000 1.0
C      1  0.4454810000000  0.4992650000000  0.5289850000000 1.0
C      1  0.5082020000000  0.4861840000000  0.5742990000000 1.0
C      1  0.5259540000000  0.5094940000000  0.4324910000000 1.0
C      1  0.4152700000000  0.4988370000000  0.4455140000000 1.0
C      1  0.5033020000000  0.6306090000000  0.4933600000000 1.0
C      1  0.4925750000000  0.3571770000000  0.4985110000000 1.0
C      1  0.4833970000000  0.3809930000000  0.4985460000000 1.0
C      1  0.5050480000000  0.6055490000000  0.4897730000000 1.0
END
