TITL C-2622955-8511-177 0.00245568331016156 125000 -646.796057108643 0 0 126 (C1) n - 1
REM
REM in /nfs/bkarasulu/CARBON/AIRSS/Generating-Clusters/AIREBO/with-SteepDescent/Higher-Symm/SD-CG/HFTN-CG
REM
REM
REM
REM
REM
REM ./C.cell (b20cbc046b6831c77cfcea5457e17084)
REM
REM compiler GCC version 9.2.1 20190827 (Red Hat 9.2.1-1)
REM options -cpp -mtune=generic -march=x86-64 -g -O0 -fpre-include=/usr/include/finclude/math-vector-fortran.h
REM seed -1584453984 -1505749673 -2023677804 -1632694139 -343090855 -1663466982 -1494361434 438643541 870334150 492380623 -991056570 -1566393044 -1768974054 432613368 1919093326 2088266765 -2081196543 929572572 -1081388499 1220478495 1836225050 -1030509274 -1056898535 992323187 355144750 -1824927675 1867460575 -1590656924 -988523604 325458319 1776704613 -823788220 1781326227
REM
CELL 1.54180   50.00000   50.00000   50.00000   90.00000   90.00000   90.00000
LATT -1
SFAC C  
C      1  0.5121440000000  0.4278180000000  0.4563890000000 1.0
C      1  0.4824010000000  0.5688750000000  0.4545070000000 1.0
C      1  0.5119900000000  0.4120170000000  0.5343510000000 1.0
C      1  0.4857490000000  0.5712320000000  0.5418590000000 1.0
C      1  0.4901720000000  0.4795150000000  0.4777240000000 1.0
C      1  0.5061260000000  0.5222630000000  0.4781300000000 1.0
C      1  0.4957500000000  0.4759920000000  0.5303930000000 1.0
C      1  0.5084940000000  0.5240700000000  0.5234270000000 1.0
C      1  0.5450730000000  0.4423960000000  0.5582920000000 1.0
C      1  0.4537200000000  0.5484000000000  0.5732180000000 1.0
C      1  0.5479670000000  0.4571940000000  0.4322950000000 1.0
C      1  0.4527710000000  0.5415840000000  0.4268680000000 1.0
C      1  0.4477650000000  0.5872750000000  0.4860410000000 1.0
C      1  0.5500110000000  0.4255800000000  0.4870300000000 1.0
C      1  0.4515300000000  0.5760800000000  0.5103560000000 1.0
C      1  0.5555480000000  0.4182440000000  0.5161800000000 1.0
C      1  0.4132700000000  0.4890840000000  0.4635920000000 1.0
C      1  0.5836120000000  0.5085600000000  0.4717780000000 1.0
C      1  0.4137100000000  0.4863600000000  0.5362820000000 1.0
C      1  0.5874560000000  0.5105300000000  0.5390290000000 1.0
C      1  0.5729040000000  0.5297380000000  0.5840260000000 1.0
C      1  0.4364210000000  0.4663930000000  0.5793460000000 1.0
C      1  0.5692310000000  0.5259920000000  0.4253150000000 1.0
C      1  0.4300420000000  0.4730220000000  0.4150290000000 1.0
C      1  0.4687350000000  0.4884900000000  0.5432260000000 1.0
C      1  0.5379170000000  0.5112280000000  0.5497510000000 1.0
C      1  0.4652900000000  0.4920380000000  0.4492050000000 1.0
C      1  0.5297720000000  0.5059760000000  0.4505160000000 1.0
C      1  0.4275210000000  0.5445390000000  0.5518920000000 1.0
C      1  0.5678100000000  0.4595080000000  0.5483360000000 1.0
C      1  0.4326910000000  0.5457380000000  0.4532090000000 1.0
C      1  0.5699050000000  0.4546180000000  0.4581490000000 1.0
C      1  0.5821160000000  0.5392470000000  0.4865150000000 1.0
C      1  0.4114960000000  0.4609170000000  0.4826390000000 1.0
C      1  0.5900750000000  0.5384020000000  0.5197120000000 1.0
C      1  0.4165740000000  0.4608370000000  0.5162970000000 1.0
C      1  0.5021180000000  0.4379550000000  0.4872620000000 1.0
C      1  0.4912820000000  0.5671830000000  0.4872890000000 1.0
C      1  0.4950830000000  0.4347630000000  0.5190750000000 1.0
C      1  0.5030820000000  0.5682740000000  0.5138190000000 1.0
C      1  0.4246840000000  0.5484170000000  0.5182250000000 1.0
C      1  0.5781080000000  0.4509690000000  0.5176140000000 1.0
C      1  0.4221120000000  0.5512830000000  0.4850670000000 1.0
C      1  0.5862720000000  0.4535020000000  0.4875340000000 1.0
C      1  0.4487500000000  0.4842780000000  0.5174690000000 1.0
C      1  0.5568430000000  0.5177610000000  0.5260640000000 1.0
C      1  0.4375270000000  0.4863910000000  0.4868800000000 1.0
C      1  0.5540890000000  0.5254190000000  0.4947700000000 1.0
C      1  0.5446740000000  0.4505060000000  0.5172280000000 1.0
C      1  0.4564650000000  0.5441890000000  0.5068820000000 1.0
C      1  0.5310860000000  0.4524200000000  0.4882450000000 1.0
C      1  0.4771130000000  0.5391650000000  0.4806210000000 1.0
C      1  0.5743650000000  0.4832470000000  0.4898640000000 1.0
C      1  0.4266450000000  0.5186140000000  0.4866960000000 1.0
C      1  0.5715950000000  0.4903920000000  0.5177480000000 1.0
C      1  0.4251840000000  0.5088810000000  0.5157630000000 1.0
C      1  0.4743110000000  0.5008820000000  0.4915850000000 1.0
C      1  0.5178370000000  0.4936900000000  0.4871530000000 1.0
C      1  0.4787860000000  0.5103770000000  0.5192210000000 1.0
C      1  0.5178150000000  0.4938770000000  0.5165430000000 1.0
C      1  0.4515610000000  0.5219140000000  0.5303910000000 1.0
C      1  0.5431040000000  0.4803790000000  0.5248320000000 1.0
C      1  0.4551710000000  0.5172970000000  0.4696000000000 1.0
C      1  0.5434990000000  0.4784080000000  0.4762360000000 1.0
C      1  0.5491070000000  0.4983500000000  0.4236000000000 1.0
C      1  0.4504020000000  0.5001400000000  0.4197250000000 1.0
C      1  0.5521390000000  0.5031600000000  0.5796920000000 1.0
C      1  0.4536810000000  0.4945640000000  0.5724670000000 1.0
C      1  0.4753710000000  0.5211220000000  0.4100990000000 1.0
C      1  0.5263290000000  0.4759210000000  0.4119970000000 1.0
C      1  0.4728560000000  0.5208650000000  0.5823400000000 1.0
C      1  0.5275250000000  0.4839190000000  0.5931160000000 1.0
C      1  0.5651110000000  0.4876530000000  0.4516350000000 1.0
C      1  0.4311970000000  0.5124760000000  0.4459580000000 1.0
C      1  0.5719260000000  0.4865500000000  0.5575410000000 1.0
C      1  0.4304580000000  0.5105150000000  0.5545310000000 1.0
C      1  0.5380880000000  0.4195060000000  0.5413720000000 1.0
C      1  0.4537040000000  0.5638950000000  0.5420760000000 1.0
C      1  0.5456160000000  0.4311380000000  0.4542780000000 1.0
C      1  0.4519560000000  0.5718250000000  0.4635010000000 1.0
C      1  0.5407770000000  0.5872420000000  0.4555710000000 1.0
C      1  0.4435610000000  0.4186610000000  0.4566750000000 1.0
C      1  0.5462700000000  0.5866440000000  0.5369280000000 1.0
C      1  0.4546730000000  0.4172730000000  0.5511530000000 1.0
C      1  0.5301180000000  0.5974990000000  0.5175620000000 1.0
C      1  0.4586750000000  0.4172500000000  0.5185560000000 1.0
C      1  0.5363440000000  0.5895430000000  0.4889100000000 1.0
C      1  0.4602050000000  0.4151450000000  0.4853930000000 1.0
C      1  0.4399030000000  0.4421380000000  0.4814130000000 1.0
C      1  0.5599200000000  0.5650650000000  0.4875180000000 1.0
C      1  0.4389330000000  0.4440770000000  0.5213110000000 1.0
C      1  0.5635860000000  0.5562050000000  0.5176130000000 1.0
C      1  0.5557020000000  0.5380110000000  0.5608200000000 1.0
C      1  0.4439150000000  0.4445250000000  0.5655700000000 1.0
C      1  0.5479570000000  0.5310620000000  0.4460110000000 1.0
C      1  0.4481290000000  0.4649540000000  0.4378850000000 1.0
C      1  0.4868880000000  0.5470810000000  0.5658080000000 1.0
C      1  0.5231070000000  0.4594420000000  0.5713860000000 1.0
C      1  0.4857390000000  0.5415850000000  0.4352060000000 1.0
C      1  0.5142410000000  0.4554550000000  0.4363250000000 1.0
C      1  0.4719850000000  0.4532680000000  0.4835780000000 1.0
C      1  0.5289950000000  0.5407580000000  0.4833370000000 1.0
C      1  0.4699470000000  0.4576330000000  0.5179870000000 1.0
C      1  0.5303070000000  0.5492650000000  0.5162480000000 1.0
C      1  0.5066170000000  0.4842330000000  0.4502370000000 1.0
C      1  0.4906580000000  0.5141950000000  0.4517430000000 1.0
C      1  0.5145860000000  0.4884580000000  0.5558170000000 1.0
C      1  0.4990580000000  0.5184510000000  0.5523970000000 1.0
C      1  0.4843740000000  0.4548430000000  0.4259550000000 1.0
C      1  0.5159420000000  0.5446330000000  0.4268800000000 1.0
C      1  0.4914740000000  0.4590240000000  0.5696550000000 1.0
C      1  0.5186890000000  0.5468010000000  0.5726390000000 1.0
C      1  0.4662110000000  0.4434860000000  0.4515040000000 1.0
C      1  0.5330290000000  0.5567180000000  0.4535450000000 1.0
C      1  0.4725160000000  0.4463580000000  0.5499790000000 1.0
C      1  0.5362880000000  0.5588740000000  0.5483270000000 1.0
C      1  0.5251330000000  0.5229450000000  0.5857130000000 1.0
C      1  0.4817590000000  0.4806960000000  0.5828090000000 1.0
C      1  0.5251140000000  0.5202640000000  0.4135480000000 1.0
C      1  0.4769540000000  0.4799470000000  0.4130480000000 1.0
C      1  0.4920120000000  0.4074390000000  0.4761680000000 1.0
C      1  0.5092850000000  0.5854310000000  0.4678220000000 1.0
C      1  0.4888370000000  0.4037130000000  0.5103480000000 1.0
C      1  0.5013970000000  0.5983790000000  0.5285100000000 1.0
C      1  0.4998860000000  0.5040280000000  0.5954020000000 1.0
C      1  0.5019130000000  0.4995200000000  0.4056300000000 1.0
END
