TITL C-2622964-2985-803 -0.00023684702206041 125000 -907.441909889676 0 0 181 (C1) n - 1
REM
REM in /nfs/bkarasulu/CARBON/AIRSS/Generating-Clusters/AIREBO/with-SteepDescent/Higher-Symm/SD-CG/HFTN-CG
REM
REM
REM
REM
REM
REM ./C.cell (b20cbc046b6831c77cfcea5457e17084)
REM
REM compiler GCC version 9.2.1 20190827 (Red Hat 9.2.1-1)
REM options -cpp -mtune=generic -march=x86-64 -g -O0 -fpre-include=/usr/include/finclude/math-vector-fortran.h
REM seed -902345821 -992928892 1468746205 275694916 756084515 539122752 118738307 1109425872 -1408366281 -170128208 -1565841879 -422054030 56895844 1973396985 399195452 -2075417000 381928658 2020994319 -57875538 -108777791 -1593387145 493573446 195614313 2054981180 1254866095 811431154 -1002428823 -1791467909 1512715245 412903732 -1262131772 1001155652 2078974734
REM
CELL 1.54180   50.00000   50.00000   50.00000   90.00000   90.00000   90.00000
LATT -1
SFAC C  
C      1  0.5612820000000  0.5462880000000  0.5609240000000 1.0
C      1  0.4375500000000  0.4552320000000  0.5609070000000 1.0
C      1  0.4385340000000  0.5494030000000  0.4281850000000 1.0
C      1  0.5707250000000  0.4475910000000  0.4443470000000 1.0
C      1  0.5954090000000  0.5258070000000  0.4464150000000 1.0
C      1  0.5562550000000  0.4791050000000  0.6038940000000 1.0
C      1  0.3957230000000  0.5212320000000  0.5550990000000 1.0
C      1  0.4497080000000  0.4819570000000  0.4100460000000 1.0
C      1  0.5403400000000  0.4881130000000  0.5348540000000 1.0
C      1  0.4651970000000  0.5170920000000  0.5343330000000 1.0
C      1  0.4751370000000  0.4832520000000  0.4723670000000 1.0
C      1  0.5270170000000  0.5105770000000  0.4711580000000 1.0
C      1  0.4551220000000  0.5047060000000  0.4855280000000 1.0
C      1  0.5024650000000  0.4935290000000  0.4548930000000 1.0
C      1  0.5389970000000  0.4890380000000  0.4949250000000 1.0
C      1  0.5131650000000  0.5049730000000  0.5381000000000 1.0
C      1  0.5885880000000  0.4547920000000  0.5278400000000 1.0
C      1  0.4754780000000  0.5477170000000  0.5862550000000 1.0
C      1  0.4136740000000  0.4493140000000  0.4822770000000 1.0
C      1  0.5219410000000  0.5507090000000  0.4067680000000 1.0
C      1  0.3930670000000  0.4508460000000  0.5297560000000 1.0
C      1  0.4738940000000  0.5378500000000  0.4042820000000 1.0
C      1  0.5953860000000  0.4649530000000  0.4767780000000 1.0
C      1  0.5268880000000  0.5366980000000  0.5872760000000 1.0
C      1  0.5770800000000  0.5111280000000  0.5707100000000 1.0
C      1  0.4248560000000  0.4918040000000  0.5687820000000 1.0
C      1  0.4362910000000  0.5106170000000  0.4372680000000 1.0
C      1  0.5617260000000  0.4908210000000  0.4364180000000 1.0
C      1  0.5296330000000  0.4021110000000  0.4789170000000 1.0
C      1  0.5112900000000  0.5981670000000  0.5360170000000 1.0
C      1  0.4675840000000  0.3933010000000  0.5173540000000 1.0
C      1  0.4843820000000  0.6000760000000  0.4673250000000 1.0
C      1  0.5572170000000  0.5257880000000  0.5878400000000 1.0
C      1  0.4076640000000  0.4690270000000  0.5504580000000 1.0
C      1  0.4435670000000  0.5226010000000  0.4062860000000 1.0
C      1  0.5909400000000  0.4757440000000  0.4451220000000 1.0
C      1  0.4749680000000  0.5701470000000  0.4542130000000 1.0
C      1  0.5437010000000  0.4314990000000  0.4691650000000 1.0
C      1  0.5138190000000  0.5641280000000  0.5387980000000 1.0
C      1  0.4634310000000  0.4254400000000  0.5276640000000 1.0
C      1  0.5581900000000  0.5971760000000  0.4990920000000 1.0
C      1  0.5091820000000  0.4013560000000  0.5587580000000 1.0
C      1  0.4420850000000  0.5991080000000  0.5023210000000 1.0
C      1  0.4918630000000  0.3971570000000  0.4402860000000 1.0
C      1  0.5408680000000  0.5934950000000  0.4769950000000 1.0
C      1  0.5302950000000  0.4030350000000  0.5404060000000 1.0
C      1  0.4582280000000  0.5935150000000  0.5244420000000 1.0
C      1  0.4696090000000  0.4028510000000  0.4567270000000 1.0
C      1  0.5610050000000  0.3961280000000  0.4758670000000 1.0
C      1  0.5127380000000  0.6059450000000  0.5679720000000 1.0
C      1  0.4373500000000  0.3952590000000  0.5256100000000 1.0
C      1  0.4828820000000  0.6046000000000  0.4356350000000 1.0
C      1  0.5769920000000  0.4935430000000  0.4780010000000 1.0
C      1  0.5221470000000  0.5041000000000  0.5788100000000 1.0
C      1  0.4267780000000  0.4955880000000  0.5227460000000 1.0
C      1  0.4776660000000  0.5084190000000  0.4209130000000 1.0
C      1  0.4427520000000  0.5515170000000  0.5136930000000 1.0
C      1  0.4863970000000  0.4457130000000  0.4457470000000 1.0
C      1  0.5521610000000  0.5518480000000  0.4912190000000 1.0
C      1  0.5126280000000  0.4516700000000  0.5435570000000 1.0
C      1  0.6065710000000  0.5211770000000  0.5569820000000 1.0
C      1  0.4428800000000  0.4798770000000  0.5950320000000 1.0
C      1  0.4037880000000  0.5205210000000  0.4357140000000 1.0
C      1  0.5586390000000  0.4743060000000  0.4068530000000 1.0
C      1  0.4914380000000  0.4683640000000  0.6018720000000 1.0
C      1  0.4000360000000  0.5303690000000  0.4817680000000 1.0
C      1  0.5137050000000  0.4699710000000  0.3958050000000 1.0
C      1  0.6075720000000  0.5274440000000  0.5088130000000 1.0
C      1  0.4396080000000  0.5129730000000  0.5888320000000 1.0
C      1  0.4116080000000  0.4885640000000  0.4450570000000 1.0
C      1  0.5504820000000  0.5075190000000  0.4090110000000 1.0
C      1  0.5995900000000  0.4888330000000  0.5602570000000 1.0
C      1  0.5011830000000  0.4978430000000  0.3906650000000 1.0
C      1  0.6096760000000  0.5000890000000  0.4992180000000 1.0
C      1  0.5023230000000  0.4968770000000  0.6107880000000 1.0
C      1  0.3948040000000  0.5044460000000  0.5006640000000 1.0
C      1  0.5822810000000  0.4829780000000  0.5098970000000 1.0
C      1  0.4919520000000  0.5179490000000  0.5861710000000 1.0
C      1  0.4184520000000  0.4812160000000  0.4930760000000 1.0
C      1  0.5091450000000  0.5202840000000  0.4149550000000 1.0
C      1  0.4956560000000  0.4336320000000  0.4897340000000 1.0
C      1  0.5240920000000  0.5636330000000  0.5063850000000 1.0
C      1  0.4961740000000  0.4320630000000  0.5211710000000 1.0
C      1  0.4913030000000  0.5546370000000  0.5065840000000 1.0
C      1  0.4863680000000  0.5841990000000  0.5179130000000 1.0
C      1  0.4751520000000  0.4071260000000  0.4872220000000 1.0
C      1  0.5098200000000  0.5849980000000  0.4841170000000 1.0
C      1  0.5204160000000  0.4107130000000  0.5105030000000 1.0
C      1  0.4972600000000  0.4591780000000  0.4746840000000 1.0
C      1  0.5380890000000  0.5224830000000  0.5010280000000 1.0
C      1  0.4960370000000  0.4778300000000  0.5295000000000 1.0
C      1  0.4674950000000  0.5300500000000  0.5045370000000 1.0
C      1  0.3974330000000  0.4985560000000  0.5366310000000 1.0
C      1  0.4653700000000  0.5020140000000  0.3898640000000 1.0
C      1  0.6068420000000  0.5004340000000  0.4632460000000 1.0
C      1  0.5377810000000  0.5040310000000  0.6068520000000 1.0
C      1  0.4859110000000  0.4326840000000  0.4080810000000 1.0
C      1  0.5924640000000  0.5702150000000  0.4863280000000 1.0
C      1  0.5232060000000  0.4289830000000  0.5837120000000 1.0
C      1  0.4078580000000  0.5704660000000  0.5091550000000 1.0
C      1  0.4600830000000  0.4248930000000  0.4148370000000 1.0
C      1  0.5817890000000  0.5773650000000  0.4621800000000 1.0
C      1  0.5458220000000  0.4285010000000  0.5679570000000 1.0
C      1  0.4137630000000  0.5799710000000  0.5345380000000 1.0
C      1  0.5132270000000  0.5767970000000  0.5702700000000 1.0
C      1  0.4296180000000  0.4230210000000  0.5230160000000 1.0
C      1  0.4824890000000  0.5789140000000  0.4221070000000 1.0
C      1  0.5720920000000  0.4222150000000  0.4861880000000 1.0
C      1  0.4830250000000  0.5511900000000  0.5451900000000 1.0
C      1  0.4563140000000  0.4342130000000  0.4954790000000 1.0
C      1  0.5083010000000  0.5609340000000  0.4601410000000 1.0
C      1  0.5366930000000  0.4395590000000  0.5014870000000 1.0
C      1  0.4296950000000  0.5033380000000  0.4698300000000 1.0
C      1  0.5279110000000  0.4991370000000  0.4330270000000 1.0
C      1  0.5778850000000  0.5015040000000  0.5373460000000 1.0
C      1  0.4680730000000  0.4979550000000  0.5796220000000 1.0
C      1  0.4190150000000  0.4601270000000  0.4504820000000 1.0
C      1  0.5528040000000  0.5373450000000  0.4126690000000 1.0
C      1  0.5839080000000  0.4626320000000  0.5591860000000 1.0
C      1  0.4413530000000  0.5428130000000  0.5879290000000 1.0
C      1  0.4913150000000  0.5586790000000  0.4065300000000 1.0
C      1  0.5938740000000  0.4437760000000  0.4968800000000 1.0
C      1  0.5070500000000  0.5556220000000  0.5873390000000 1.0
C      1  0.4095400000000  0.4384370000000  0.5118050000000 1.0
C      1  0.5436950000000  0.5660580000000  0.4279210000000 1.0
C      1  0.5707440000000  0.4294010000000  0.5194130000000 1.0
C      1  0.4537590000000  0.5710320000000  0.5742290000000 1.0
C      1  0.4239390000000  0.4288880000000  0.4565040000000 1.0
C      1  0.5398440000000  0.4357270000000  0.4356040000000 1.0
C      1  0.5802750000000  0.5553470000000  0.5390990000000 1.0
C      1  0.4639100000000  0.4359150000000  0.5601720000000 1.0
C      1  0.4410440000000  0.5684380000000  0.4562540000000 1.0
C      1  0.4235110000000  0.5273670000000  0.5271730000000 1.0
C      1  0.4816970000000  0.4770940000000  0.4335060000000 1.0
C      1  0.5694620000000  0.5265080000000  0.4765460000000 1.0
C      1  0.5230310000000  0.4734560000000  0.5676300000000 1.0
C      1  0.5941430000000  0.5419100000000  0.4892770000000 1.0
C      1  0.5135200000000  0.4552880000000  0.5908220000000 1.0
C      1  0.4035930000000  0.5425990000000  0.5082440000000 1.0
C      1  0.4888840000000  0.4603980000000  0.4058590000000 1.0
C      1  0.5087820000000  0.4241190000000  0.4317450000000 1.0
C      1  0.5716460000000  0.5692890000000  0.5129710000000 1.0
C      1  0.4951980000000  0.4313980000000  0.5645830000000 1.0
C      1  0.4331570000000  0.5715410000000  0.4874790000000 1.0
C      1  0.5553320000000  0.4713920000000  0.4631270000000 1.0
C      1  0.5340720000000  0.5382340000000  0.5479680000000 1.0
C      1  0.4443280000000  0.4826630000000  0.5435000000000 1.0
C      1  0.4632750000000  0.5307210000000  0.4421740000000 1.0
C      1  0.4202830000000  0.5415020000000  0.4567780000000 1.0
C      1  0.5365850000000  0.4565550000000  0.4085410000000 1.0
C      1  0.6028850000000  0.5376780000000  0.5352320000000 1.0
C      1  0.4646370000000  0.4586170000000  0.5855260000000 1.0
C      1  0.5128790000000  0.6110820000000  0.5062550000000 1.0
C      1  0.4968150000000  0.3856720000000  0.5130540000000 1.0
C      1  0.4813900000000  0.6100890000000  0.4964260000000 1.0
C      1  0.5030170000000  0.3878470000000  0.4827690000000 1.0
C      1  0.4968950000000  0.5358860000000  0.4425730000000 1.0
C      1  0.5585080000000  0.4630580000000  0.4959370000000 1.0
C      1  0.5026860000000  0.5299240000000  0.5562020000000 1.0
C      1  0.4472110000000  0.4667430000000  0.4991860000000 1.0
C      1  0.4483790000000  0.4724660000000  0.4385860000000 1.0
C      1  0.5641830000000  0.5340930000000  0.4438020000000 1.0
C      1  0.5548260000000  0.4663070000000  0.5774060000000 1.0
C      1  0.4224100000000  0.5352930000000  0.5606190000000 1.0
C      1  0.4447770000000  0.5711310000000  0.5414260000000 1.0
C      1  0.4566460000000  0.4292540000000  0.4471940000000 1.0
C      1  0.5505890000000  0.5675150000000  0.4610430000000 1.0
C      1  0.5409480000000  0.4348560000000  0.5348980000000 1.0
C      1  0.4666440000000  0.5431880000000  0.4731910000000 1.0
C      1  0.5257930000000  0.4598980000000  0.4637790000000 1.0
C      1  0.5501940000000  0.5178890000000  0.5302720000000 1.0
C      1  0.4727840000000  0.4916020000000  0.5501420000000 1.0
C      1  0.5335910000000  0.5381900000000  0.4582270000000 1.0
C      1  0.5539250000000  0.4646810000000  0.5443020000000 1.0
C      1  0.4536790000000  0.5395140000000  0.5502220000000 1.0
C      1  0.4549440000000  0.4562810000000  0.4677730000000 1.0
C      1  0.4679610000000  0.4845430000000  0.5114070000000 1.0
C      1  0.4888990000000  0.5203100000000  0.4708900000000 1.0
C      1  0.5100910000000  0.4790550000000  0.4985610000000 1.0
C      1  0.5096830000000  0.5280890000000  0.5163890000000 1.0
C      1  0.4917830000000  0.5064900000000  0.5010630000000 1.0
END
