TITL C-2622954-8726-369 0.00214523380828396 125000 -797.950097065607 0 0 144 (C1) n - 1
REM
REM in /nfs/bkarasulu/CARBON/AIRSS/Generating-Clusters/AIREBO/with-SteepDescent/Higher-Symm/SD-CG/HFTN-CG
REM
REM
REM
REM
REM
REM ./C.cell (b20cbc046b6831c77cfcea5457e17084)
REM
REM compiler GCC version 9.2.1 20190827 (Red Hat 9.2.1-1)
REM options -cpp -mtune=generic -march=x86-64 -g -O0 -fpre-include=/usr/include/finclude/math-vector-fortran.h
REM seed 1745252814 -236220915 564940430 -899853541 -1846109927 131993581 654931759 405987867 1842322149 633425074 1522969804 -580476161 -1953424879 1381532992 -186535739 883589276 -1900632649 -445138142 1636755817 -1776348852 2136667544 -148350734 -1783770798 -438306149 -952408782 -806981888 572466539 972718881 438158543 1162137704 576277815 847662073 -1990944576
REM
CELL 1.54180   50.00000   50.00000   50.00000   90.00000   90.00000   90.00000
LATT -1
SFAC C  
C      1  0.4716880000000  0.4393020000000  0.5365550000000 1.0
C      1  0.4766260000000  0.4584320000000  0.4425470000000 1.0
C      1  0.4857030000000  0.5534700000000  0.4720420000000 1.0
C      1  0.4833350000000  0.5270310000000  0.5547560000000 1.0
C      1  0.5263720000000  0.4545280000000  0.5290150000000 1.0
C      1  0.5277910000000  0.4590120000000  0.4373440000000 1.0
C      1  0.5284920000000  0.5759130000000  0.4676510000000 1.0
C      1  0.5153860000000  0.5232380000000  0.5438460000000 1.0
C      1  0.3906340000000  0.5303980000000  0.4705860000000 1.0
C      1  0.4053960000000  0.5599420000000  0.5465320000000 1.0
C      1  0.3891220000000  0.4663880000000  0.5277400000000 1.0
C      1  0.3912010000000  0.4770770000000  0.4652420000000 1.0
C      1  0.6045350000000  0.5320510000000  0.4639640000000 1.0
C      1  0.6010350000000  0.5310530000000  0.5166540000000 1.0
C      1  0.6021870000000  0.4821850000000  0.5261300000000 1.0
C      1  0.6131800000000  0.4873220000000  0.4744940000000 1.0
C      1  0.5552150000000  0.5317660000000  0.4516940000000 1.0
C      1  0.5614230000000  0.5524020000000  0.5351620000000 1.0
C      1  0.5580360000000  0.4700120000000  0.5476790000000 1.0
C      1  0.5716010000000  0.4548640000000  0.4708980000000 1.0
C      1  0.4409320000000  0.5293050000000  0.4445770000000 1.0
C      1  0.4196310000000  0.5594020000000  0.5178980000000 1.0
C      1  0.4297370000000  0.4593670000000  0.5593580000000 1.0
C      1  0.4378190000000  0.4539480000000  0.4806170000000 1.0
C      1  0.4463620000000  0.5792070000000  0.5122740000000 1.0
C      1  0.4321470000000  0.4873030000000  0.5723360000000 1.0
C      1  0.4353350000000  0.4206550000000  0.4870830000000 1.0
C      1  0.4407040000000  0.5050370000000  0.4240770000000 1.0
C      1  0.5654940000000  0.5748880000000  0.5140550000000 1.0
C      1  0.5576960000000  0.4802560000000  0.5800980000000 1.0
C      1  0.5627050000000  0.4249960000000  0.4845770000000 1.0
C      1  0.5591820000000  0.5169880000000  0.4213280000000 1.0
C      1  0.5933310000000  0.5077300000000  0.5389540000000 1.0
C      1  0.5988660000000  0.4841590000000  0.4982980000000 1.0
C      1  0.6026810000000  0.5053760000000  0.4554460000000 1.0
C      1  0.5969090000000  0.5416190000000  0.4922310000000 1.0
C      1  0.4183030000000  0.5269640000000  0.5279980000000 1.0
C      1  0.4011560000000  0.4812420000000  0.5086760000000 1.0
C      1  0.3933850000000  0.5004790000000  0.4858780000000 1.0
C      1  0.4114520000000  0.5272150000000  0.4959950000000 1.0
C      1  0.5413350000000  0.4504200000000  0.5774430000000 1.0
C      1  0.5439770000000  0.4194200000000  0.4576810000000 1.0
C      1  0.5392700000000  0.5443190000000  0.4175260000000 1.0
C      1  0.5210490000000  0.5787330000000  0.5692590000000 1.0
C      1  0.4520630000000  0.4419150000000  0.5734030000000 1.0
C      1  0.4533940000000  0.4189030000000  0.4583080000000 1.0
C      1  0.4722290000000  0.5648410000000  0.4254580000000 1.0
C      1  0.4568540000000  0.5734920000000  0.5409780000000 1.0
C      1  0.4902770000000  0.4835550000000  0.5235220000000 1.0
C      1  0.4800210000000  0.4776380000000  0.4964930000000 1.0
C      1  0.4790790000000  0.5054540000000  0.4783180000000 1.0
C      1  0.4892160000000  0.5321150000000  0.4953330000000 1.0
C      1  0.5216190000000  0.4870200000000  0.5201950000000 1.0
C      1  0.5193590000000  0.4771130000000  0.4896430000000 1.0
C      1  0.5087660000000  0.4962400000000  0.4714830000000 1.0
C      1  0.5169460000000  0.5309450000000  0.5103330000000 1.0
C      1  0.4551900000000  0.5423980000000  0.4715400000000 1.0
C      1  0.4589120000000  0.5087220000000  0.5517960000000 1.0
C      1  0.4444150000000  0.4529770000000  0.5297550000000 1.0
C      1  0.4536400000000  0.4727630000000  0.4571190000000 1.0
C      1  0.5465740000000  0.5529500000000  0.4742540000000 1.0
C      1  0.5478610000000  0.5213400000000  0.5379740000000 1.0
C      1  0.5538540000000  0.4638590000000  0.5160630000000 1.0
C      1  0.5532630000000  0.4725650000000  0.4483890000000 1.0
C      1  0.4532660000000  0.4898030000000  0.5905130000000 1.0
C      1  0.4596720000000  0.4045470000000  0.4990090000000 1.0
C      1  0.4657810000000  0.5015590000000  0.4106040000000 1.0
C      1  0.4678050000000  0.5940030000000  0.4931690000000 1.0
C      1  0.5311450000000  0.4890130000000  0.5954430000000 1.0
C      1  0.5364430000000  0.4088140000000  0.4954630000000 1.0
C      1  0.5308890000000  0.5054120000000  0.4088570000000 1.0
C      1  0.5469430000000  0.5955340000000  0.5123180000000 1.0
C      1  0.4146140000000  0.4658660000000  0.4577000000000 1.0
C      1  0.4171170000000  0.5461930000000  0.4612930000000 1.0
C      1  0.4094020000000  0.5420750000000  0.5638930000000 1.0
C      1  0.4063510000000  0.4463540000000  0.5383420000000 1.0
C      1  0.5919540000000  0.4662710000000  0.4479990000000 1.0
C      1  0.5819480000000  0.5505830000000  0.4565970000000 1.0
C      1  0.5816260000000  0.5362130000000  0.5529750000000 1.0
C      1  0.5880360000000  0.4592610000000  0.5353040000000 1.0
C      1  0.5755320000000  0.4412780000000  0.5092940000000 1.0
C      1  0.5765460000000  0.4947050000000  0.4372600000000 1.0
C      1  0.5726470000000  0.5624050000000  0.4882800000000 1.0
C      1  0.5676630000000  0.5061620000000  0.5612020000000 1.0
C      1  0.4222240000000  0.4340830000000  0.5132170000000 1.0
C      1  0.4312030000000  0.4818460000000  0.4366130000000 1.0
C      1  0.4323590000000  0.5611230000000  0.4870080000000 1.0
C      1  0.4261910000000  0.5150010000000  0.5588660000000 1.0
C      1  0.5682480000000  0.4813460000000  0.4925150000000 1.0
C      1  0.5485260000000  0.4971390000000  0.4704870000000 1.0
C      1  0.5381940000000  0.5249650000000  0.4870780000000 1.0
C      1  0.5487720000000  0.5047840000000  0.5107860000000 1.0
C      1  0.4332800000000  0.4759490000000  0.5072050000000 1.0
C      1  0.4471110000000  0.4945490000000  0.4823240000000 1.0
C      1  0.4453260000000  0.5247740000000  0.4986500000000 1.0
C      1  0.4423310000000  0.5031340000000  0.5247040000000 1.0
C      1  0.5304700000000  0.5554600000000  0.5266140000000 1.0
C      1  0.5285720000000  0.4859830000000  0.5535850000000 1.0
C      1  0.5206230000000  0.4496380000000  0.4879340000000 1.0
C      1  0.5277170000000  0.5120820000000  0.4481120000000 1.0
C      1  0.4692340000000  0.5404950000000  0.5170220000000 1.0
C      1  0.4760700000000  0.4821420000000  0.5483130000000 1.0
C      1  0.4707900000000  0.4513070000000  0.4884980000000 1.0
C      1  0.4713970000000  0.5145410000000  0.4478800000000 1.0
C      1  0.4831350000000  0.4914960000000  0.5785260000000 1.0
C      1  0.4839080000000  0.4266780000000  0.5079240000000 1.0
C      1  0.4848410000000  0.4872690000000  0.4322860000000 1.0
C      1  0.4910260000000  0.5830300000000  0.4792110000000 1.0
C      1  0.5126310000000  0.5079330000000  0.5740970000000 1.0
C      1  0.5173480000000  0.4281620000000  0.5139420000000 1.0
C      1  0.5158560000000  0.4860640000000  0.4297130000000 1.0
C      1  0.5201650000000  0.5904440000000  0.4947050000000 1.0
C      1  0.5172690000000  0.4379520000000  0.4609070000000 1.0
C      1  0.5114380000000  0.5337750000000  0.4290220000000 1.0
C      1  0.5101940000000  0.5731760000000  0.5402800000000 1.0
C      1  0.5149390000000  0.4554220000000  0.5585390000000 1.0
C      1  0.4840990000000  0.4326250000000  0.4634000000000 1.0
C      1  0.4860400000000  0.5419510000000  0.4416220000000 1.0
C      1  0.4843190000000  0.5569350000000  0.5398930000000 1.0
C      1  0.4828660000000  0.4537910000000  0.5652340000000 1.0
C      1  0.5235040000000  0.5587610000000  0.5881200000000 1.0
C      1  0.5373470000000  0.4230760000000  0.5648550000000 1.0
C      1  0.5332670000000  0.4134960000000  0.4314810000000 1.0
C      1  0.5418330000000  0.5711220000000  0.4185100000000 1.0
C      1  0.4613730000000  0.5701050000000  0.5698340000000 1.0
C      1  0.4668180000000  0.4170510000000  0.5718990000000 1.0
C      1  0.4655030000000  0.4158090000000  0.4317660000000 1.0
C      1  0.4805790000000  0.5885510000000  0.4290080000000 1.0
C      1  0.5044720000000  0.5380360000000  0.5868480000000 1.0
C      1  0.5164210000000  0.4162390000000  0.5457790000000 1.0
C      1  0.5146230000000  0.4337430000000  0.4213330000000 1.0
C      1  0.5317140000000  0.5871490000000  0.4377010000000 1.0
C      1  0.4779500000000  0.5487380000000  0.5784480000000 1.0
C      1  0.4898920000000  0.4162990000000  0.5533540000000 1.0
C      1  0.4868580000000  0.4342060000000  0.4236190000000 1.0
C      1  0.5018690000000  0.5930720000000  0.4499050000000 1.0
C      1  0.5152990000000  0.4707300000000  0.6085610000000 1.0
C      1  0.5176900000000  0.3922910000000  0.4825130000000 1.0
C      1  0.5079310000000  0.5226210000000  0.3981350000000 1.0
C      1  0.5081120000000  0.5978430000000  0.5229460000000 1.0
C      1  0.4917170000000  0.4657110000000  0.5959510000000 1.0
C      1  0.4894960000000  0.4047840000000  0.4825060000000 1.0
C      1  0.4818300000000  0.5143410000000  0.3910480000000 1.0
C      1  0.4978530000000  0.6209150000000  0.5290990000000 1.0
END
