TITL C-2622958-629-366 -0.00245299399945263 125000 -472.90020090195 0 0 83 (C1) n - 1
REM
REM in /nfs/bkarasulu/CARBON/AIRSS/Generating-Clusters/AIREBO/with-SteepDescent/Higher-Symm/SD-CG/HFTN-CG
REM
REM
REM
REM
REM
REM ./C.cell (b20cbc046b6831c77cfcea5457e17084)
REM
REM compiler GCC version 9.2.1 20190827 (Red Hat 9.2.1-1)
REM options -cpp -mtune=generic -march=x86-64 -g -O0 -fpre-include=/usr/include/finclude/math-vector-fortran.h
REM seed 1597549843 -599467116 -1096672033 1368848136 -794964409 270689726 719271869 -391777443 -2135065605 404193334 2126483989 -1048045322 -1343638608 -806989669 -1059635775 634159991 -1177480616 -1970775482 927296599 1794872208 -2046605854 1038876420 -1772118089 -166253874 -62407937 1148549633 -1376982509 -139760816 -2061231298 1272068669 956202381 -1167153990 948069148
REM
CELL 1.54180   50.00000   50.00000   50.00000   90.00000   90.00000   90.00000
LATT -1
SFAC C  
C      1  0.4712260000000  0.5636820000000  0.4464030000000 1.0
C      1  0.5358140000000  0.4409910000000  0.4504090000000 1.0
C      1  0.4908280000000  0.4888270000000  0.4718250000000 1.0
C      1  0.5033390000000  0.5172830000000  0.4840290000000 1.0
C      1  0.4520030000000  0.4349790000000  0.5082990000000 1.0
C      1  0.5590420000000  0.5748620000000  0.5109890000000 1.0
C      1  0.4458780000000  0.5393110000000  0.4916740000000 1.0
C      1  0.5796170000000  0.4585540000000  0.4965680000000 1.0
C      1  0.4813960000000  0.5311460000000  0.5676540000000 1.0
C      1  0.5233710000000  0.4718000000000  0.5776980000000 1.0
C      1  0.4613370000000  0.5187450000000  0.5110700000000 1.0
C      1  0.5298320000000  0.4598650000000  0.5064860000000 1.0
C      1  0.4308590000000  0.4476820000000  0.5251100000000 1.0
C      1  0.5640880000000  0.5483980000000  0.5154440000000 1.0
C      1  0.5084650000000  0.4866290000000  0.4362950000000 1.0
C      1  0.4955490000000  0.5146060000000  0.4388670000000 1.0
C      1  0.5443100000000  0.5179640000000  0.5358120000000 1.0
C      1  0.4551570000000  0.4851840000000  0.5503200000000 1.0
C      1  0.5283370000000  0.4811150000000  0.4610290000000 1.0
C      1  0.4705260000000  0.5144650000000  0.4619560000000 1.0
C      1  0.5640270000000  0.4448660000000  0.4524120000000 1.0
C      1  0.4436240000000  0.5579270000000  0.4454500000000 1.0
C      1  0.5120350000000  0.5892860000000  0.4820910000000 1.0
C      1  0.4926790000000  0.4220220000000  0.4701080000000 1.0
C      1  0.4629360000000  0.5742040000000  0.5007720000000 1.0
C      1  0.5409990000000  0.4279900000000  0.5025490000000 1.0
C      1  0.5740310000000  0.4818070000000  0.5204610000000 1.0
C      1  0.4198860000000  0.4963840000000  0.5194340000000 1.0
C      1  0.5302270000000  0.4297550000000  0.5322920000000 1.0
C      1  0.4709650000000  0.5602660000000  0.5229310000000 1.0
C      1  0.4881500000000  0.5247180000000  0.5288740000000 1.0
C      1  0.5134000000000  0.4749560000000  0.5259710000000 1.0
C      1  0.5734520000000  0.5163280000000  0.5221110000000 1.0
C      1  0.4287900000000  0.4742330000000  0.5350980000000 1.0
C      1  0.5173530000000  0.5407620000000  0.4415170000000 1.0
C      1  0.4811640000000  0.4688500000000  0.4460190000000 1.0
C      1  0.4395090000000  0.5072090000000  0.4688840000000 1.0
C      1  0.5554950000000  0.4891930000000  0.4676190000000 1.0
C      1  0.4841630000000  0.4347860000000  0.4472320000000 1.0
C      1  0.5202210000000  0.5612180000000  0.4671700000000 1.0
C      1  0.4975070000000  0.4860030000000  0.5733260000000 1.0
C      1  0.5016850000000  0.5102110000000  0.5556720000000 1.0
C      1  0.4831560000000  0.5734180000000  0.4755100000000 1.0
C      1  0.5221210000000  0.4298870000000  0.4779150000000 1.0
C      1  0.5363520000000  0.5823970000000  0.4969420000000 1.0
C      1  0.4724080000000  0.4194680000000  0.4923090000000 1.0
C      1  0.5010950000000  0.5520610000000  0.5222150000000 1.0
C      1  0.5018350000000  0.4444810000000  0.5304440000000 1.0
C      1  0.4404660000000  0.4750690000000  0.4753570000000 1.0
C      1  0.5572390000000  0.5208690000000  0.4702910000000 1.0
C      1  0.4565080000000  0.4389660000000  0.4364180000000 1.0
C      1  0.5469970000000  0.5669850000000  0.4470080000000 1.0
C      1  0.4187410000000  0.4938120000000  0.4919250000000 1.0
C      1  0.5730360000000  0.5020100000000  0.4931460000000 1.0
C      1  0.5297740000000  0.4908100000000  0.5502350000000 1.0
C      1  0.4540250000000  0.5179440000000  0.5593970000000 1.0
C      1  0.4543860000000  0.5456180000000  0.5396340000000 1.0
C      1  0.5489810000000  0.4439210000000  0.5473590000000 1.0
C      1  0.5217720000000  0.5114370000000  0.5120650000000 1.0
C      1  0.4632920000000  0.4868680000000  0.5195570000000 1.0
C      1  0.4761530000000  0.4693470000000  0.5650440000000 1.0
C      1  0.5386360000000  0.5450710000000  0.5507360000000 1.0
C      1  0.4587200000000  0.4654830000000  0.4986170000000 1.0
C      1  0.5451460000000  0.5305380000000  0.4977610000000 1.0
C      1  0.5131740000000  0.4440500000000  0.5767440000000 1.0
C      1  0.4946650000000  0.5552290000000  0.5693390000000 1.0
C      1  0.4872400000000  0.5465990000000  0.4310740000000 1.0
C      1  0.5200150000000  0.4548790000000  0.4323190000000 1.0
C      1  0.5489910000000  0.5362720000000  0.4473500000000 1.0
C      1  0.4484890000000  0.4635620000000  0.4493910000000 1.0
C      1  0.4343240000000  0.5710820000000  0.4953020000000 1.0
C      1  0.5720660000000  0.4327780000000  0.5027830000000 1.0
C      1  0.4350280000000  0.5381050000000  0.4611770000000 1.0
C      1  0.5736130000000  0.4650940000000  0.4700680000000 1.0
C      1  0.5555620000000  0.4702600000000  0.5425420000000 1.0
C      1  0.4327770000000  0.5214780000000  0.5293150000000 1.0
C      1  0.4895410000000  0.4444500000000  0.5585240000000 1.0
C      1  0.5146050000000  0.5580740000000  0.5487780000000 1.0
C      1  0.5157250000000  0.5468560000000  0.4953520000000 1.0
C      1  0.4883640000000  0.4485780000000  0.4996620000000 1.0
C      1  0.4785220000000  0.5404640000000  0.4822380000000 1.0
C      1  0.5077870000000  0.4594260000000  0.4739210000000 1.0
C      1  0.4930980000000  0.4950880000000  0.5154690000000 1.0
END
