TITL C-2622968-4806-421 0.000698345249629659 125000 -996.376287597884 0 0 182 (C1) n - 1
REM
REM in /nfs/bkarasulu/CARBON/AIRSS/Generating-Clusters/AIREBO/with-SteepDescent/Higher-Symm/SD-CG/HFTN-CG
REM
REM
REM
REM
REM
REM ./C.cell (b20cbc046b6831c77cfcea5457e17084)
REM
REM compiler GCC version 9.2.1 20190827 (Red Hat 9.2.1-1)
REM options -cpp -mtune=generic -march=x86-64 -g -O0 -fpre-include=/usr/include/finclude/math-vector-fortran.h
REM seed -191459828 -407724931 -2004717858 1128940835 -1961345128 1476466806 1476753312 1885921333 -566393409 124367580 42337509 1138905717 1585076140 69597773 -1221224764 272797241 -426954270 704219828 -753274528 -1702619531 1745667502 -604197875 1345939412 988742813 -224051236 -154217516 1243102399 1744404346 173271413 659463901 281648604 -436198605 -202283755
REM
CELL 1.54180   50.00000   50.00000   50.00000   90.00000   90.00000   90.00000
LATT -1
SFAC C  
C      1  0.4719240000000  0.4581860000000  0.4160540000000 1.0
C      1  0.4580220000000  0.5437670000000  0.5857290000000 1.0
C      1  0.5085680000000  0.4851910000000  0.4428210000000 1.0
C      1  0.5149750000000  0.5082410000000  0.5644720000000 1.0
C      1  0.5296670000000  0.5312060000000  0.5846670000000 1.0
C      1  0.5364270000000  0.4580990000000  0.4091830000000 1.0
C      1  0.4691090000000  0.6071130000000  0.5145580000000 1.0
C      1  0.4635870000000  0.3907550000000  0.4891780000000 1.0
C      1  0.5425610000000  0.4448960000000  0.5577470000000 1.0
C      1  0.5372950000000  0.5563450000000  0.4399830000000 1.0
C      1  0.4447940000000  0.5686520000000  0.4942560000000 1.0
C      1  0.4485210000000  0.4299970000000  0.5126830000000 1.0
C      1  0.5395200000000  0.4130100000000  0.5598680000000 1.0
C      1  0.5268200000000  0.5855060000000  0.4286890000000 1.0
C      1  0.4599730000000  0.5410320000000  0.4813910000000 1.0
C      1  0.4578400000000  0.4609270000000  0.5234110000000 1.0
C      1  0.4688310000000  0.5207670000000  0.4336980000000 1.0
C      1  0.4687130000000  0.4805420000000  0.5670660000000 1.0
C      1  0.5957030000000  0.5492360000000  0.5432810000000 1.0
C      1  0.5953890000000  0.4443400000000  0.4627160000000 1.0
C      1  0.5869860000000  0.4417820000000  0.5629310000000 1.0
C      1  0.5909460000000  0.5649940000000  0.4344240000000 1.0
C      1  0.4828340000000  0.4914700000000  0.4888780000000 1.0
C      1  0.4820890000000  0.5137110000000  0.5145940000000 1.0
C      1  0.5325930000000  0.4759020000000  0.3881600000000 1.0
C      1  0.5263900000000  0.5218470000000  0.6165780000000 1.0
C      1  0.4653070000000  0.5117600000000  0.4010620000000 1.0
C      1  0.4618770000000  0.4868230000000  0.5979320000000 1.0
C      1  0.4151880000000  0.5300230000000  0.4608920000000 1.0
C      1  0.4072650000000  0.4871460000000  0.5459670000000 1.0
C      1  0.5836410000000  0.5374550000000  0.4292660000000 1.0
C      1  0.5825620000000  0.4679690000000  0.5711320000000 1.0
C      1  0.3968740000000  0.5130200000000  0.4748010000000 1.0
C      1  0.4062650000000  0.4997400000000  0.5167680000000 1.0
C      1  0.5586350000000  0.5878730000000  0.5375320000000 1.0
C      1  0.5585840000000  0.4042020000000  0.4578910000000 1.0
C      1  0.4520160000000  0.5537970000000  0.4171230000000 1.0
C      1  0.4479450000000  0.4515990000000  0.5859090000000 1.0
C      1  0.4473820000000  0.5931960000000  0.4541620000000 1.0
C      1  0.4507080000000  0.4121300000000  0.5489620000000 1.0
C      1  0.4181460000000  0.5476480000000  0.4966010000000 1.0
C      1  0.4202510000000  0.4579570000000  0.5101130000000 1.0
C      1  0.5920500000000  0.4870370000000  0.5517230000000 1.0
C      1  0.5894400000000  0.5199030000000  0.4507700000000 1.0
C      1  0.5332750000000  0.3994900000000  0.4884520000000 1.0
C      1  0.5328480000000  0.5952000000000  0.5079730000000 1.0
C      1  0.3844150000000  0.5192830000000  0.5307400000000 1.0
C      1  0.4084820000000  0.4829520000000  0.4639410000000 1.0
C      1  0.4899860000000  0.4910020000000  0.6043580000000 1.0
C      1  0.4930050000000  0.5124520000000  0.3906910000000 1.0
C      1  0.5752930000000  0.5832060000000  0.4765410000000 1.0
C      1  0.5783930000000  0.4159220000000  0.5175680000000 1.0
C      1  0.5107640000000  0.6171960000000  0.4943410000000 1.0
C      1  0.5140910000000  0.3779210000000  0.5064480000000 1.0
C      1  0.5136930000000  0.4615700000000  0.4653110000000 1.0
C      1  0.5117980000000  0.5288300000000  0.5375850000000 1.0
C      1  0.5545430000000  0.4633960000000  0.5244040000000 1.0
C      1  0.5515040000000  0.5344030000000  0.4739550000000 1.0
C      1  0.5489520000000  0.4283150000000  0.4788850000000 1.0
C      1  0.5529980000000  0.5675560000000  0.5122060000000 1.0
C      1  0.5608370000000  0.5266780000000  0.5738890000000 1.0
C      1  0.5560060000000  0.4692980000000  0.4326200000000 1.0
C      1  0.3893100000000  0.5204160000000  0.5579350000000 1.0
C      1  0.4140590000000  0.4825110000000  0.4346380000000 1.0
C      1  0.4963160000000  0.3855120000000  0.5267290000000 1.0
C      1  0.4914720000000  0.6118220000000  0.4743640000000 1.0
C      1  0.4923710000000  0.4290750000000  0.5530740000000 1.0
C      1  0.4901210000000  0.5672270000000  0.4460980000000 1.0
C      1  0.4770310000000  0.4291460000000  0.4232580000000 1.0
C      1  0.4783780000000  0.5707340000000  0.5818390000000 1.0
C      1  0.4993060000000  0.5160320000000  0.6083480000000 1.0
C      1  0.5075220000000  0.4898980000000  0.3914190000000 1.0
C      1  0.5017550000000  0.4786710000000  0.5748710000000 1.0
C      1  0.4952170000000  0.5322950000000  0.4172350000000 1.0
C      1  0.5204250000000  0.4284690000000  0.5146870000000 1.0
C      1  0.5172680000000  0.5681380000000  0.4753440000000 1.0
C      1  0.5875060000000  0.5182000000000  0.5545660000000 1.0
C      1  0.5794780000000  0.4908990000000  0.4444110000000 1.0
C      1  0.4802640000000  0.5675430000000  0.4060170000000 1.0
C      1  0.4775700000000  0.4404620000000  0.5983390000000 1.0
C      1  0.5825910000000  0.5332210000000  0.4813360000000 1.0
C      1  0.5858510000000  0.4713890000000  0.5221710000000 1.0
C      1  0.5821330000000  0.5499860000000  0.5112060000000 1.0
C      1  0.5945380000000  0.4563960000000  0.4944980000000 1.0
C      1  0.5681970000000  0.4352460000000  0.5375810000000 1.0
C      1  0.5659620000000  0.5601240000000  0.4569730000000 1.0
C      1  0.5720150000000  0.5222870000000  0.5269370000000 1.0
C      1  0.5774700000000  0.4764650000000  0.4729660000000 1.0
C      1  0.5456130000000  0.4727180000000  0.4745880000000 1.0
C      1  0.5428110000000  0.5173960000000  0.5296110000000 1.0
C      1  0.5529630000000  0.5996360000000  0.4809150000000 1.0
C      1  0.5582660000000  0.3976770000000  0.5114470000000 1.0
C      1  0.4608580000000  0.5388240000000  0.5153120000000 1.0
C      1  0.4636910000000  0.4646610000000  0.4919030000000 1.0
C      1  0.5114970000000  0.4561120000000  0.5496240000000 1.0
C      1  0.5091190000000  0.5390550000000  0.4475240000000 1.0
C      1  0.4304550000000  0.5235800000000  0.5144750000000 1.0
C      1  0.4330510000000  0.4665960000000  0.4797040000000 1.0
C      1  0.4319900000000  0.4814420000000  0.5909530000000 1.0
C      1  0.4426680000000  0.5314420000000  0.4054230000000 1.0
C      1  0.4903930000000  0.4287280000000  0.5191260000000 1.0
C      1  0.4866220000000  0.5706730000000  0.4786810000000 1.0
C      1  0.5339520000000  0.4049460000000  0.5281740000000 1.0
C      1  0.5334550000000  0.5900860000000  0.4610610000000 1.0
C      1  0.4813790000000  0.4531860000000  0.4587950000000 1.0
C      1  0.4821360000000  0.5334770000000  0.5535440000000 1.0
C      1  0.5382690000000  0.5042010000000  0.4804000000000 1.0
C      1  0.5378670000000  0.4899970000000  0.5113260000000 1.0
C      1  0.5990080000000  0.4259620000000  0.5031530000000 1.0
C      1  0.5936070000000  0.5765550000000  0.4956510000000 1.0
C      1  0.5874850000000  0.5000750000000  0.5138810000000 1.0
C      1  0.5880630000000  0.5031320000000  0.4868200000000 1.0
C      1  0.4326900000000  0.5074670000000  0.4237270000000 1.0
C      1  0.4156180000000  0.5045200000000  0.5728300000000 1.0
C      1  0.5351180000000  0.4520950000000  0.4988840000000 1.0
C      1  0.5327310000000  0.5497560000000  0.4937190000000 1.0
C      1  0.5537590000000  0.4194040000000  0.4325740000000 1.0
C      1  0.5567890000000  0.5748120000000  0.5622920000000 1.0
C      1  0.5507400000000  0.5032990000000  0.4319650000000 1.0
C      1  0.5529300000000  0.4985740000000  0.5585690000000 1.0
C      1  0.4633130000000  0.5949920000000  0.4833200000000 1.0
C      1  0.4679580000000  0.4032180000000  0.5205190000000 1.0
C      1  0.4543800000000  0.4941000000000  0.5166200000000 1.0
C      1  0.4530690000000  0.5080030000000  0.4855900000000 1.0
C      1  0.4161820000000  0.5585860000000  0.4660900000000 1.0
C      1  0.4196920000000  0.4608470000000  0.5414630000000 1.0
C      1  0.5075100000000  0.4403650000000  0.4123920000000 1.0
C      1  0.5100300000000  0.5589510000000  0.5879490000000 1.0
C      1  0.4285470000000  0.4306870000000  0.5380330000000 1.0
C      1  0.4219460000000  0.5837270000000  0.4566560000000 1.0
C      1  0.5514030000000  0.4703480000000  0.5761600000000 1.0
C      1  0.5541650000000  0.5341220000000  0.4205520000000 1.0
C      1  0.4845810000000  0.5029950000000  0.4569270000000 1.0
C      1  0.4844670000000  0.4950470000000  0.5427820000000 1.0
C      1  0.5090820000000  0.4021250000000  0.5507620000000 1.0
C      1  0.5036790000000  0.5970000000000  0.4512200000000 1.0
C      1  0.5477050000000  0.3784760000000  0.4659480000000 1.0
C      1  0.5486650000000  0.6145710000000  0.5310140000000 1.0
C      1  0.5061480000000  0.4698340000000  0.4974180000000 1.0
C      1  0.5087230000000  0.5319170000000  0.5038570000000 1.0
C      1  0.4325570000000  0.4276090000000  0.4867240000000 1.0
C      1  0.4354850000000  0.5676590000000  0.5262590000000 1.0
C      1  0.5261940000000  0.5097530000000  0.4507560000000 1.0
C      1  0.5262440000000  0.4845530000000  0.5428340000000 1.0
C      1  0.4898630000000  0.5334780000000  0.5866780000000 1.0
C      1  0.5001880000000  0.4733450000000  0.4162680000000 1.0
C      1  0.4494840000000  0.4420090000000  0.4626970000000 1.0
C      1  0.4587940000000  0.5564560000000  0.5443100000000 1.0
C      1  0.4651360000000  0.4774490000000  0.4503490000000 1.0
C      1  0.4570140000000  0.5141600000000  0.5488860000000 1.0
C      1  0.4015880000000  0.4433300000000  0.4874350000000 1.0
C      1  0.3896240000000  0.5534570000000  0.5110990000000 1.0
C      1  0.5079730000000  0.5784910000000  0.5232420000000 1.0
C      1  0.5043950000000  0.4131250000000  0.4767470000000 1.0
C      1  0.4634250000000  0.5801810000000  0.4326380000000 1.0
C      1  0.4666120000000  0.4281340000000  0.5694200000000 1.0
C      1  0.4766410000000  0.4022800000000  0.4677830000000 1.0
C      1  0.4838150000000  0.5949250000000  0.5341270000000 1.0
C      1  0.4837060000000  0.5630490000000  0.5083930000000 1.0
C      1  0.4840900000000  0.4376020000000  0.4888930000000 1.0
C      1  0.4655030000000  0.4187770000000  0.4469540000000 1.0
C      1  0.4731720000000  0.5807910000000  0.5556820000000 1.0
C      1  0.5086140000000  0.5583410000000  0.4048920000000 1.0
C      1  0.5023250000000  0.4530810000000  0.5972560000000 1.0
C      1  0.5751020000000  0.5541920000000  0.5658710000000 1.0
C      1  0.5651010000000  0.4432300000000  0.4527240000000 1.0
C      1  0.5165710000000  0.4311260000000  0.4559400000000 1.0
C      1  0.5189410000000  0.5594000000000  0.5425060000000 1.0
C      1  0.5304420000000  0.5669640000000  0.5667690000000 1.0
C      1  0.5269630000000  0.4257070000000  0.4304900000000 1.0
C      1  0.4910450000000  0.4680870000000  0.5252440000000 1.0
C      1  0.4908900000000  0.5310440000000  0.4750960000000 1.0
C      1  0.4491160000000  0.4608070000000  0.5544390000000 1.0
C      1  0.4425990000000  0.5166410000000  0.4549350000000 1.0
C      1  0.5349450000000  0.5530330000000  0.4002620000000 1.0
C      1  0.5298350000000  0.4625970000000  0.5983500000000 1.0
C      1  0.3828360000000  0.5250990000000  0.4972580000000 1.0
C      1  0.3972510000000  0.4767460000000  0.4942570000000 1.0
C      1  0.4033680000000  0.4118000000000  0.4830600000000 1.0
C      1  0.4084850000000  0.5674750000000  0.5299340000000 1.0
C      1  0.4463710000000  0.4764110000000  0.4258310000000 1.0
C      1  0.4416430000000  0.5239800000000  0.5724170000000 1.0
END
