TITL C-2622955-8511-487 0.00205913311402689 125000 -309.535492796492 0 0 54 (C1) n - 1
REM
REM in /nfs/bkarasulu/CARBON/AIRSS/Generating-Clusters/AIREBO/with-SteepDescent/Higher-Symm/SD-CG/HFTN-CG
REM
REM
REM
REM
REM
REM ./C.cell (b20cbc046b6831c77cfcea5457e17084)
REM
REM compiler GCC version 9.2.1 20190827 (Red Hat 9.2.1-1)
REM options -cpp -mtune=generic -march=x86-64 -g -O0 -fpre-include=/usr/include/finclude/math-vector-fortran.h
REM seed -951875069 2108739949 -1714843584 -1595254644 596444555 328773956 393306351 982515472 2133932805 -964131420 -1016483870 -1630142766 389655089 -1314122510 -1684100416 689146067 -1745331978 624487966 987397042 -1699905662 -310462345 339182326 2134540410 -49675854 -317788357 1743629624 116033117 -651527424 -1835306488 1961097303 -98481510 -1105378157 412942183
REM
CELL 1.54180   50.00000   50.00000   50.00000   90.00000   90.00000   90.00000
LATT -1
SFAC C  
C      1  0.4353230000000  0.4486860000000  0.4656890000000 1.0
C      1  0.4626330000000  0.4890640000000  0.4820030000000 1.0
C      1  0.5583190000000  0.5037190000000  0.5682060000000 1.0
C      1  0.4715740000000  0.5484030000000  0.4825780000000 1.0
C      1  0.4467170000000  0.5438800000000  0.5688050000000 1.0
C      1  0.4952000000000  0.5487620000000  0.5461440000000 1.0
C      1  0.5510770000000  0.4674740000000  0.4971060000000 1.0
C      1  0.5515260000000  0.5430230000000  0.5195390000000 1.0
C      1  0.4446420000000  0.5492430000000  0.4793550000000 1.0
C      1  0.5215530000000  0.4922510000000  0.4749850000000 1.0
C      1  0.4778220000000  0.4929610000000  0.4531700000000 1.0
C      1  0.5040810000000  0.4436790000000  0.4727100000000 1.0
C      1  0.4701900000000  0.5450650000000  0.5572060000000 1.0
C      1  0.5458260000000  0.4501580000000  0.4507100000000 1.0
C      1  0.4887350000000  0.4523270000000  0.4515090000000 1.0
C      1  0.5732030000000  0.4939720000000  0.5862430000000 1.0
C      1  0.3982720000000  0.5122290000000  0.4868250000000 1.0
C      1  0.5298990000000  0.4588350000000  0.4727580000000 1.0
C      1  0.5123280000000  0.5170370000000  0.4964030000000 1.0
C      1  0.5100170000000  0.4981250000000  0.4435370000000 1.0
C      1  0.5443550000000  0.5710230000000  0.5277790000000 1.0
C      1  0.5539180000000  0.5250620000000  0.5437690000000 1.0
C      1  0.4944970000000  0.4297920000000  0.4946380000000 1.0
C      1  0.5192840000000  0.5393340000000  0.5577750000000 1.0
C      1  0.5479810000000  0.4614080000000  0.5235240000000 1.0
C      1  0.5274130000000  0.5089480000000  0.5555860000000 1.0
C      1  0.4230590000000  0.4565060000000  0.4904320000000 1.0
C      1  0.4363940000000  0.5019810000000  0.4848210000000 1.0
C      1  0.4902570000000  0.5490030000000  0.4214460000000 1.0
C      1  0.4656930000000  0.4690960000000  0.5528400000000 1.0
C      1  0.4988440000000  0.5269270000000  0.4309350000000 1.0
C      1  0.5409850000000  0.5327640000000  0.4959730000000 1.0
C      1  0.4941840000000  0.5429940000000  0.4974670000000 1.0
C      1  0.4255700000000  0.5295710000000  0.4821710000000 1.0
C      1  0.5547330000000  0.4895590000000  0.4764230000000 1.0
C      1  0.4988890000000  0.5599240000000  0.5197800000000 1.0
C      1  0.5253800000000  0.4614830000000  0.5398460000000 1.0
C      1  0.4874970000000  0.4371400000000  0.5206400000000 1.0
C      1  0.5025730000000  0.4668600000000  0.4324370000000 1.0
C      1  0.4659180000000  0.4586230000000  0.5234120000000 1.0
C      1  0.5538600000000  0.5352970000000  0.4709760000000 1.0
C      1  0.4770110000000  0.4829630000000  0.5072020000000 1.0
C      1  0.5082910000000  0.4391130000000  0.5395340000000 1.0
C      1  0.4854450000000  0.4823730000000  0.5612440000000 1.0
C      1  0.5573090000000  0.5109200000000  0.4568420000000 1.0
C      1  0.4131870000000  0.4832020000000  0.4901350000000 1.0
C      1  0.4376930000000  0.4495050000000  0.5136590000000 1.0
C      1  0.5107750000000  0.4879660000000  0.5433260000000 1.0
C      1  0.4612450000000  0.4639210000000  0.4597010000000 1.0
C      1  0.5192260000000  0.5798060000000  0.5179450000000 1.0
C      1  0.4986910000000  0.4956780000000  0.5154940000000 1.0
C      1  0.5424940000000  0.5576880000000  0.5554610000000 1.0
C      1  0.5409460000000  0.5063650000000  0.4338590000000 1.0
C      1  0.5474700000000  0.5083160000000  0.4074510000000 1.0
END
