TITL C-2622962-9663-568 -0.00436895637043827 125000 -514.208102297237 0 0 89 (C1) n - 1
REM
REM in /nfs/bkarasulu/CARBON/AIRSS/Generating-Clusters/AIREBO/with-SteepDescent/Higher-Symm/SD-CG/HFTN-CG
REM
REM
REM
REM
REM
REM ./C.cell (b20cbc046b6831c77cfcea5457e17084)
REM
REM compiler GCC version 9.2.1 20190827 (Red Hat 9.2.1-1)
REM options -cpp -mtune=generic -march=x86-64 -g -O0 -fpre-include=/usr/include/finclude/math-vector-fortran.h
REM seed -989511324 -1283597346 -1872136391 1032274720 -1011301974 -1133725482 -1548274829 -1552338426 1788773465 1133580936 -400315151 635140098 -674496571 1590280230 78444437 -555626183 -91952143 -1511538585 1468608340 -22909752 -842116840 1343916459 -1283965804 -1809728843 1896847971 2105837917 1289410575 511523064 -1585874158 -1101965785 -1134017144 -1401189847 334352553
REM
CELL 1.54180   50.00000   50.00000   50.00000   90.00000   90.00000   90.00000
LATT -1
SFAC C  
C      1  0.5491480000000  0.5300020000000  0.4212720000000 1.0
C      1  0.5605640000000  0.5061970000000  0.4377370000000 1.0
C      1  0.5412260000000  0.4792120000000  0.4358570000000 1.0
C      1  0.5194420000000  0.4531050000000  0.4362400000000 1.0
C      1  0.4921200000000  0.4613140000000  0.4230150000000 1.0
C      1  0.4673120000000  0.4609730000000  0.4361760000000 1.0
C      1  0.4507740000000  0.4837920000000  0.4368150000000 1.0
C      1  0.4593340000000  0.5074370000000  0.4248850000000 1.0
C      1  0.4641810000000  0.5342960000000  0.4401320000000 1.0
C      1  0.4967420000000  0.5430600000000  0.4374170000000 1.0
C      1  0.5298320000000  0.5494370000000  0.4370150000000 1.0
C      1  0.5157060000000  0.5702630000000  0.4595300000000 1.0
C      1  0.5538660000000  0.5593040000000  0.4590180000000 1.0
C      1  0.5816010000000  0.5217530000000  0.4596280000000 1.0
C      1  0.5736870000000  0.4830790000000  0.4589410000000 1.0
C      1  0.5481570000000  0.4434530000000  0.4517190000000 1.0
C      1  0.5131460000000  0.4251750000000  0.4543370000000 1.0
C      1  0.4624250000000  0.4316140000000  0.4526230000000 1.0
C      1  0.4269690000000  0.4529830000000  0.4699430000000 1.0
C      1  0.4248620000000  0.4909250000000  0.4576490000000 1.0
C      1  0.4358960000000  0.5413450000000  0.4569110000000 1.0
C      1  0.4688740000000  0.5630920000000  0.4576550000000 1.0
C      1  0.5130630000000  0.5856140000000  0.5171020000000 1.0
C      1  0.5509550000000  0.5553760000000  0.5219460000000 1.0
C      1  0.5770100000000  0.5133830000000  0.5195380000000 1.0
C      1  0.5859540000000  0.4696100000000  0.5127480000000 1.0
C      1  0.5518890000000  0.4365660000000  0.5203160000000 1.0
C      1  0.5067850000000  0.4213930000000  0.5093510000000 1.0
C      1  0.4709310000000  0.4328670000000  0.5213530000000 1.0
C      1  0.4303050000000  0.4642140000000  0.5192590000000 1.0
C      1  0.4036630000000  0.5032350000000  0.5136160000000 1.0
C      1  0.4328190000000  0.5456310000000  0.5177530000000 1.0
C      1  0.4666390000000  0.5764470000000  0.5160190000000 1.0
C      1  0.5771680000000  0.4529720000000  0.4622410000000 1.0
C      1  0.5389420000000  0.4188290000000  0.4734450000000 1.0
C      1  0.4874510000000  0.4112180000000  0.4596350000000 1.0
C      1  0.4406180000000  0.4257630000000  0.4746370000000 1.0
C      1  0.4070280000000  0.4715970000000  0.4781190000000 1.0
C      1  0.4227610000000  0.5203750000000  0.4690820000000 1.0
C      1  0.4409350000000  0.5653900000000  0.4753570000000 1.0
C      1  0.4878230000000  0.5863150000000  0.4640900000000 1.0
C      1  0.5421520000000  0.5830420000000  0.4732240000000 1.0
C      1  0.5707320000000  0.5428350000000  0.4734850000000 1.0
C      1  0.5953490000000  0.5003550000000  0.4764810000000 1.0
C      1  0.4572240000000  0.4836440000000  0.5674970000000 1.0
C      1  0.4528400000000  0.5083570000000  0.5798300000000 1.0
C      1  0.4623610000000  0.5320010000000  0.5681600000000 1.0
C      1  0.4879140000000  0.5452780000000  0.5725220000000 1.0
C      1  0.5118830000000  0.5353980000000  0.5820810000000 1.0
C      1  0.5320360000000  0.5312110000000  0.5624730000000 1.0
C      1  0.5463890000000  0.5070550000000  0.5603080000000 1.0
C      1  0.5403880000000  0.4853860000000  0.5773930000000 1.0
C      1  0.5267730000000  0.4616770000000  0.5712060000000 1.0
C      1  0.5022740000000  0.4560880000000  0.5837410000000 1.0
C      1  0.4775020000000  0.4630150000000  0.5735530000000 1.0
C      1  0.4463620000000  0.4431500000000  0.5034680000000 1.0
C      1  0.4085780000000  0.4765620000000  0.5061760000000 1.0
C      1  0.4233150000000  0.5225410000000  0.5007350000000 1.0
C      1  0.4437670000000  0.5665490000000  0.5033430000000 1.0
C      1  0.4900010000000  0.5821250000000  0.4977600000000 1.0
C      1  0.5391240000000  0.5771390000000  0.5032200000000 1.0
C      1  0.5630160000000  0.5345550000000  0.5044740000000 1.0
C      1  0.5926860000000  0.4957390000000  0.5041730000000 1.0
C      1  0.5665880000000  0.4516140000000  0.4945250000000 1.0
C      1  0.5335200000000  0.4206120000000  0.5008400000000 1.0
C      1  0.4804600000000  0.4231340000000  0.4901670000000 1.0
C      1  0.5161360000000  0.4515170000000  0.4756370000000 1.0
C      1  0.4856060000000  0.4496290000000  0.4698480000000 1.0
C      1  0.4586430000000  0.4610900000000  0.4792820000000 1.0
C      1  0.4513370000000  0.4900070000000  0.4760550000000 1.0
C      1  0.4551930000000  0.5148350000000  0.4917290000000 1.0
C      1  0.4712060000000  0.5368030000000  0.4791080000000 1.0
C      1  0.4979440000000  0.5531380000000  0.4830880000000 1.0
C      1  0.5281580000000  0.5477220000000  0.4900990000000 1.0
C      1  0.5400020000000  0.5204080000000  0.4855300000000 1.0
C      1  0.5460570000000  0.4964620000000  0.4735820000000 1.0
C      1  0.5427630000000  0.4656650000000  0.4772600000000 1.0
C      1  0.5304140000000  0.4515320000000  0.5426180000000 1.0
C      1  0.5023170000000  0.4440030000000  0.5316010000000 1.0
C      1  0.4748020000000  0.4589130000000  0.5418740000000 1.0
C      1  0.4505670000000  0.4819120000000  0.5353030000000 1.0
C      1  0.4559380000000  0.5096040000000  0.5228590000000 1.0
C      1  0.4526650000000  0.5360710000000  0.5391980000000 1.0
C      1  0.4776000000000  0.5593750000000  0.5433380000000 1.0
C      1  0.5091660000000  0.5673940000000  0.5392940000000 1.0
C      1  0.5321760000000  0.5506860000000  0.5424790000000 1.0
C      1  0.5613490000000  0.4992530000000  0.5380770000000 1.0
C      1  0.5556200000000  0.4693600000000  0.5284930000000 1.0
C      1  0.5162020000000  0.5296210000000  0.6080420000000 1.0
END
