TITL C-2622965-4321-660 0.0141307366684081 125000 -712.257373240062 0 0 135 (C1) n - 1
REM
REM in /nfs/bkarasulu/CARBON/AIRSS/Generating-Clusters/AIREBO/with-SteepDescent/Higher-Symm/SD-CG/HFTN-CG
REM
REM
REM
REM
REM
REM ./C.cell (b20cbc046b6831c77cfcea5457e17084)
REM
REM compiler GCC version 9.2.1 20190827 (Red Hat 9.2.1-1)
REM options -cpp -mtune=generic -march=x86-64 -g -O0 -fpre-include=/usr/include/finclude/math-vector-fortran.h
REM seed -437381691 204972123 1164463861 -1502035779 535047507 -166209409 -218065895 -1383625472 1654153780 1101419853 1515240160 -2107671333 745152837 479320911 1486287383 1253308053 1844292708 1019164480 1331738040 1639571927 790725949 1094585927 1958443302 1923382457 1546848602 841169271 -712274283 -239577872 812203472 2031799007 291983600 1268295006 805359135
REM
CELL 1.54180   50.00000   50.00000   50.00000   90.00000   90.00000   90.00000
LATT -1
SFAC C  
C      1  0.4765380000000  0.5088070000000  0.5074850000000 1.0
C      1  0.4495420000000  0.5041870000000  0.4873050000000 1.0
C      1  0.4851370000000  0.4960770000000  0.4497320000000 1.0
C      1  0.5287830000000  0.5144690000000  0.4689960000000 1.0
C      1  0.5448470000000  0.5036670000000  0.4969760000000 1.0
C      1  0.5292730000000  0.5007980000000  0.5419660000000 1.0
C      1  0.4852890000000  0.5007650000000  0.5393430000000 1.0
C      1  0.4853680000000  0.4634450000000  0.5841950000000 1.0
C      1  0.4406330000000  0.4666700000000  0.5378060000000 1.0
C      1  0.4390140000000  0.4721010000000  0.4831460000000 1.0
C      1  0.4645870000000  0.4541480000000  0.4209980000000 1.0
C      1  0.5439790000000  0.4639600000000  0.4285510000000 1.0
C      1  0.5783000000000  0.4704360000000  0.4934400000000 1.0
C      1  0.5514340000000  0.4667800000000  0.5561920000000 1.0
C      1  0.5095040000000  0.5599020000000  0.4050790000000 1.0
C      1  0.5582530000000  0.5603630000000  0.4485060000000 1.0
C      1  0.5878830000000  0.5564100000000  0.5439410000000 1.0
C      1  0.5135830000000  0.5600740000000  0.5754260000000 1.0
C      1  0.4534870000000  0.5668210000000  0.5549900000000 1.0
C      1  0.4240600000000  0.5699400000000  0.4990120000000 1.0
C      1  0.4525060000000  0.5696420000000  0.4405320000000 1.0
C      1  0.5645870000000  0.5325590000000  0.5433680000000 1.0
C      1  0.5132280000000  0.5288910000000  0.5652130000000 1.0
C      1  0.4528350000000  0.5333200000000  0.5491010000000 1.0
C      1  0.4272240000000  0.5368350000000  0.4925700000000 1.0
C      1  0.4549470000000  0.5370040000000  0.4416320000000 1.0
C      1  0.5054670000000  0.5305360000000  0.4199610000000 1.0
C      1  0.5622320000000  0.5374360000000  0.4697980000000 1.0
C      1  0.4891750000000  0.4115660000000  0.4200680000000 1.0
C      1  0.5713910000000  0.4236780000000  0.4645290000000 1.0
C      1  0.5545820000000  0.4213830000000  0.5146790000000 1.0
C      1  0.5192860000000  0.4300710000000  0.5591040000000 1.0
C      1  0.4719820000000  0.4280450000000  0.5487040000000 1.0
C      1  0.4292420000000  0.4239350000000  0.5175370000000 1.0
C      1  0.4805090000000  0.4293520000000  0.4762110000000 1.0
C      1  0.4221810000000  0.5093130000000  0.5068270000000 1.0
C      1  0.4391150000000  0.5131840000000  0.4562190000000 1.0
C      1  0.4895040000000  0.5020160000000  0.4204820000000 1.0
C      1  0.5544840000000  0.5102090000000  0.4509630000000 1.0
C      1  0.5704390000000  0.5100710000000  0.5185480000000 1.0
C      1  0.5285920000000  0.5031820000000  0.5741140000000 1.0
C      1  0.4616450000000  0.5060400000000  0.5612210000000 1.0
C      1  0.4607450000000  0.5709670000000  0.4831050000000 1.0
C      1  0.4936580000000  0.5657510000000  0.4763400000000 1.0
C      1  0.5059160000000  0.5619730000000  0.4446310000000 1.0
C      1  0.5364440000000  0.5645490000000  0.5086270000000 1.0
C      1  0.5508820000000  0.5695890000000  0.5370370000000 1.0
C      1  0.5022120000000  0.5631860000000  0.5295230000000 1.0
C      1  0.4613240000000  0.5685680000000  0.5161360000000 1.0
C      1  0.4752540000000  0.4759900000000  0.4992400000000 1.0
C      1  0.4680460000000  0.4760950000000  0.4659360000000 1.0
C      1  0.5073800000000  0.4791540000000  0.4615280000000 1.0
C      1  0.5470700000000  0.4736210000000  0.4976910000000 1.0
C      1  0.5365820000000  0.4648200000000  0.5265530000000 1.0
C      1  0.5083340000000  0.4819950000000  0.5289140000000 1.0
C      1  0.4720590000000  0.4608510000000  0.5260630000000 1.0
C      1  0.4848220000000  0.5556990000000  0.5578060000000 1.0
C      1  0.4312690000000  0.5607380000000  0.5299760000000 1.0
C      1  0.4318130000000  0.5658910000000  0.4659540000000 1.0
C      1  0.4801210000000  0.5610670000000  0.4224790000000 1.0
C      1  0.5347880000000  0.5563500000000  0.4275450000000 1.0
C      1  0.5754150000000  0.5591500000000  0.5158320000000 1.0
C      1  0.5421460000000  0.5564610000000  0.5659920000000 1.0
C      1  0.4622810000000  0.5006250000000  0.4057690000000 1.0
C      1  0.5450480000000  0.4939950000000  0.4254830000000 1.0
C      1  0.5854950000000  0.5066350000000  0.4901210000000 1.0
C      1  0.5606160000000  0.4981530000000  0.5662980000000 1.0
C      1  0.4800280000000  0.4970430000000  0.5866330000000 1.0
C      1  0.4296590000000  0.4988830000000  0.5383250000000 1.0
C      1  0.4069900000000  0.5060190000000  0.4577900000000 1.0
C      1  0.5125000000000  0.4584750000000  0.5933690000000 1.0
C      1  0.4411470000000  0.4567590000000  0.5672540000000 1.0
C      1  0.4128440000000  0.4652720000000  0.4986270000000 1.0
C      1  0.4453410000000  0.4615720000000  0.4452080000000 1.0
C      1  0.5203410000000  0.4516430000000  0.4210960000000 1.0
C      1  0.5833650000000  0.4617700000000  0.4648480000000 1.0
C      1  0.5800000000000  0.4549310000000  0.5433190000000 1.0
C      1  0.4569490000000  0.4157680000000  0.5288660000000 1.0
C      1  0.4530200000000  0.4197450000000  0.4947710000000 1.0
C      1  0.5031000000000  0.4455990000000  0.4566690000000 1.0
C      1  0.5312510000000  0.4572420000000  0.4718390000000 1.0
C      1  0.5753380000000  0.4219850000000  0.4908540000000 1.0
C      1  0.5266100000000  0.4336680000000  0.5203750000000 1.0
C      1  0.4971200000000  0.4400330000000  0.5360760000000 1.0
C      1  0.4907630000000  0.4388560000000  0.4268630000000 1.0
C      1  0.5564030000000  0.4499200000000  0.4529220000000 1.0
C      1  0.5779100000000  0.4451380000000  0.5153820000000 1.0
C      1  0.5309620000000  0.4498670000000  0.5738860000000 1.0
C      1  0.4661820000000  0.4451160000000  0.5716340000000 1.0
C      1  0.4211400000000  0.4500160000000  0.5213430000000 1.0
C      1  0.4495910000000  0.4416930000000  0.4711720000000 1.0
C      1  0.4009500000000  0.4836660000000  0.5289040000000 1.0
C      1  0.4224030000000  0.4817400000000  0.4391100000000 1.0
C      1  0.4618200000000  0.4705520000000  0.3984950000000 1.0
C      1  0.5950410000000  0.4821140000000  0.4508100000000 1.0
C      1  0.5981800000000  0.4752580000000  0.5463790000000 1.0
C      1  0.5194080000000  0.4770730000000  0.6156390000000 1.0
C      1  0.4280370000000  0.4752310000000  0.5836060000000 1.0
C      1  0.4614490000000  0.6047930000000  0.4782510000000 1.0
C      1  0.4902180000000  0.5994880000000  0.4757830000000 1.0
C      1  0.5057570000000  0.5950390000000  0.4511930000000 1.0
C      1  0.5438860000000  0.5879830000000  0.4901640000000 1.0
C      1  0.5320040000000  0.5928990000000  0.5530730000000 1.0
C      1  0.5043280000000  0.5898050000000  0.5505830000000 1.0
C      1  0.4740750000000  0.5894090000000  0.5398180000000 1.0
C      1  0.5107600000000  0.4981340000000  0.5977380000000 1.0
C      1  0.4314620000000  0.4996870000000  0.5722690000000 1.0
C      1  0.3993080000000  0.4974250000000  0.4874350000000 1.0
C      1  0.4367260000000  0.5065200000000  0.4229630000000 1.0
C      1  0.5203490000000  0.5046970000000  0.4071020000000 1.0
C      1  0.5841330000000  0.5054680000000  0.4601470000000 1.0
C      1  0.5844270000000  0.4985840000000  0.5457000000000 1.0
C      1  0.4771580000000  0.5238790000000  0.4613630000000 1.0
C      1  0.5063640000000  0.5297380000000  0.4534110000000 1.0
C      1  0.5445890000000  0.5364220000000  0.4979100000000 1.0
C      1  0.5362180000000  0.5280360000000  0.5280480000000 1.0
C      1  0.5026910000000  0.5294180000000  0.5336250000000 1.0
C      1  0.4713570000000  0.5384280000000  0.5239370000000 1.0
C      1  0.4581630000000  0.5370660000000  0.4834080000000 1.0
C      1  0.4105940000000  0.5394510000000  0.4630500000000 1.0
C      1  0.4646140000000  0.5329780000000  0.4110890000000 1.0
C      1  0.5449740000000  0.5266590000000  0.4160270000000 1.0
C      1  0.5838610000000  0.5401430000000  0.4959120000000 1.0
C      1  0.5568410000000  0.5307980000000  0.5751430000000 1.0
C      1  0.4851680000000  0.5301860000000  0.5807660000000 1.0
C      1  0.4201250000000  0.5314920000000  0.5400050000000 1.0
C      1  0.5073290000000  0.5501240000000  0.4985340000000 1.0
C      1  0.5099390000000  0.4143010000000  0.4979310000000 1.0
C      1  0.5095140000000  0.4485580000000  0.4958430000000 1.0
C      1  0.5046070000000  0.5167430000000  0.4920180000000 1.0
C      1  0.5135170000000  0.6153770000000  0.5040600000000 1.0
C      1  0.5070080000000  0.5914020000000  0.5111290000000 1.0
C      1  0.5082800000000  0.4829290000000  0.4950930000000 1.0
C      1  0.5055840000000  0.3891940000000  0.4946590000000 1.0
C      1  0.5031980000000  0.3635600000000  0.4897540000000 1.0
END
