TITL C-2622956-4641-234 -0.00320044334129433 125000 -696.395481796678 0 0 134 (C1) n - 1
REM
REM in /nfs/bkarasulu/CARBON/AIRSS/Generating-Clusters/AIREBO/with-SteepDescent/Higher-Symm/SD-CG/HFTN-CG
REM
REM
REM
REM
REM
REM ./C.cell (b20cbc046b6831c77cfcea5457e17084)
REM
REM compiler GCC version 9.2.1 20190827 (Red Hat 9.2.1-1)
REM options -cpp -mtune=generic -march=x86-64 -g -O0 -fpre-include=/usr/include/finclude/math-vector-fortran.h
REM seed 1512718748 2029084055 1435805760 -1090485249 -2124708932 -1929386656 -1476350620 -38433099 -1840824556 -1239753599 -46520839 -2115465717 1754844422 -1237137870 1773805536 -1085920972 1557489525 454666586 -1144575188 -1873056676 1385327554 -1448732359 189763165 1036388977 -1554030726 1073861477 -687306261 51866870 -1590004523 521499070 -2046078683 2090501367 -1157856515
REM
CELL 1.54180   50.00000   50.00000   50.00000   90.00000   90.00000   90.00000
LATT -1
SFAC C  
C      1  0.4354850000000  0.4922670000000  0.5778560000000 1.0
C      1  0.4318330000000  0.4385090000000  0.4590450000000 1.0
C      1  0.4344640000000  0.5634310000000  0.4662300000000 1.0
C      1  0.4086440000000  0.4741920000000  0.4918640000000 1.0
C      1  0.4110670000000  0.5256760000000  0.4808480000000 1.0
C      1  0.4094560000000  0.5083270000000  0.5311160000000 1.0
C      1  0.5166390000000  0.4660200000000  0.4173880000000 1.0
C      1  0.5110170000000  0.5795350000000  0.5018010000000 1.0
C      1  0.5080660000000  0.4561700000000  0.5730920000000 1.0
C      1  0.4482110000000  0.5068180000000  0.5435310000000 1.0
C      1  0.4451340000000  0.4586970000000  0.4904720000000 1.0
C      1  0.4587430000000  0.5261320000000  0.4651430000000 1.0
C      1  0.5882820000000  0.4903920000000  0.5516560000000 1.0
C      1  0.5961370000000  0.4610620000000  0.4715170000000 1.0
C      1  0.5975860000000  0.5501150000000  0.4685200000000 1.0
C      1  0.4827140000000  0.4462910000000  0.4859630000000 1.0
C      1  0.4936400000000  0.5383760000000  0.4514570000000 1.0
C      1  0.4824760000000  0.5161250000000  0.5618090000000 1.0
C      1  0.4862410000000  0.4072040000000  0.4788310000000 1.0
C      1  0.4818600000000  0.5714630000000  0.4314590000000 1.0
C      1  0.4809500000000  0.5261580000000  0.6001990000000 1.0
C      1  0.4359180000000  0.4605870000000  0.5665720000000 1.0
C      1  0.4370900000000  0.4644280000000  0.4376040000000 1.0
C      1  0.4435650000000  0.5652820000000  0.4973570000000 1.0
C      1  0.4913250000000  0.4497610000000  0.4096170000000 1.0
C      1  0.4898130000000  0.6032000000000  0.5139130000000 1.0
C      1  0.4866010000000  0.4239560000000  0.5828400000000 1.0
C      1  0.4840970000000  0.4747100000000  0.5885980000000 1.0
C      1  0.4715560000000  0.4462120000000  0.4463480000000 1.0
C      1  0.4801090000000  0.5765820000000  0.4856810000000 1.0
C      1  0.5388910000000  0.4473950000000  0.5617030000000 1.0
C      1  0.5448860000000  0.4818330000000  0.4230430000000 1.0
C      1  0.5411210000000  0.5855990000000  0.5164120000000 1.0
C      1  0.5720770000000  0.5642640000000  0.4616900000000 1.0
C      1  0.5697360000000  0.5008770000000  0.5718240000000 1.0
C      1  0.5693770000000  0.4455490000000  0.4685100000000 1.0
C      1  0.4558160000000  0.4699080000000  0.4649800000000 1.0
C      1  0.4701680000000  0.5464530000000  0.4981860000000 1.0
C      1  0.4578090000000  0.4763210000000  0.5488140000000 1.0
C      1  0.4854230000000  0.4891960000000  0.5497360000000 1.0
C      1  0.4936760000000  0.4653430000000  0.4636910000000 1.0
C      1  0.4947060000000  0.5397200000000  0.4816220000000 1.0
C      1  0.4260510000000  0.4344570000000  0.5158420000000 1.0
C      1  0.4297210000000  0.5230150000000  0.4381150000000 1.0
C      1  0.4303950000000  0.5434670000000  0.5496430000000 1.0
C      1  0.4646970000000  0.5213070000000  0.5175610000000 1.0
C      1  0.4614930000000  0.4731720000000  0.5157560000000 1.0
C      1  0.4624500000000  0.4983850000000  0.4758330000000 1.0
C      1  0.4274530000000  0.4946470000000  0.4464300000000 1.0
C      1  0.4286630000000  0.5469530000000  0.5205480000000 1.0
C      1  0.4243270000000  0.4563410000000  0.5358560000000 1.0
C      1  0.4766210000000  0.4428570000000  0.5187970000000 1.0
C      1  0.4873000000000  0.5112830000000  0.4348870000000 1.0
C      1  0.4794680000000  0.5403950000000  0.5415360000000 1.0
C      1  0.5156360000000  0.5684960000000  0.4287680000000 1.0
C      1  0.5131410000000  0.5256540000000  0.5929130000000 1.0
C      1  0.5170960000000  0.4122620000000  0.4785160000000 1.0
C      1  0.5456290000000  0.5072880000000  0.5615660000000 1.0
C      1  0.5436140000000  0.4513560000000  0.4754610000000 1.0
C      1  0.5490290000000  0.5500110000000  0.4633010000000 1.0
C      1  0.4846090000000  0.4080420000000  0.5364800000000 1.0
C      1  0.4879370000000  0.5188790000000  0.3958420000000 1.0
C      1  0.4826190000000  0.5753290000000  0.5606700000000 1.0
C      1  0.4503570000000  0.4219120000000  0.5134830000000 1.0
C      1  0.4597900000000  0.5309810000000  0.4315020000000 1.0
C      1  0.4540230000000  0.5476980000000  0.5628820000000 1.0
C      1  0.5976200000000  0.5186240000000  0.5493360000000 1.0
C      1  0.5972390000000  0.4447500000000  0.4970590000000 1.0
C      1  0.6037810000000  0.5335170000000  0.4465090000000 1.0
C      1  0.5738850000000  0.4849080000000  0.4737530000000 1.0
C      1  0.5770510000000  0.5396970000000  0.4927300000000 1.0
C      1  0.5740680000000  0.4757160000000  0.5331870000000 1.0
C      1  0.4637210000000  0.5015840000000  0.5841960000000 1.0
C      1  0.4593660000000  0.4266630000000  0.4713840000000 1.0
C      1  0.4674050000000  0.5585190000000  0.4593910000000 1.0
C      1  0.4291080000000  0.4834630000000  0.5173850000000 1.0
C      1  0.4287010000000  0.4966230000000  0.4796320000000 1.0
C      1  0.4326770000000  0.5158410000000  0.5074180000000 1.0
C      1  0.5220310000000  0.4992420000000  0.5921140000000 1.0
C      1  0.5260050000000  0.4226030000000  0.4545380000000 1.0
C      1  0.5275240000000  0.5809420000000  0.4504070000000 1.0
C      1  0.5503490000000  0.4225120000000  0.5484620000000 1.0
C      1  0.5516170000000  0.5013740000000  0.4052120000000 1.0
C      1  0.5607320000000  0.5764300000000  0.5401400000000 1.0
C      1  0.5090030000000  0.4865280000000  0.5308060000000 1.0
C      1  0.5191700000000  0.4817850000000  0.4677980000000 1.0
C      1  0.5212950000000  0.5354290000000  0.4961220000000 1.0
C      1  0.5283610000000  0.4164840000000  0.5036390000000 1.0
C      1  0.5295440000000  0.5463900000000  0.4187370000000 1.0
C      1  0.5250790000000  0.5463560000000  0.5769330000000 1.0
C      1  0.4195390000000  0.5146950000000  0.5600500000000 1.0
C      1  0.4147690000000  0.4438200000000  0.4869060000000 1.0
C      1  0.4189390000000  0.5410160000000  0.4585140000000 1.0
C      1  0.4752540000000  0.4042190000000  0.5085970000000 1.0
C      1  0.4847200000000  0.5436240000000  0.4121430000000 1.0
C      1  0.4813570000000  0.5521230000000  0.5796550000000 1.0
C      1  0.5055100000000  0.4273580000000  0.5551140000000 1.0
C      1  0.5117050000000  0.4970240000000  0.4068570000000 1.0
C      1  0.5047130000000  0.5809860000000  0.5352000000000 1.0
C      1  0.4886410000000  0.4956260000000  0.6134840000000 1.0
C      1  0.4871810000000  0.4160150000000  0.4456780000000 1.0
C      1  0.4858940000000  0.5937000000000  0.4568730000000 1.0
C      1  0.4664740000000  0.5705160000000  0.5325320000000 1.0
C      1  0.4667160000000  0.4336050000000  0.5499840000000 1.0
C      1  0.4757940000000  0.4906850000000  0.4105310000000 1.0
C      1  0.5560330000000  0.5277390000000  0.4150120000000 1.0
C      1  0.5543390000000  0.5543990000000  0.5615690000000 1.0
C      1  0.5531860000000  0.4237730000000  0.5195680000000 1.0
C      1  0.5604810000000  0.5279140000000  0.5170550000000 1.0
C      1  0.5594640000000  0.4761050000000  0.5024790000000 1.0
C      1  0.5727960000000  0.5181040000000  0.4664800000000 1.0
C      1  0.4641100000000  0.4628120000000  0.4176050000000 1.0
C      1  0.4598080000000  0.5917680000000  0.5083420000000 1.0
C      1  0.4662470000000  0.4498910000000  0.5776120000000 1.0
C      1  0.5670520000000  0.5665830000000  0.5102750000000 1.0
C      1  0.5477540000000  0.4607080000000  0.5372470000000 1.0
C      1  0.5485760000000  0.4886230000000  0.4536560000000 1.0
C      1  0.5772490000000  0.5272200000000  0.4339960000000 1.0
C      1  0.5776930000000  0.5364090000000  0.5444480000000 1.0
C      1  0.5707470000000  0.4445650000000  0.5084310000000 1.0
C      1  0.5202470000000  0.5181470000000  0.4300400000000 1.0
C      1  0.5110330000000  0.5513560000000  0.5463720000000 1.0
C      1  0.5100950000000  0.4357250000000  0.5232120000000 1.0
C      1  0.5259420000000  0.5641830000000  0.4785700000000 1.0
C      1  0.5230940000000  0.4840440000000  0.5616800000000 1.0
C      1  0.5267110000000  0.4558100000000  0.4471790000000 1.0
C      1  0.5117580000000  0.5041300000000  0.4871900000000 1.0
C      1  0.5178600000000  0.5162670000000  0.5240020000000 1.0
C      1  0.5019240000000  0.4689220000000  0.5025770000000 1.0
C      1  0.5382850000000  0.5312240000000  0.5426100000000 1.0
C      1  0.5324110000000  0.4558740000000  0.5072850000000 1.0
C      1  0.5421940000000  0.5209750000000  0.4519070000000 1.0
C      1  0.5412710000000  0.5024320000000  0.5051660000000 1.0
C      1  0.4820790000000  0.4965320000000  0.5020210000000 1.0
END
