TITL C-2622962-9663-53 -0.000174530964635155 125000 -227.403774918396 0 0 44 (D2) n - 1
REM
REM in /nfs/bkarasulu/CARBON/AIRSS/Generating-Clusters/AIREBO/with-SteepDescent/Higher-Symm/SD-CG/HFTN-CG
REM
REM
REM
REM
REM
REM ./C.cell (b20cbc046b6831c77cfcea5457e17084)
REM
REM compiler GCC version 9.2.1 20190827 (Red Hat 9.2.1-1)
REM options -cpp -mtune=generic -march=x86-64 -g -O0 -fpre-include=/usr/include/finclude/math-vector-fortran.h
REM seed -896083288 -308395763 2012851323 -1693331706 -1127315002 1115372737 186304919 -1778679143 -569661590 989876788 576549808 888226999 -1820288854 -1823930212 -383839318 2006055808 224599706 1292664024 2072255206 1027543858 -2142525125 1494247213 1177249395 658709501 -290886304 1158409169 909941562 -1972025027 805851880 1517165792 -967852130 1974389285 -915304756
REM
CELL 1.54180   50.00000   50.00000   50.00000   90.00000   90.00000   90.00000
LATT -1
SFAC C  
C      1  0.5035010000000  0.5224210000000  0.5382550000000 1.0
C      1  0.4653530000000  0.5209460000000  0.5047310000000 1.0
C      1  0.4964850000000  0.5224190000000  0.4617460000000 1.0
C      1  0.5346340000000  0.5209650000000  0.4952690000000 1.0
C      1  0.4965160000000  0.4726680000000  0.5382620000000 1.0
C      1  0.5347170000000  0.4741660000000  0.5046970000000 1.0
C      1  0.5034990000000  0.4726700000000  0.4617380000000 1.0
C      1  0.4652960000000  0.4741470000000  0.4953020000000 1.0
C      1  0.4819450000000  0.5459320000000  0.4915400000000 1.0
C      1  0.5108600000000  0.5486220000000  0.4760250000000 1.0
C      1  0.5180280000000  0.5459420000000  0.5084600000000 1.0
C      1  0.4891110000000  0.5486150000000  0.5239760000000 1.0
C      1  0.5180670000000  0.4491820000000  0.4915670000000 1.0
C      1  0.4891560000000  0.4464650000000  0.4760200000000 1.0
C      1  0.4819610000000  0.4491710000000  0.5084330000000 1.0
C      1  0.5108730000000  0.4464710000000  0.5239790000000 1.0
C      1  0.5577180000000  0.5119900000000  0.5438510000000 1.0
C      1  0.4543470000000  0.5076440000000  0.5583800000000 1.0
C      1  0.4422740000000  0.5119580000000  0.4561490000000 1.0
C      1  0.5456470000000  0.5076710000000  0.4416200000000 1.0
C      1  0.4422740000000  0.4831110000000  0.5438500000000 1.0
C      1  0.5456740000000  0.4874320000000  0.5583500000000 1.0
C      1  0.5577340000000  0.4831440000000  0.4561500000000 1.0
C      1  0.4543320000000  0.4874070000000  0.4416500000000 1.0
C      1  0.5284150000000  0.4644900000000  0.5468800000000 1.0
C      1  0.4556960000000  0.4622240000000  0.5256770000000 1.0
C      1  0.4716030000000  0.4644750000000  0.4531200000000 1.0
C      1  0.5443240000000  0.4622490000000  0.4743230000000 1.0
C      1  0.4716040000000  0.5305960000000  0.5469030000000 1.0
C      1  0.5442510000000  0.5329010000000  0.5257430000000 1.0
C      1  0.5283780000000  0.5306130000000  0.4530980000000 1.0
C      1  0.4557290000000  0.5328760000000  0.4742580000000 1.0
C      1  0.5567930000000  0.4952260000000  0.5162560000000 1.0
C      1  0.4839660000000  0.4946340000000  0.5592840000000 1.0
C      1  0.4432080000000  0.4951940000000  0.4837440000000 1.0
C      1  0.5160360000000  0.4946440000000  0.4407160000000 1.0
C      1  0.4432220000000  0.4999530000000  0.5162980000000 1.0
C      1  0.5160700000000  0.5004590000000  0.5592650000000 1.0
C      1  0.5567770000000  0.4999850000000  0.4837020000000 1.0
C      1  0.4839280000000  0.5004510000000  0.4407350000000 1.0
C      1  0.5244820000000  0.4983660000000  0.5263840000000 1.0
C      1  0.4755290000000  0.4967200000000  0.5264090000000 1.0
C      1  0.5244710000000  0.4967340000000  0.4735910000000 1.0
C      1  0.4755170000000  0.4983520000000  0.4736160000000 1.0
END
