TITL C-2622958-629-603 0.00075972336376646 125000 -977.456590553075 0 0 184 (C1) n - 1
REM
REM in /nfs/bkarasulu/CARBON/AIRSS/Generating-Clusters/AIREBO/with-SteepDescent/Higher-Symm/SD-CG/HFTN-CG
REM
REM
REM
REM
REM
REM ./C.cell (b20cbc046b6831c77cfcea5457e17084)
REM
REM compiler GCC version 9.2.1 20190827 (Red Hat 9.2.1-1)
REM options -cpp -mtune=generic -march=x86-64 -g -O0 -fpre-include=/usr/include/finclude/math-vector-fortran.h
REM seed -625931981 313407406 -1848643790 -1453480930 -821427367 -1552759391 1531821807 848395800 -2059841725 1578428566 -1617711009 2059183849 -1949157675 1081545231 1147393846 1485986401 -1389295313 -1617546168 -1190430356 1508891925 -1027034047 -753217834 -907080356 1526072100 -2116888721 822219320 -1165745646 723769804 -318242739 1445339856 -2102600162 -1392060158 642673230
REM
CELL 1.54180   50.00000   50.00000   50.00000   90.00000   90.00000   90.00000
LATT -1
SFAC C  
C      1  0.4467230000000  0.3962630000000  0.5483540000000 1.0
C      1  0.5616710000000  0.4239500000000  0.4568680000000 1.0
C      1  0.4050960000000  0.5140910000000  0.4734440000000 1.0
C      1  0.5808580000000  0.5082750000000  0.5265650000000 1.0
C      1  0.4207160000000  0.4398740000000  0.4827220000000 1.0
C      1  0.5998080000000  0.4392910000000  0.5238240000000 1.0
C      1  0.4792610000000  0.4982450000000  0.4117240000000 1.0
C      1  0.5131430000000  0.4882580000000  0.5773740000000 1.0
C      1  0.4634270000000  0.4636190000000  0.4375900000000 1.0
C      1  0.5533260000000  0.4683180000000  0.5515530000000 1.0
C      1  0.5411210000000  0.4265190000000  0.5743770000000 1.0
C      1  0.4668480000000  0.4293690000000  0.4171720000000 1.0
C      1  0.5567700000000  0.5892610000000  0.4848150000000 1.0
C      1  0.4405250000000  0.5886380000000  0.5216890000000 1.0
C      1  0.4567850000000  0.5094890000000  0.4852850000000 1.0
C      1  0.5348890000000  0.5065250000000  0.5077790000000 1.0
C      1  0.5323640000000  0.5111770000000  0.3990050000000 1.0
C      1  0.4631400000000  0.5147840000000  0.5982690000000 1.0
C      1  0.4662320000000  0.5697640000000  0.4449700000000 1.0
C      1  0.5178220000000  0.5754200000000  0.5476160000000 1.0
C      1  0.4069670000000  0.4779340000000  0.5543500000000 1.0
C      1  0.5920070000000  0.4673410000000  0.4559210000000 1.0
C      1  0.4404990000000  0.5033620000000  0.5134850000000 1.0
C      1  0.5626220000000  0.5051590000000  0.4881350000000 1.0
C      1  0.5563820000000  0.4911470000000  0.3931320000000 1.0
C      1  0.4420240000000  0.4752050000000  0.5924050000000 1.0
C      1  0.4884880000000  0.4554930000000  0.5146980000000 1.0
C      1  0.5141540000000  0.4552230000000  0.4976540000000 1.0
C      1  0.5701750000000  0.5199150000000  0.5630920000000 1.0
C      1  0.4320430000000  0.5135580000000  0.4442280000000 1.0
C      1  0.4136550000000  0.4577720000000  0.4542850000000 1.0
C      1  0.5964920000000  0.4634150000000  0.5483550000000 1.0
C      1  0.4722550000000  0.5385930000000  0.6086080000000 1.0
C      1  0.5237780000000  0.5364740000000  0.3876610000000 1.0
C      1  0.4193140000000  0.5321990000000  0.5774470000000 1.0
C      1  0.5915240000000  0.5342470000000  0.4249030000000 1.0
C      1  0.4379240000000  0.4479660000000  0.5178590000000 1.0
C      1  0.5778150000000  0.4496320000000  0.4887930000000 1.0
C      1  0.5609020000000  0.5306420000000  0.5906660000000 1.0
C      1  0.4410800000000  0.5352080000000  0.4038810000000 1.0
C      1  0.4938640000000  0.4230230000000  0.5512800000000 1.0
C      1  0.5103580000000  0.4334190000000  0.4571570000000 1.0
C      1  0.5704260000000  0.5584870000000  0.5736290000000 1.0
C      1  0.4073650000000  0.5779810000000  0.4576950000000 1.0
C      1  0.5606720000000  0.4571540000000  0.4640410000000 1.0
C      1  0.4393540000000  0.4756970000000  0.5311040000000 1.0
C      1  0.4344950000000  0.5310450000000  0.4713360000000 1.0
C      1  0.5443430000000  0.5234600000000  0.5448580000000 1.0
C      1  0.6081520000000  0.4761930000000  0.4794700000000 1.0
C      1  0.4000600000000  0.4768220000000  0.5239740000000 1.0
C      1  0.4954640000000  0.5720450000000  0.5221580000000 1.0
C      1  0.4972170000000  0.5798750000000  0.4502820000000 1.0
C      1  0.4451920000000  0.4756090000000  0.4114990000000 1.0
C      1  0.5607570000000  0.4765180000000  0.5837020000000 1.0
C      1  0.5847620000000  0.5392020000000  0.5420380000000 1.0
C      1  0.3903960000000  0.5628990000000  0.4699170000000 1.0
C      1  0.5253250000000  0.4175160000000  0.5492880000000 1.0
C      1  0.4813950000000  0.4205050000000  0.4467930000000 1.0
C      1  0.6160010000000  0.5225720000000  0.4721180000000 1.0
C      1  0.3931570000000  0.5092410000000  0.5310420000000 1.0
C      1  0.5118370000000  0.4953170000000  0.4210240000000 1.0
C      1  0.4821320000000  0.4985850000000  0.5805320000000 1.0
C      1  0.5712960000000  0.4413950000000  0.5422540000000 1.0
C      1  0.4456370000000  0.4485420000000  0.4612450000000 1.0
C      1  0.4671130000000  0.5924510000000  0.5414920000000 1.0
C      1  0.5465790000000  0.5868300000000  0.4541440000000 1.0
C      1  0.5576040000000  0.5580270000000  0.4793720000000 1.0
C      1  0.4292070000000  0.5576770000000  0.5262890000000 1.0
C      1  0.4018230000000  0.5427010000000  0.4872980000000 1.0
C      1  0.5728130000000  0.5370190000000  0.5102660000000 1.0
C      1  0.6059180000000  0.5323250000000  0.5034310000000 1.0
C      1  0.3835160000000  0.5404160000000  0.5365900000000 1.0
C      1  0.3980250000000  0.5261340000000  0.5604220000000 1.0
C      1  0.6000820000000  0.5375730000000  0.4503670000000 1.0
C      1  0.5284840000000  0.4799550000000  0.6065660000000 1.0
C      1  0.4742850000000  0.4801270000000  0.3833840000000 1.0
C      1  0.4503060000000  0.5913520000000  0.4945650000000 1.0
C      1  0.5508920000000  0.6008980000000  0.5152160000000 1.0
C      1  0.4762660000000  0.4609430000000  0.4834460000000 1.0
C      1  0.5382300000000  0.4572800000000  0.5141880000000 1.0
C      1  0.4569050000000  0.5398780000000  0.5247030000000 1.0
C      1  0.5359110000000  0.5373830000000  0.4698890000000 1.0
C      1  0.5137920000000  0.5238080000000  0.4874330000000 1.0
C      1  0.4776740000000  0.5290970000000  0.5036130000000 1.0
C      1  0.4271670000000  0.4839630000000  0.4370750000000 1.0
C      1  0.5833320000000  0.4915520000000  0.5631860000000 1.0
C      1  0.5500250000000  0.5091710000000  0.4571720000000 1.0
C      1  0.4483430000000  0.5138570000000  0.5448630000000 1.0
C      1  0.5004090000000  0.5995280000000  0.4766520000000 1.0
C      1  0.5090880000000  0.5987940000000  0.5082960000000 1.0
C      1  0.4158920000000  0.4789820000000  0.4939060000000 1.0
C      1  0.5800380000000  0.4696370000000  0.5069650000000 1.0
C      1  0.4044820000000  0.4471360000000  0.5117300000000 1.0
C      1  0.6197130000000  0.4506400000000  0.4986960000000 1.0
C      1  0.5321410000000  0.5737550000000  0.5075970000000 1.0
C      1  0.4796290000000  0.5776010000000  0.4922640000000 1.0
C      1  0.5650690000000  0.5646720000000  0.5427210000000 1.0
C      1  0.4348550000000  0.5770220000000  0.4684540000000 1.0
C      1  0.5230850000000  0.6090910000000  0.4584760000000 1.0
C      1  0.4888470000000  0.6098620000000  0.5323880000000 1.0
C      1  0.5258960000000  0.4488150000000  0.4312010000000 1.0
C      1  0.4761580000000  0.4403880000000  0.5731600000000 1.0
C      1  0.5677000000000  0.5182250000000  0.4077430000000 1.0
C      1  0.4326890000000  0.5072680000000  0.5935670000000 1.0
C      1  0.5411300000000  0.4787410000000  0.4258610000000 1.0
C      1  0.4658130000000  0.4704930000000  0.5759180000000 1.0
C      1  0.5554600000000  0.5017580000000  0.6058910000000 1.0
C      1  0.4474840000000  0.5091900000000  0.4064630000000 1.0
C      1  0.4566610000000  0.4140900000000  0.5684290000000 1.0
C      1  0.5559840000000  0.4368060000000  0.4302540000000 1.0
C      1  0.5570950000000  0.5630870000000  0.4332960000000 1.0
C      1  0.4400770000000  0.5748230000000  0.5533980000000 1.0
C      1  0.4971330000000  0.4681820000000  0.4353250000000 1.0
C      1  0.5042020000000  0.4578030000000  0.5679530000000 1.0
C      1  0.4661820000000  0.4329090000000  0.5100410000000 1.0
C      1  0.5427280000000  0.4140720000000  0.4969890000000 1.0
C      1  0.5342660000000  0.4551190000000  0.5840400000000 1.0
C      1  0.4653200000000  0.4520600000000  0.3996210000000 1.0
C      1  0.4782790000000  0.5073690000000  0.4613400000000 1.0
C      1  0.5119150000000  0.4970400000000  0.5310070000000 1.0
C      1  0.3865350000000  0.4701740000000  0.4803800000000 1.0
C      1  0.6089290000000  0.4785930000000  0.5135580000000 1.0
C      1  0.4888820000000  0.5432230000000  0.4747760000000 1.0
C      1  0.5080130000000  0.5349980000000  0.5190150000000 1.0
C      1  0.4746310000000  0.5592790000000  0.5413140000000 1.0
C      1  0.5230000000000  0.5644110000000  0.4537930000000 1.0
C      1  0.5762720000000  0.4572590000000  0.4270100000000 1.0
C      1  0.3904660000000  0.4643680000000  0.5716640000000 1.0
C      1  0.5691810000000  0.4229700000000  0.5693090000000 1.0
C      1  0.4434250000000  0.4260830000000  0.4358060000000 1.0
C      1  0.4792280000000  0.5417550000000  0.5664370000000 1.0
C      1  0.5230810000000  0.5421410000000  0.4324660000000 1.0
C      1  0.5664260000000  0.4119240000000  0.4821310000000 1.0
C      1  0.4268000000000  0.3999490000000  0.5284070000000 1.0
C      1  0.5089250000000  0.5528680000000  0.4072360000000 1.0
C      1  0.4926850000000  0.5558860000000  0.5916940000000 1.0
C      1  0.5477900000000  0.5861360000000  0.5418850000000 1.0
C      1  0.4605160000000  0.5976250000000  0.4625930000000 1.0
C      1  0.5066670000000  0.5171960000000  0.4453940000000 1.0
C      1  0.4950040000000  0.5153090000000  0.5541880000000 1.0
C      1  0.5003050000000  0.3957660000000  0.4862070000000 1.0
C      1  0.4985730000000  0.3920080000000  0.5138160000000 1.0
C      1  0.4108750000000  0.5104680000000  0.5057190000000 1.0
C      1  0.5927700000000  0.5047360000000  0.4885280000000 1.0
C      1  0.5567800000000  0.4846970000000  0.5219550000000 1.0
C      1  0.4467770000000  0.4774660000000  0.4797060000000 1.0
C      1  0.4254840000000  0.4959980000000  0.5626060000000 1.0
C      1  0.5705010000000  0.4878230000000  0.4404000000000 1.0
C      1  0.5201140000000  0.4145200000000  0.4800530000000 1.0
C      1  0.4776850000000  0.4106660000000  0.5276690000000 1.0
C      1  0.5063700000000  0.4654800000000  0.4677670000000 1.0
C      1  0.4929340000000  0.4707650000000  0.5395540000000 1.0
C      1  0.4807670000000  0.5375950000000  0.4071680000000 1.0
C      1  0.5197850000000  0.5387190000000  0.5850170000000 1.0
C      1  0.4684250000000  0.4289020000000  0.4770870000000 1.0
C      1  0.5447020000000  0.4284380000000  0.5254050000000 1.0
C      1  0.4645670000000  0.3726980000000  0.4598800000000 1.0
C      1  0.4687930000000  0.3791530000000  0.5368470000000 1.0
C      1  0.4858110000000  0.5752830000000  0.4181720000000 1.0
C      1  0.5162820000000  0.5773390000000  0.5800780000000 1.0
C      1  0.4841690000000  0.5411470000000  0.4409830000000 1.0
C      1  0.5163500000000  0.5416320000000  0.5513080000000 1.0
C      1  0.5902460000000  0.4233350000000  0.4958790000000 1.0
C      1  0.4284700000000  0.4173310000000  0.5078090000000 1.0
C      1  0.5348950000000  0.4939390000000  0.5540580000000 1.0
C      1  0.4665450000000  0.4938710000000  0.4395910000000 1.0
C      1  0.4900670000000  0.4988800000000  0.5077220000000 1.0
C      1  0.5011320000000  0.4952950000000  0.4782570000000 1.0
C      1  0.5254890000000  0.5130030000000  0.5956630000000 1.0
C      1  0.4788840000000  0.5144330000000  0.3822460000000 1.0
C      1  0.5854790000000  0.5462100000000  0.4800670000000 1.0
C      1  0.4031540000000  0.5492360000000  0.5158590000000 1.0
C      1  0.4659250000000  0.4845110000000  0.5469630000000 1.0
C      1  0.5374860000000  0.4764870000000  0.4595900000000 1.0
C      1  0.4817690000000  0.3932200000000  0.4651060000000 1.0
C      1  0.5193750000000  0.3897150000000  0.5320540000000 1.0
C      1  0.5406270000000  0.5446170000000  0.5183580000000 1.0
C      1  0.4573670000000  0.5546160000000  0.4806980000000 1.0
C      1  0.6084300000000  0.4940000000000  0.5404790000000 1.0
C      1  0.4011190000000  0.4891220000000  0.4583120000000 1.0
C      1  0.5523220000000  0.5315240000000  0.4316440000000 1.0
C      1  0.4454220000000  0.5425890000000  0.5628670000000 1.0
C      1  0.5432440000000  0.5602770000000  0.5922180000000 1.0
C      1  0.4572820000000  0.5602610000000  0.4059800000000 1.0
END
