TITL C-2622954-8726-113 66.8617903858976 125000 -1034.49467183187 0 0 198 (C1) n - 1
REM
REM in /nfs/bkarasulu/CARBON/AIRSS/Generating-Clusters/AIREBO/with-SteepDescent/Higher-Symm/SD-CG/HFTN-CG
REM
REM
REM
REM
REM
REM ./C.cell (b20cbc046b6831c77cfcea5457e17084)
REM
REM compiler GCC version 9.2.1 20190827 (Red Hat 9.2.1-1)
REM options -cpp -mtune=generic -march=x86-64 -g -O0 -fpre-include=/usr/include/finclude/math-vector-fortran.h
REM seed -1299569493 -1717311968 1753161498 -222085547 2002182876 1014351962 -740654177 2038244058 1183161305 -336168218 430548491 -427106095 997299773 2113572494 -878141974 730422621 -471696691 -98297807 1363981770 -1973711302 1875563733 -1913770010 1967725837 -2112878815 558242738 -1949343283 -1446861724 768276624 2081534250 1738354065 590703894 -678972703 -697048511
REM
CELL 1.54180   50.00000   50.00000   50.00000   90.00000   90.00000   90.00000
LATT -1
SFAC C  
C      1  0.4708360000000  0.5036580000000  0.3834330000000 1.0
C      1  0.5198840000000  0.5511550000000  0.5528790000000 1.0
C      1  0.5371400000000  0.4557400000000  0.5786220000000 1.0
C      1  0.4054190000000  0.5321870000000  0.4502820000000 1.0
C      1  0.6085580000000  0.5047080000000  0.5238910000000 1.0
C      1  0.4516620000000  0.4151160000000  0.4496260000000 1.0
C      1  0.3999580000000  0.5376730000000  0.5268470000000 1.0
C      1  0.6011050000000  0.5317700000000  0.4741440000000 1.0
C      1  0.4489220000000  0.5464530000000  0.4102720000000 1.0
C      1  0.5162100000000  0.5420060000000  0.4113900000000 1.0
C      1  0.5426750000000  0.5226620000000  0.3885060000000 1.0
C      1  0.4847640000000  0.5927980000000  0.4873740000000 1.0
C      1  0.5266600000000  0.4009240000000  0.5139030000000 1.0
C      1  0.5328930000000  0.5898260000000  0.4503250000000 1.0
C      1  0.4742570000000  0.5505440000000  0.5608140000000 1.0
C      1  0.5641470000000  0.5150470000000  0.5315520000000 1.0
C      1  0.5017140000000  0.5731560000000  0.5177260000000 1.0
C      1  0.4054880000000  0.4486490000000  0.5668280000000 1.0
C      1  0.5996020000000  0.4384450000000  0.5438580000000 1.0
C      1  0.4782850000000  0.5407040000000  0.3991630000000 1.0
C      1  0.4386030000000  0.5819610000000  0.5515840000000 1.0
C      1  0.5668930000000  0.5313820000000  0.5612450000000 1.0
C      1  0.4969640000000  0.4541420000000  0.5958760000000 1.0
C      1  0.4656060000000  0.4709090000000  0.5669330000000 1.0
C      1  0.5046440000000  0.5477490000000  0.3808830000000 1.0
C      1  0.4493460000000  0.5576900000000  0.5098190000000 1.0
C      1  0.5621860000000  0.6069330000000  0.4845920000000 1.0
C      1  0.5979970000000  0.4468340000000  0.5032270000000 1.0
C      1  0.4918600000000  0.4075720000000  0.4149490000000 1.0
C      1  0.5391260000000  0.4368530000000  0.4355470000000 1.0
C      1  0.6021370000000  0.5025110000000  0.4904790000000 1.0
C      1  0.4041020000000  0.4469550000000  0.4435100000000 1.0
C      1  0.4276670000000  0.4309560000000  0.4463050000000 1.0
C      1  0.4604410000000  0.4194530000000  0.5110470000000 1.0
C      1  0.5565220000000  0.4563800000000  0.5442380000000 1.0
C      1  0.4081040000000  0.5631690000000  0.5058160000000 1.0
C      1  0.4518660000000  0.5163130000000  0.5432380000000 1.0
C      1  0.5262470000000  0.5346970000000  0.3681450000000 1.0
C      1  0.3858760000000  0.5414130000000  0.4975570000000 1.0
C      1  0.4674560000000  0.3955050000000  0.4917230000000 1.0
C      1  0.5789420000000  0.5828780000000  0.5810340000000 1.0
C      1  0.4507750000000  0.4973750000000  0.4005760000000 1.0
C      1  0.4894460000000  0.4591220000000  0.4273280000000 1.0
C      1  0.5252570000000  0.5465440000000  0.4733620000000 1.0
C      1  0.4720100000000  0.4534220000000  0.5384430000000 1.0
C      1  0.5951710000000  0.5373170000000  0.5432850000000 1.0
C      1  0.4454870000000  0.5498710000000  0.5427020000000 1.0
C      1  0.4586810000000  0.5886130000000  0.4745670000000 1.0
C      1  0.4827390000000  0.4959540000000  0.4681140000000 1.0
C      1  0.5321040000000  0.5580340000000  0.5155860000000 1.0
C      1  0.4946920000000  0.4299560000000  0.5286440000000 1.0
C      1  0.5972780000000  0.5067240000000  0.5560650000000 1.0
C      1  0.4637570000000  0.4258380000000  0.4132270000000 1.0
C      1  0.5797460000000  0.4809420000000  0.4399420000000 1.0
C      1  0.4938380000000  0.5373860000000  0.5853140000000 1.0
C      1  0.4073530000000  0.4790760000000  0.4339060000000 1.0
C      1  0.4684390000000  0.4421940000000  0.5849350000000 1.0
C      1  0.5017280000000  0.4684570000000  0.5047470000000 1.0
C      1  0.5143720000000  0.4673150000000  0.5561500000000 1.0
C      1  0.4563260000000  0.5897390000000  0.4300990000000 1.0
C      1  0.4957240000000  0.5117310000000  0.3955350000000 1.0
C      1  0.6016290000000  0.4493450000000  0.4736530000000 1.0
C      1  0.5427320000000  0.4580540000000  0.4583930000000 1.0
C      1  0.4522440000000  0.5194030000000  0.4786430000000 1.0
C      1  0.4324470000000  0.4175280000000  0.5265530000000 1.0
C      1  0.5002670000000  0.4717420000000  0.4533660000000 1.0
C      1  0.4382880000000  0.4693970000000  0.4441870000000 1.0
C      1  0.4389020000000  0.4653930000000  0.6099390000000 1.0
C      1  0.4393730000000  0.4483120000000  0.4711420000000 1.0
C      1  0.4606990000000  0.4765230000000  0.4221460000000 1.0
C      1  0.4574280000000  0.4757310000000  0.5172950000000 1.0
C      1  0.5448440000000  0.4282570000000  0.5199070000000 1.0
C      1  0.4804100000000  0.5552980000000  0.5005300000000 1.0
C      1  0.5637990000000  0.5499130000000  0.4319910000000 1.0
C      1  0.4532680000000  0.5301670000000  0.4464350000000 1.0
C      1  0.5773790000000  0.5787630000000  0.4748520000000 1.0
C      1  0.4686750000000  0.4139590000000  0.5436030000000 1.0
C      1  0.4630480000000  0.5881840000000  0.5652140000000 1.0
C      1  0.5272830000000  0.5064460000000  0.5187790000000 1.0
C      1  0.4203320000000  0.5568340000000  0.4509020000000 1.0
C      1  0.4218040000000  0.5126210000000  0.5283260000000 1.0
C      1  0.5425600000000  0.5729910000000  0.5442990000000 1.0
C      1  0.5035800000000  0.4371810000000  0.5676290000000 1.0
C      1  0.5017260000000  0.3996580000000  0.4422530000000 1.0
C      1  0.3985380000000  0.4454000000000  0.5159010000000 1.0
C      1  0.5390350000000  0.4472420000000  0.4078740000000 1.0
C      1  0.4632430000000  0.4821370000000  0.5989540000000 1.0
C      1  0.4851300000000  0.5253760000000  0.4850200000000 1.0
C      1  0.5420820000000  0.5512150000000  0.5924860000000 1.0
C      1  0.5221680000000  0.4659080000000  0.6062600000000 1.0
C      1  0.4752170000000  0.5009260000000  0.5148880000000 1.0
C      1  0.5031230000000  0.4037550000000  0.5752690000000 1.0
C      1  0.3901830000000  0.4466090000000  0.4683070000000 1.0
C      1  0.5831230000000  0.5092850000000  0.4560270000000 1.0
C      1  0.3805940000000  0.4945620000000  0.4754770000000 1.0
C      1  0.5153310000000  0.5600250000000  0.5914760000000 1.0
C      1  0.5572520000000  0.5673740000000  0.5740070000000 1.0
C      1  0.4225270000000  0.5121070000000  0.4934920000000 1.0
C      1  0.4930890000000  0.4919830000000  0.6108630000000 1.0
C      1  0.5745940000000  0.5080620000000  0.5825830000000 1.0
C      1  0.5458000000000  0.5183090000000  0.5979900000000 1.0
C      1  0.5564680000000  0.4805930000000  0.5912190000000 1.0
C      1  0.5113820000000  0.5927260000000  0.4321110000000 1.0
C      1  0.5002510000000  0.4487270000000  0.4770940000000 1.0
C      1  0.5678020000000  0.4154860000000  0.5502060000000 1.0
C      1  0.4919580000000  0.5267640000000  0.5259130000000 1.0
C      1  0.5258140000000  0.4987060000000  0.4047480000000 1.0
C      1  0.4674800000000  0.5670500000000  0.5897580000000 1.0
C      1  0.4390380000000  0.5661480000000  0.4280130000000 1.0
C      1  0.4218030000000  0.4590810000000  0.5894260000000 1.0
C      1  0.4250510000000  0.4833020000000  0.5114010000000 1.0
C      1  0.5516650000000  0.5628860000000  0.4592080000000 1.0
C      1  0.4436590000000  0.4878670000000  0.4701610000000 1.0
C      1  0.6239770000000  0.4559780000000  0.5174580000000 1.0
C      1  0.5196380000000  0.4933940000000  0.5773320000000 1.0
C      1  0.5339720000000  0.6048840000000  0.4746240000000 1.0
C      1  0.5581820000000  0.5373540000000  0.5086040000000 1.0
C      1  0.4499680000000  0.6043720000000  0.4538500000000 1.0
C      1  0.6034130000000  0.4782020000000  0.4667180000000 1.0
C      1  0.4668220000000  0.5426190000000  0.6078510000000 1.0
C      1  0.5017030000000  0.4885000000000  0.5322210000000 1.0
C      1  0.5328980000000  0.4440240000000  0.4853850000000 1.0
C      1  0.3919730000000  0.5217820000000  0.5532610000000 1.0
C      1  0.4409510000000  0.4442800000000  0.5355330000000 1.0
C      1  0.4125550000000  0.5117170000000  0.4316990000000 1.0
C      1  0.6000330000000  0.5611110000000  0.4902970000000 1.0
C      1  0.4549950000000  0.5266540000000  0.5116590000000 1.0
C      1  0.5431850000000  0.4763960000000  0.5201990000000 1.0
C      1  0.4179930000000  0.5063110000000  0.5688290000000 1.0
C      1  0.5353640000000  0.5196040000000  0.5490780000000 1.0
C      1  0.5787960000000  0.4267050000000  0.5210770000000 1.0
C      1  0.4546300000000  0.4492860000000  0.4027090000000 1.0
C      1  0.5492530000000  0.5429220000000  0.4107150000000 1.0
C      1  0.5749840000000  0.4670250000000  0.5126320000000 1.0
C      1  0.4201600000000  0.5390320000000  0.5612560000000 1.0
C      1  0.5475180000000  0.5098060000000  0.4917690000000 1.0
C      1  0.5589510000000  0.4651460000000  0.4853090000000 1.0
C      1  0.5269000000000  0.5181480000000  0.4326420000000 1.0
C      1  0.5348370000000  0.6038370000000  0.5414240000000 1.0
C      1  0.4971890000000  0.4061490000000  0.5043280000000 1.0
C      1  0.5527930000000  0.4389010000000  0.3874480000000 1.0
C      1  0.3930920000000  0.4886430000000  0.5513450000000 1.0
C      1  0.4875190000000  0.6167140000000  0.5115980000000 1.0
C      1  0.5836740000000  0.5546690000000  0.5180110000000 1.0
C      1  0.5755040000000  0.4845350000000  0.5422810000000 1.0
C      1  0.4778890000000  0.4315500000000  0.4435410000000 1.0
C      1  0.5013000000000  0.4359350000000  0.4054510000000 1.0
C      1  0.5021610000000  0.5222940000000  0.5559960000000 1.0
C      1  0.4780330000000  0.4983760000000  0.5545800000000 1.0
C      1  0.5148180000000  0.4676820000000  0.4063610000000 1.0
C      1  0.4732730000000  0.5040280000000  0.4385910000000 1.0
C      1  0.5666720000000  0.4282530000000  0.4468460000000 1.0
C      1  0.3975100000000  0.5218900000000  0.4778830000000 1.0
C      1  0.5161370000000  0.5947950000000  0.4958050000000 1.0
C      1  0.4292580000000  0.5637850000000  0.4830070000000 1.0
C      1  0.5209520000000  0.4515110000000  0.5267640000000 1.0
C      1  0.5444640000000  0.4143880000000  0.4890830000000 1.0
C      1  0.5019490000000  0.3960900000000  0.4721240000000 1.0
C      1  0.5135450000000  0.5328320000000  0.5022080000000 1.0
C      1  0.5519610000000  0.5774210000000  0.4971560000000 1.0
C      1  0.5689740000000  0.5399640000000  0.4770940000000 1.0
C      1  0.4131840000000  0.4604690000000  0.4891720000000 1.0
C      1  0.4656180000000  0.4736730000000  0.4872690000000 1.0
C      1  0.5278950000000  0.4829850000000  0.4510540000000 1.0
C      1  0.4892590000000  0.5319500000000  0.4294370000000 1.0
C      1  0.4841740000000  0.5563040000000  0.4475460000000 1.0
C      1  0.5123440000000  0.5800000000000  0.5692400000000 1.0
C      1  0.4384040000000  0.5184340000000  0.4181820000000 1.0
C      1  0.4680950000000  0.4412150000000  0.4860480000000 1.0
C      1  0.5705420000000  0.4937210000000  0.4832230000000 1.0
C      1  0.5278260000000  0.5133820000000  0.4662970000000 1.0
C      1  0.5109220000000  0.4291160000000  0.4514370000000 1.0
C      1  0.5471190000000  0.4897240000000  0.5602710000000 1.0
C      1  0.4896160000000  0.5766090000000  0.5470470000000 1.0
C      1  0.4568790000000  0.5570670000000  0.4661770000000 1.0
C      1  0.5640240000000  0.4089930000000  0.4661700000000 1.0
C      1  0.4981480000000  0.5638360000000  0.4748360000000 1.0
C      1  0.5147480000000  0.6108510000000  0.5248520000000 1.0
C      1  0.5861530000000  0.5352820000000  0.4374000000000 1.0
C      1  0.4691160000000  0.5139990000000  0.6079820000000 1.0
C      1  0.5176070000000  0.4144790000000  0.5484460000000 1.0
C      1  0.4545480000000  0.3943920000000  0.4683600000000 1.0
C      1  0.4849120000000  0.5823420000000  0.4310800000000 1.0
C      1  0.4053820000000  0.4189460000000  0.5194400000000 1.0
C      1  0.5119670000000  0.5144670000000  0.5984690000000 1.0
C      1  0.5496870000000  0.4914500000000  0.4278920000000 1.0
C      1  0.5859760000000  0.4482700000000  0.4472660000000 1.0
C      1  0.4163970000000  0.5963430000000  0.5458390000000 1.0
C      1  0.5095910000000  0.4925670000000  0.4860620000000 1.0
C      1  0.4659970000000  0.4176470000000  0.5704870000000 1.0
C      1  0.6112950000000  0.5366090000000  0.5124460000000 1.0
C      1  0.6285360000000  0.4801160000000  0.5223300000000 1.0
C      1  0.4096090000000  0.4855850000000  0.4665300000000 1.0
C      1  0.5383020000000  0.4907900000000  0.6165640000000 1.0
C      1  0.5988090000000  0.4619500000000  0.5524380000000 1.0
C      1  0.4324150000000  0.4780970000000  0.5648860000000 1.0
C      1  0.5440440000000  0.4307320000000  0.5597040000000 1.0
C      1  0.4147370000000  0.4657140000000  0.5386130000000 1.0
END
