TITL C-2622954-8726-517 -0.00436264818051376 125000 -414.445606242904 0 0 70 (C1) n - 1
REM
REM in /nfs/bkarasulu/CARBON/AIRSS/Generating-Clusters/AIREBO/with-SteepDescent/Higher-Symm/SD-CG/HFTN-CG
REM
REM
REM
REM
REM
REM ./C.cell (b20cbc046b6831c77cfcea5457e17084)
REM
REM compiler GCC version 9.2.1 20190827 (Red Hat 9.2.1-1)
REM options -cpp -mtune=generic -march=x86-64 -g -O0 -fpre-include=/usr/include/finclude/math-vector-fortran.h
REM seed 372588702 735079006 1407484843 -1273276925 577271341 -2138414980 -1759435048 -709652558 1347930499 -1283783450 -2003352551 85467315 815917994 555398662 865397746 -99816172 400040427 -2003712791 -949252525 1889180059 -1689992981 -1484281850 -978991402 -178882813 432263378 -1971895055 -845092857 -1717431915 -1100000023 -90083690 -1450019333 -2061650487 1398537470
REM
CELL 1.54180   50.00000   50.00000   50.00000   90.00000   90.00000   90.00000
LATT -1
SFAC C  
C      1  0.4306660000000  0.5634010000000  0.5477470000000 1.0
C      1  0.5444060000000  0.5738960000000  0.5452310000000 1.0
C      1  0.5800170000000  0.4764670000000  0.5469860000000 1.0
C      1  0.5096750000000  0.4242780000000  0.5487430000000 1.0
C      1  0.4233170000000  0.4683030000000  0.5501300000000 1.0
C      1  0.5599130000000  0.5542500000000  0.5484730000000 1.0
C      1  0.4564090000000  0.5726820000000  0.5468500000000 1.0
C      1  0.4169430000000  0.4925690000000  0.5490230000000 1.0
C      1  0.4846520000000  0.4245930000000  0.5468770000000 1.0
C      1  0.5766540000000  0.4518790000000  0.5438470000000 1.0
C      1  0.4158430000000  0.4887130000000  0.4788120000000 1.0
C      1  0.4648790000000  0.5754460000000  0.4801430000000 1.0
C      1  0.5606460000000  0.5612780000000  0.4821360000000 1.0
C      1  0.5744100000000  0.4684000000000  0.4836220000000 1.0
C      1  0.4893720000000  0.4119880000000  0.4827040000000 1.0
C      1  0.5836240000000  0.4942600000000  0.4796450000000 1.0
C      1  0.5373070000000  0.5801680000000  0.4868350000000 1.0
C      1  0.4391380000000  0.5596410000000  0.4817740000000 1.0
C      1  0.4218010000000  0.4592860000000  0.4804890000000 1.0
C      1  0.5186990000000  0.4129750000000  0.4809510000000 1.0
C      1  0.4741500000000  0.5222130000000  0.5085890000000 1.0
C      1  0.5148780000000  0.5492750000000  0.5100220000000 1.0
C      1  0.5435910000000  0.5004090000000  0.5162230000000 1.0
C      1  0.5141830000000  0.4612800000000  0.5154560000000 1.0
C      1  0.4608690000000  0.4749790000000  0.5124700000000 1.0
C      1  0.5386730000000  0.5289930000000  0.5045890000000 1.0
C      1  0.4877020000000  0.5434460000000  0.5205010000000 1.0
C      1  0.4573930000000  0.5036130000000  0.5213510000000 1.0
C      1  0.4872760000000  0.4569980000000  0.5032830000000 1.0
C      1  0.5304320000000  0.4799990000000  0.5027040000000 1.0
C      1  0.5635560000000  0.5326460000000  0.5275290000000 1.0
C      1  0.5592080000000  0.4381370000000  0.5257170000000 1.0
C      1  0.4689410000000  0.4378600000000  0.5243920000000 1.0
C      1  0.4281750000000  0.5111440000000  0.5272370000000 1.0
C      1  0.4745920000000  0.5680600000000  0.5263070000000 1.0
C      1  0.4227280000000  0.5432810000000  0.5311190000000 1.0
C      1  0.4411230000000  0.4546240000000  0.5304020000000 1.0
C      1  0.5271260000000  0.4369530000000  0.5274400000000 1.0
C      1  0.5734220000000  0.5002020000000  0.5299920000000 1.0
C      1  0.5273400000000  0.5767000000000  0.5220180000000 1.0
C      1  0.5535090000000  0.4477460000000  0.4665420000000 1.0
C      1  0.4712480000000  0.4296960000000  0.4609760000000 1.0
C      1  0.4298100000000  0.5048680000000  0.4571600000000 1.0
C      1  0.4851980000000  0.5665080000000  0.4611790000000 1.0
C      1  0.5695920000000  0.5398740000000  0.4594250000000 1.0
C      1  0.4500910000000  0.4495040000000  0.4658810000000 1.0
C      1  0.5285530000000  0.4285490000000  0.4585200000000 1.0
C      1  0.5710770000000  0.5082560000000  0.4577390000000 1.0
C      1  0.5136320000000  0.5782840000000  0.4627520000000 1.0
C      1  0.4412480000000  0.5325340000000  0.4682120000000 1.0
C      1  0.5349600000000  0.4755840000000  0.4728600000000 1.0
C      1  0.4904610000000  0.4508410000000  0.4734750000000 1.0
C      1  0.4580620000000  0.4968400000000  0.4664780000000 1.0
C      1  0.4901900000000  0.5372300000000  0.4627830000000 1.0
C      1  0.5400970000000  0.5286020000000  0.4720440000000 1.0
C      1  0.4588710000000  0.4739420000000  0.4807970000000 1.0
C      1  0.5146620000000  0.4544430000000  0.4612120000000 1.0
C      1  0.5417560000000  0.4997190000000  0.4573380000000 1.0
C      1  0.5165160000000  0.5475500000000  0.4771290000000 1.0
C      1  0.4708340000000  0.5223570000000  0.4783490000000 1.0
C      1  0.5389360000000  0.4178520000000  0.5028130000000 1.0
C      1  0.4363740000000  0.4398050000000  0.5018240000000 1.0
C      1  0.4201260000000  0.5401320000000  0.5010700000000 1.0
C      1  0.5075570000000  0.5902720000000  0.4999090000000 1.0
C      1  0.5857080000000  0.5117160000000  0.5020010000000 1.0
C      1  0.4621090000000  0.4190560000000  0.4981890000000 1.0
C      1  0.5671010000000  0.4367110000000  0.4943150000000 1.0
C      1  0.5770950000000  0.5417840000000  0.4985920000000 1.0
C      1  0.4793540000000  0.5851920000000  0.5035830000000 1.0
C      1  0.4115500000000  0.5092690000000  0.4984890000000 1.0
END
