TITL C-2622961-1971-513 -0.000306459114290574 125000 -279.203408857531 0 0 47 (C1) n - 1
REM
REM in /nfs/bkarasulu/CARBON/AIRSS/Generating-Clusters/AIREBO/with-SteepDescent/Higher-Symm/SD-CG/HFTN-CG
REM
REM
REM
REM
REM
REM ./C.cell (b20cbc046b6831c77cfcea5457e17084)
REM
REM compiler GCC version 9.2.1 20190827 (Red Hat 9.2.1-1)
REM options -cpp -mtune=generic -march=x86-64 -g -O0 -fpre-include=/usr/include/finclude/math-vector-fortran.h
REM seed 1596681947 459995167 1047094046 -464500336 -445644851 2065556769 555748125 1763221897 -1080386436 1040013179 -1392572214 -422367740 -2121309059 1484911282 -1738202170 1108562643 621098031 -1964774080 2101309296 -579750779 280203428 -120178120 -1456251350 821141643 -830206054 1182231080 141409595 -128920439 1328960877 1656519425 1982405801 -913651987 -1382456200
REM
CELL 1.54180   50.00000   50.00000   50.00000   90.00000   90.00000   90.00000
LATT -1
SFAC C  
C      1  0.5623730000000  0.4722380000000  0.4340370000000 1.0
C      1  0.4538680000000  0.4686010000000  0.5704430000000 1.0
C      1  0.4260210000000  0.5616110000000  0.4442720000000 1.0
C      1  0.5753050000000  0.5645680000000  0.5551810000000 1.0
C      1  0.5405880000000  0.4862670000000  0.4888930000000 1.0
C      1  0.4542540000000  0.4929190000000  0.5157830000000 1.0
C      1  0.5189420000000  0.5652730000000  0.4748740000000 1.0
C      1  0.4818360000000  0.5670290000000  0.5251150000000 1.0
C      1  0.4818470000000  0.5027850000000  0.5840970000000 1.0
C      1  0.5219480000000  0.4996940000000  0.4192570000000 1.0
C      1  0.5367050000000  0.4578060000000  0.4417920000000 1.0
C      1  0.4710620000000  0.4492730000000  0.5534430000000 1.0
C      1  0.4711400000000  0.5619600000000  0.4734830000000 1.0
C      1  0.5297230000000  0.5647150000000  0.5267010000000 1.0
C      1  0.5089910000000  0.4850360000000  0.5472360000000 1.0
C      1  0.4944070000000  0.4798930000000  0.4563440000000 1.0
C      1  0.5022410000000  0.5329050000000  0.5528910000000 1.0
C      1  0.4992660000000  0.5293490000000  0.4488110000000 1.0
C      1  0.4666340000000  0.5040450000000  0.5374250000000 1.0
C      1  0.5348750000000  0.5003810000000  0.4665840000000 1.0
C      1  0.5058870000000  0.5232610000000  0.4216780000000 1.0
C      1  0.4967430000000  0.5267480000000  0.5803860000000 1.0
C      1  0.5457800000000  0.4706650000000  0.5147280000000 1.0
C      1  0.4594300000000  0.4760610000000  0.4897860000000 1.0
C      1  0.5452580000000  0.4967910000000  0.4397500000000 1.0
C      1  0.4583580000000  0.4978300000000  0.5645990000000 1.0
C      1  0.5141630000000  0.4309780000000  0.4743560000000 1.0
C      1  0.4779530000000  0.4293710000000  0.5080110000000 1.0
C      1  0.5368490000000  0.4446860000000  0.4664270000000 1.0
C      1  0.4637950000000  0.4432140000000  0.5277920000000 1.0
C      1  0.4164750000000  0.4543420000000  0.5159670000000 1.0
C      1  0.5820450000000  0.4454460000000  0.4875410000000 1.0
C      1  0.5133170000000  0.4733710000000  0.4342840000000 1.0
C      1  0.4897440000000  0.4735070000000  0.5682670000000 1.0
C      1  0.4954880000000  0.5090330000000  0.5378020000000 1.0
C      1  0.5059740000000  0.5061920000000  0.4646740000000 1.0
C      1  0.4722670000000  0.5708040000000  0.5000220000000 1.0
C      1  0.5284970000000  0.5713160000000  0.4995210000000 1.0
C      1  0.5337310000000  0.4769020000000  0.5382270000000 1.0
C      1  0.4792240000000  0.4644440000000  0.4745400000000 1.0
C      1  0.4961560000000  0.5538740000000  0.4627690000000 1.0
C      1  0.5048220000000  0.5568810000000  0.5379460000000 1.0
C      1  0.4429960000000  0.4615910000000  0.5151640000000 1.0
C      1  0.5565040000000  0.4556900000000  0.4875130000000 1.0
C      1  0.5528960000000  0.5659050000000  0.5416550000000 1.0
C      1  0.4477410000000  0.5605430000000  0.4589010000000 1.0
C      1  0.4901130000000  0.4401910000000  0.4849750000000 1.0
END
