TITL C-2622966-9038-179 -0.00211766499878009 125000 -1010.17660405845 0 0 185 (C1) n - 1
REM
REM in /nfs/bkarasulu/CARBON/AIRSS/Generating-Clusters/AIREBO/with-SteepDescent/Higher-Symm/SD-CG/HFTN-CG
REM
REM
REM
REM
REM
REM ./C.cell (b20cbc046b6831c77cfcea5457e17084)
REM
REM compiler GCC version 9.2.1 20190827 (Red Hat 9.2.1-1)
REM options -cpp -mtune=generic -march=x86-64 -g -O0 -fpre-include=/usr/include/finclude/math-vector-fortran.h
REM seed 1516957398 -1264232906 -1938376142 629006180 -1966556843 -213816658 1850487340 -389824539 13778171 2015627958 -289168880 -576752569 -1583501018 1934385315 -2105331909 823558392 1338366411 5262413 -972517031 70562458 1446699325 949916670 1307045521 -1469684416 1090087371 2015672795 -1019404095 -1571800071 641244555 -218519512 -918306688 -708327600 -959404997
REM
CELL 1.54180   50.00000   50.00000   50.00000   90.00000   90.00000   90.00000
LATT -1
SFAC C  
C      1  0.5258420000000  0.5120060000000  0.3915530000000 1.0
C      1  0.5288060000000  0.4833850000000  0.3909950000000 1.0
C      1  0.5079650000000  0.4642930000000  0.3937570000000 1.0
C      1  0.4805570000000  0.4694570000000  0.3949660000000 1.0
C      1  0.4662810000000  0.4938540000000  0.3922310000000 1.0
C      1  0.4763090000000  0.5206990000000  0.3903650000000 1.0
C      1  0.5033140000000  0.5287710000000  0.3909170000000 1.0
C      1  0.5636100000000  0.5174580000000  0.5454190000000 1.0
C      1  0.5583850000000  0.4597220000000  0.5365850000000 1.0
C      1  0.5118240000000  0.4326110000000  0.5238140000000 1.0
C      1  0.4479630000000  0.4650530000000  0.5331450000000 1.0
C      1  0.4395090000000  0.5178230000000  0.5443220000000 1.0
C      1  0.4681700000000  0.5605470000000  0.5350210000000 1.0
C      1  0.5186800000000  0.5629150000000  0.5194060000000 1.0
C      1  0.5038890000000  0.4097690000000  0.4523360000000 1.0
C      1  0.4308890000000  0.4453300000000  0.4495250000000 1.0
C      1  0.4158240000000  0.5192670000000  0.4457350000000 1.0
C      1  0.4590340000000  0.5755580000000  0.4462670000000 1.0
C      1  0.5325220000000  0.5794940000000  0.4442850000000 1.0
C      1  0.5831880000000  0.5178390000000  0.4418270000000 1.0
C      1  0.5707250000000  0.4433650000000  0.4468240000000 1.0
C      1  0.5726580000000  0.4399540000000  0.5602920000000 1.0
C      1  0.5044060000000  0.4182310000000  0.5533820000000 1.0
C      1  0.4353820000000  0.4430980000000  0.5558690000000 1.0
C      1  0.4142620000000  0.5120600000000  0.5600200000000 1.0
C      1  0.4731430000000  0.5765060000000  0.5646330000000 1.0
C      1  0.5363910000000  0.5870430000000  0.5705290000000 1.0
C      1  0.5854290000000  0.5213230000000  0.5712140000000 1.0
C      1  0.5790080000000  0.4713660000000  0.5687290000000 1.0
C      1  0.5276550000000  0.4216750000000  0.5712750000000 1.0
C      1  0.4554430000000  0.4293160000000  0.5724150000000 1.0
C      1  0.4148480000000  0.4865830000000  0.5710510000000 1.0
C      1  0.4513590000000  0.5594400000000  0.5851520000000 1.0
C      1  0.5062100000000  0.5841420000000  0.5761580000000 1.0
C      1  0.5650850000000  0.5447940000000  0.5808870000000 1.0
C      1  0.4411740000000  0.5792200000000  0.4749740000000 1.0
C      1  0.5187010000000  0.5997420000000  0.4679050000000 1.0
C      1  0.5884010000000  0.5548200000000  0.4862900000000 1.0
C      1  0.5840410000000  0.4555570000000  0.4756580000000 1.0
C      1  0.5265510000000  0.3945600000000  0.4727410000000 1.0
C      1  0.4362120000000  0.4233850000000  0.4738700000000 1.0
C      1  0.4048580000000  0.5019570000000  0.4731330000000 1.0
C      1  0.4989260000000  0.5742640000000  0.4447920000000 1.0
C      1  0.5541630000000  0.5352190000000  0.4453360000000 1.0
C      1  0.5675540000000  0.4771110000000  0.4441210000000 1.0
C      1  0.5273190000000  0.4346430000000  0.4492950000000 1.0
C      1  0.4646580000000  0.4421860000000  0.4529700000000 1.0
C      1  0.4343780000000  0.4908990000000  0.4486240000000 1.0
C      1  0.4493520000000  0.5429530000000  0.4452440000000 1.0
C      1  0.4719040000000  0.4118430000000  0.5564270000000 1.0
C      1  0.4129280000000  0.4660960000000  0.5524010000000 1.0
C      1  0.4346180000000  0.5672160000000  0.5610830000000 1.0
C      1  0.4941920000000  0.5963470000000  0.5467600000000 1.0
C      1  0.5571200000000  0.5666570000000  0.5648370000000 1.0
C      1  0.5930510000000  0.4924920000000  0.5547900000000 1.0
C      1  0.5504300000000  0.4178780000000  0.5555950000000 1.0
C      1  0.5117820000000  0.5985070000000  0.5013060000000 1.0
C      1  0.5868440000000  0.5558810000000  0.5188360000000 1.0
C      1  0.6000680000000  0.4673520000000  0.5026960000000 1.0
C      1  0.5262030000000  0.3957350000000  0.5067750000000 1.0
C      1  0.4391500000000  0.4196320000000  0.5075490000000 1.0
C      1  0.3950830000000  0.4997660000000  0.5056310000000 1.0
C      1  0.4336120000000  0.5811180000000  0.5070220000000 1.0
C      1  0.4968930000000  0.4024590000000  0.5176650000000 1.0
C      1  0.4224970000000  0.4472270000000  0.5184310000000 1.0
C      1  0.3958960000000  0.5303950000000  0.5203820000000 1.0
C      1  0.4506720000000  0.5975150000000  0.5238470000000 1.0
C      1  0.5379990000000  0.5896910000000  0.5211030000000 1.0
C      1  0.5943400000000  0.5257870000000  0.5328060000000 1.0
C      1  0.5906160000000  0.4528650000000  0.5272030000000 1.0
C      1  0.4321690000000  0.4831840000000  0.5931410000000 1.0
C      1  0.4534420000000  0.5384830000000  0.6029610000000 1.0
C      1  0.5002260000000  0.5597610000000  0.5958750000000 1.0
C      1  0.5494090000000  0.5372690000000  0.6033400000000 1.0
C      1  0.5647500000000  0.4796800000000  0.5903230000000 1.0
C      1  0.5245960000000  0.4377770000000  0.5928910000000 1.0
C      1  0.4663080000000  0.4403840000000  0.5945840000000 1.0
C      1  0.4876930000000  0.5744510000000  0.4768820000000 1.0
C      1  0.5571850000000  0.5550660000000  0.4727850000000 1.0
C      1  0.5680590000000  0.4921170000000  0.4734820000000 1.0
C      1  0.5393350000000  0.4251910000000  0.4796690000000 1.0
C      1  0.4791010000000  0.4331740000000  0.4823370000000 1.0
C      1  0.4272940000000  0.4766280000000  0.4764990000000 1.0
C      1  0.4350040000000  0.5399510000000  0.4739420000000 1.0
C      1  0.5457430000000  0.4496070000000  0.4249470000000 1.0
C      1  0.4909620000000  0.4345700000000  0.4328080000000 1.0
C      1  0.4439110000000  0.4660240000000  0.4279790000000 1.0
C      1  0.4383880000000  0.5206560000000  0.4222380000000 1.0
C      1  0.4775660000000  0.5599270000000  0.4225500000000 1.0
C      1  0.5344050000000  0.5518920000000  0.4243110000000 1.0
C      1  0.5639710000000  0.5019860000000  0.4211990000000 1.0
C      1  0.5128520000000  0.4663950000000  0.6005150000000 1.0
C      1  0.4796500000000  0.4632490000000  0.6009920000000 1.0
C      1  0.4637360000000  0.4881600000000  0.5910040000000 1.0
C      1  0.4705170000000  0.5169760000000  0.6031220000000 1.0
C      1  0.5008240000000  0.5284080000000  0.5997010000000 1.0
C      1  0.5291060000000  0.5194160000000  0.6074230000000 1.0
C      1  0.5355790000000  0.4913820000000  0.5965940000000 1.0
C      1  0.5398780000000  0.5196430000000  0.4791980000000 1.0
C      1  0.5443570000000  0.4784110000000  0.4904410000000 1.0
C      1  0.5117970000000  0.4718370000000  0.4874580000000 1.0
C      1  0.4669270000000  0.4786130000000  0.4804830000000 1.0
C      1  0.4606150000000  0.5117650000000  0.4846220000000 1.0
C      1  0.4873700000000  0.5311420000000  0.4880240000000 1.0
C      1  0.5175880000000  0.5425750000000  0.4787210000000 1.0
C      1  0.6142630000000  0.5320380000000  0.5569970000000 1.0
C      1  0.6019910000000  0.4319080000000  0.5455520000000 1.0
C      1  0.4921220000000  0.3866920000000  0.5471420000000 1.0
C      1  0.4151110000000  0.4219620000000  0.5385940000000 1.0
C      1  0.3921260000000  0.5249810000000  0.5484800000000 1.0
C      1  0.4469090000000  0.5939930000000  0.5518620000000 1.0
C      1  0.5398030000000  0.6053810000000  0.5492310000000 1.0
C      1  0.5406710000000  0.5527130000000  0.5009230000000 1.0
C      1  0.5722650000000  0.5253270000000  0.4795230000000 1.0
C      1  0.5568490000000  0.4510430000000  0.4905600000000 1.0
C      1  0.5086960000000  0.4387900000000  0.4844820000000 1.0
C      1  0.4449730000000  0.4532060000000  0.4859160000000 1.0
C      1  0.4305140000000  0.5128710000000  0.4926130000000 1.0
C      1  0.4633820000000  0.5541280000000  0.4807850000000 1.0
C      1  0.4194390000000  0.5735020000000  0.4494490000000 1.0
C      1  0.4988740000000  0.6144200000000  0.4543890000000 1.0
C      1  0.5899680000000  0.5705910000000  0.4561220000000 1.0
C      1  0.6052130000000  0.4729880000000  0.4565620000000 1.0
C      1  0.5509040000000  0.3921250000000  0.4493010000000 1.0
C      1  0.4480750000000  0.3993120000000  0.4576710000000 1.0
C      1  0.3865350000000  0.4798160000000  0.4558190000000 1.0
C      1  0.4001520000000  0.4530430000000  0.4595050000000 1.0
C      1  0.4046030000000  0.5496640000000  0.4502590000000 1.0
C      1  0.4717790000000  0.6036210000000  0.4548060000000 1.0
C      1  0.5662810000000  0.5835700000000  0.4433470000000 1.0
C      1  0.6020450000000  0.5022670000000  0.4552490000000 1.0
C      1  0.5725440000000  0.4128090000000  0.4500930000000 1.0
C      1  0.4772070000000  0.3973850000000  0.4620460000000 1.0
C      1  0.5306190000000  0.4743500000000  0.5496670000000 1.0
C      1  0.4975920000000  0.4662530000000  0.5506610000000 1.0
C      1  0.4670570000000  0.4766970000000  0.5590710000000 1.0
C      1  0.4678080000000  0.5095890000000  0.5577640000000 1.0
C      1  0.4954720000000  0.5139610000000  0.5723440000000 1.0
C      1  0.5201490000000  0.5203080000000  0.5555170000000 1.0
C      1  0.5417100000000  0.4998660000000  0.5646190000000 1.0
C      1  0.5436140000000  0.4393880000000  0.5168040000000 1.0
C      1  0.4665970000000  0.4484310000000  0.5100450000000 1.0
C      1  0.4420270000000  0.4959420000000  0.5197710000000 1.0
C      1  0.4392960000000  0.5471010000000  0.5369050000000 1.0
C      1  0.4889210000000  0.5648130000000  0.5094860000000 1.0
C      1  0.5594990000000  0.5382540000000  0.5188320000000 1.0
C      1  0.5619200000000  0.4914580000000  0.5251070000000 1.0
C      1  0.4922720000000  0.5332520000000  0.5189090000000 1.0
C      1  0.5216900000000  0.5300320000000  0.5276690000000 1.0
C      1  0.5364960000000  0.5063620000000  0.5081380000000 1.0
C      1  0.5174260000000  0.4872460000000  0.5239060000000 1.0
C      1  0.4969460000000  0.4623100000000  0.5165580000000 1.0
C      1  0.4741220000000  0.4872040000000  0.5125950000000 1.0
C      1  0.4770140000000  0.5121830000000  0.5293590000000 1.0
C      1  0.4664780000000  0.4943980000000  0.4494560000000 1.0
C      1  0.4741810000000  0.5245170000000  0.4448790000000 1.0
C      1  0.4996290000000  0.5449760000000  0.4526480000000 1.0
C      1  0.5319370000000  0.5109200000000  0.4498590000000 1.0
C      1  0.5370470000000  0.4834950000000  0.4441460000000 1.0
C      1  0.5170630000000  0.4641630000000  0.4547480000000 1.0
C      1  0.4865350000000  0.4675170000000  0.4550080000000 1.0
C      1  0.3984210000000  0.4707470000000  0.5234180000000 1.0
C      1  0.4154290000000  0.5550850000000  0.5172560000000 1.0
C      1  0.4834140000000  0.6059160000000  0.5186170000000 1.0
C      1  0.5636380000000  0.5732410000000  0.5366900000000 1.0
C      1  0.6014730000000  0.4958020000000  0.5217360000000 1.0
C      1  0.5443070000000  0.4095140000000  0.5268580000000 1.0
C      1  0.4636280000000  0.4036580000000  0.5249620000000 1.0
C      1  0.5150290000000  0.4439100000000  0.4126050000000 1.0
C      1  0.4686010000000  0.4526430000000  0.4146510000000 1.0
C      1  0.4434270000000  0.4932100000000  0.4097710000000 1.0
C      1  0.4607360000000  0.5382410000000  0.4072090000000 1.0
C      1  0.5066660000000  0.5516550000000  0.4081400000000 1.0
C      1  0.5456210000000  0.5239470000000  0.4082000000000 1.0
C      1  0.5512620000000  0.4754630000000  0.4076330000000 1.0
C      1  0.5693400000000  0.4091830000000  0.4801840000000 1.0
C      1  0.4669140000000  0.4056440000000  0.4921900000000 1.0
C      1  0.3997260000000  0.4665900000000  0.4909950000000 1.0
C      1  0.4019300000000  0.5446310000000  0.4803130000000 1.0
C      1  0.4785970000000  0.6035000000000  0.4869950000000 1.0
C      1  0.5586560000000  0.5890410000000  0.4726780000000 1.0
C      1  0.5985070000000  0.4968620000000  0.4878740000000 1.0
C      1  0.5028420000000  0.5133530000000  0.4557510000000 1.0
C      1  0.5002890000000  0.5000160000000  0.4834900000000 1.0
C      1  0.5023150000000  0.4840910000000  0.5760810000000 1.0
END
