TITL C-2622967-6265-479 -0.000878376130457843 125000 -641.707916476461 0 0 122 (C1) n - 1
REM
REM in /nfs/bkarasulu/CARBON/AIRSS/Generating-Clusters/AIREBO/with-SteepDescent/Higher-Symm/SD-CG/HFTN-CG
REM
REM
REM
REM
REM
REM ./C.cell (b20cbc046b6831c77cfcea5457e17084)
REM
REM compiler GCC version 9.2.1 20190827 (Red Hat 9.2.1-1)
REM options -cpp -mtune=generic -march=x86-64 -g -O0 -fpre-include=/usr/include/finclude/math-vector-fortran.h
REM seed 816085893 838204975 325091677 -1177267617 1987627779 2066758168 -338309791 -925097577 -1483161100 478987395 1478401078 1488707691 -1797746292 -1320968109 -69588083 109071971 -1560894951 -356987696 821189308 -1318697952 -1238651407 1577991296 1846240599 -1345372684 -99931057 1446086201 -1708191014 -2072802211 -1209415001 756426470 -641404898 878436669 1812826211
REM
CELL 1.54180   50.00000   50.00000   50.00000   90.00000   90.00000   90.00000
LATT -1
SFAC C  
C      1  0.5724570000000  0.4869410000000  0.4735960000000 1.0
C      1  0.4736050000000  0.5727950000000  0.4703240000000 1.0
C      1  0.4531740000000  0.4495680000000  0.4664550000000 1.0
C      1  0.5398110000000  0.4606620000000  0.5285970000000 1.0
C      1  0.5113250000000  0.5452360000000  0.5300250000000 1.0
C      1  0.4423070000000  0.4949190000000  0.5366990000000 1.0
C      1  0.4893880000000  0.4108440000000  0.5269760000000 1.0
C      1  0.5887850000000  0.5148520000000  0.5319920000000 1.0
C      1  0.4407390000000  0.5667850000000  0.5310770000000 1.0
C      1  0.4994470000000  0.5865710000000  0.4615700000000 1.0
C      1  0.4211640000000  0.4530730000000  0.4680130000000 1.0
C      1  0.5818060000000  0.4581580000000  0.4661610000000 1.0
C      1  0.5257090000000  0.5736300000000  0.5420180000000 1.0
C      1  0.4092720000000  0.4902390000000  0.5431010000000 1.0
C      1  0.5549210000000  0.4392560000000  0.5480550000000 1.0
C      1  0.4589400000000  0.4630490000000  0.4155560000000 1.0
C      1  0.5614830000000  0.4844960000000  0.4013500000000 1.0
C      1  0.4832600000000  0.5566410000000  0.4093060000000 1.0
C      1  0.4825890000000  0.5401300000000  0.5947210000000 1.0
C      1  0.4809930000000  0.4662820000000  0.5866890000000 1.0
C      1  0.5533910000000  0.4899760000000  0.5732990000000 1.0
C      1  0.4945050000000  0.4199010000000  0.4784740000000 1.0
C      1  0.5756790000000  0.5259190000000  0.4816370000000 1.0
C      1  0.4280950000000  0.5524230000000  0.4860650000000 1.0
C      1  0.5343700000000  0.4746060000000  0.4357370000000 1.0
C      1  0.5274800000000  0.5403690000000  0.4310470000000 1.0
C      1  0.4617580000000  0.4982670000000  0.4522380000000 1.0
C      1  0.5511140000000  0.4904980000000  0.4998140000000 1.0
C      1  0.4783780000000  0.5525690000000  0.5002830000000 1.0
C      1  0.4666470000000  0.4556190000000  0.5049920000000 1.0
C      1  0.5404520000000  0.5282220000000  0.5256170000000 1.0
C      1  0.4441770000000  0.5272500000000  0.5263390000000 1.0
C      1  0.5151180000000  0.4409590000000  0.5238560000000 1.0
C      1  0.4785640000000  0.5076380000000  0.4072350000000 1.0
C      1  0.5031800000000  0.4723040000000  0.4052260000000 1.0
C      1  0.5242050000000  0.5183840000000  0.4053100000000 1.0
C      1  0.5750680000000  0.4921650000000  0.4215480000000 1.0
C      1  0.4633310000000  0.5643740000000  0.4228850000000 1.0
C      1  0.4600230000000  0.4405330000000  0.4281410000000 1.0
C      1  0.5553810000000  0.5503880000000  0.4408000000000 1.0
C      1  0.4326660000000  0.5148420000000  0.4556720000000 1.0
C      1  0.5313790000000  0.4409890000000  0.4408770000000 1.0
C      1  0.5843090000000  0.4872660000000  0.5363440000000 1.0
C      1  0.4676530000000  0.5751490000000  0.5323690000000 1.0
C      1  0.4640080000000  0.4314140000000  0.5365000000000 1.0
C      1  0.5558380000000  0.4990340000000  0.4484920000000 1.0
C      1  0.4630470000000  0.5522060000000  0.4512110000000 1.0
C      1  0.4809000000000  0.4460160000000  0.4515940000000 1.0
C      1  0.5289330000000  0.4736070000000  0.6074750000000 1.0
C      1  0.5088420000000  0.5487860000000  0.5917560000000 1.0
C      1  0.4578860000000  0.4804840000000  0.5928650000000 1.0
C      1  0.4962540000000  0.5306420000000  0.4217330000000 1.0
C      1  0.4822900000000  0.4828990000000  0.4298820000000 1.0
C      1  0.5304630000000  0.4888830000000  0.4051260000000 1.0
C      1  0.5981880000000  0.5238240000000  0.5070620000000 1.0
C      1  0.4281700000000  0.5728510000000  0.5054250000000 1.0
C      1  0.4812650000000  0.4024960000000  0.4962750000000 1.0
C      1  0.5230430000000  0.4550400000000  0.4769940000000 1.0
C      1  0.5322060000000  0.5514630000000  0.4752680000000 1.0
C      1  0.4301180000000  0.4943790000000  0.4898560000000 1.0
C      1  0.4870430000000  0.5271170000000  0.4863370000000 1.0
C      1  0.4654400000000  0.4783780000000  0.4797450000000 1.0
C      1  0.5227910000000  0.4928720000000  0.4898780000000 1.0
C      1  0.5199640000000  0.4106320000000  0.5116340000000 1.0
C      1  0.5476810000000  0.5614960000000  0.5268050000000 1.0
C      1  0.4119170000000  0.5155480000000  0.5226230000000 1.0
C      1  0.4738190000000  0.4808030000000  0.5562660000000 1.0
C      1  0.5223100000000  0.4919930000000  0.5598570000000 1.0
C      1  0.4871210000000  0.5366070000000  0.5606160000000 1.0
C      1  0.6025020000000  0.4737540000000  0.4964400000000 1.0
C      1  0.4633780000000  0.5977720000000  0.4878730000000 1.0
C      1  0.4436820000000  0.4270530000000  0.4880290000000 1.0
C      1  0.5385320000000  0.4255160000000  0.4702960000000 1.0
C      1  0.5517800000000  0.5728790000000  0.4592090000000 1.0
C      1  0.4076900000000  0.5044130000000  0.4704840000000 1.0
C      1  0.4409920000000  0.5241980000000  0.4943800000000 1.0
C      1  0.4981940000000  0.4457700000000  0.4969960000000 1.0
C      1  0.5481780000000  0.5298830000000  0.4935880000000 1.0
C      1  0.5746570000000  0.4691550000000  0.5110430000000 1.0
C      1  0.4878400000000  0.5829900000000  0.5061540000000 1.0
C      1  0.4396900000000  0.4415640000000  0.5150020000000 1.0
C      1  0.5014570000000  0.4315890000000  0.5510810000000 1.0
C      1  0.5693210000000  0.5309300000000  0.5433740000000 1.0
C      1  0.4337490000000  0.5449840000000  0.5515560000000 1.0
C      1  0.4964330000000  0.4794490000000  0.4941500000000 1.0
C      1  0.5150890000000  0.5222230000000  0.4953390000000 1.0
C      1  0.4671130000000  0.5059950000000  0.4995200000000 1.0
C      1  0.4769490000000  0.4824630000000  0.5223840000000 1.0
C      1  0.5375900000000  0.4945390000000  0.5307550000000 1.0
C      1  0.4772080000000  0.5363880000000  0.5280920000000 1.0
C      1  0.6004950000000  0.5026960000000  0.4825800000000 1.0
C      1  0.4373620000000  0.5979050000000  0.4954570000000 1.0
C      1  0.4538870000000  0.4020350000000  0.4901220000000 1.0
C      1  0.4484450000000  0.4998820000000  0.5684740000000 1.0
C      1  0.5210950000000  0.4681020000000  0.5817970000000 1.0
C      1  0.5209590000000  0.5395980000000  0.5621660000000 1.0
C      1  0.5761650000000  0.4775380000000  0.5615650000000 1.0
C      1  0.4819430000000  0.5698400000000  0.5556030000000 1.0
C      1  0.4512530000000  0.4560900000000  0.5502420000000 1.0
C      1  0.5735070000000  0.4405890000000  0.4824870000000 1.0
C      1  0.5171720000000  0.5881860000000  0.4794630000000 1.0
C      1  0.4118030000000  0.4589460000000  0.4908870000000 1.0
C      1  0.5048320000000  0.4701880000000  0.4519990000000 1.0
C      1  0.5326840000000  0.5222020000000  0.4577000000000 1.0
C      1  0.4833510000000  0.5245430000000  0.4526230000000 1.0
C      1  0.5713630000000  0.5292380000000  0.4503250000000 1.0
C      1  0.4361560000000  0.5424950000000  0.4593170000000 1.0
C      1  0.5048420000000  0.4262220000000  0.4503410000000 1.0
C      1  0.5161530000000  0.5644410000000  0.5023650000000 1.0
C      1  0.4312230000000  0.4741930000000  0.5140410000000 1.0
C      1  0.5485090000000  0.4508800000000  0.4991580000000 1.0
C      1  0.4232780000000  0.4633240000000  0.5517030000000 1.0
C      1  0.5755560000000  0.4493790000000  0.5630250000000 1.0
C      1  0.5057740000000  0.5848420000000  0.5580870000000 1.0
C      1  0.5400370000000  0.4079630000000  0.4928280000000 1.0
C      1  0.5705560000000  0.5746020000000  0.5197360000000 1.0
C      1  0.3964700000000  0.5139620000000  0.4983110000000 1.0
C      1  0.4346100000000  0.5285720000000  0.5736780000000 1.0
C      1  0.5108200000000  0.4435770000000  0.5727730000000 1.0
C      1  0.5518350000000  0.5415190000000  0.5632130000000 1.0
C      1  0.5079850000000  0.5027520000000  0.4612700000000 1.0
C      1  0.4951580000000  0.5040680000000  0.5590800000000 1.0
END
