TITL C-2622964-2985-545 -0.00547335156938678 125000 -807.683732794326 0 0 152 (C1) n - 1
REM
REM in /nfs/bkarasulu/CARBON/AIRSS/Generating-Clusters/AIREBO/with-SteepDescent/Higher-Symm/SD-CG/HFTN-CG
REM
REM
REM
REM
REM
REM ./C.cell (b20cbc046b6831c77cfcea5457e17084)
REM
REM compiler GCC version 9.2.1 20190827 (Red Hat 9.2.1-1)
REM options -cpp -mtune=generic -march=x86-64 -g -O0 -fpre-include=/usr/include/finclude/math-vector-fortran.h
REM seed 1153892263 1218176609 -1019032743 -1669375700 937878773 -880876222 882810093 -1342601471 -2103475523 1444788746 -705933513 1253939938 1537200466 2078399428 1639737994 -1918168713 1450961043 1619290481 433530392 1431603867 350359990 1175167683 1299180269 1711389516 -356782594 888524512 633667420 -1022617152 967212538 -1724280256 -1247290106 372782459 758166286
REM
CELL 1.54180   50.00000   50.00000   50.00000   90.00000   90.00000   90.00000
LATT -1
SFAC C  
C      1  0.5798240000000  0.4717310000000  0.5362400000000 1.0
C      1  0.5602470000000  0.4761290000000  0.4231790000000 1.0
C      1  0.4518110000000  0.4712410000000  0.4175810000000 1.0
C      1  0.4050420000000  0.4749920000000  0.5214020000000 1.0
C      1  0.4890200000000  0.4763810000000  0.5909430000000 1.0
C      1  0.4331620000000  0.5255320000000  0.4627730000000 1.0
C      1  0.4376390000000  0.5248060000000  0.5579860000000 1.0
C      1  0.5317000000000  0.5227180000000  0.5739030000000 1.0
C      1  0.5797520000000  0.5220400000000  0.4909150000000 1.0
C      1  0.5128050000000  0.5185160000000  0.4208910000000 1.0
C      1  0.4740620000000  0.4920140000000  0.4105210000000 1.0
C      1  0.4084650000000  0.4942270000000  0.4934950000000 1.0
C      1  0.4666390000000  0.4959100000000  0.5862540000000 1.0
C      1  0.5698890000000  0.4909470000000  0.5596010000000 1.0
C      1  0.5713890000000  0.4945080000000  0.4443210000000 1.0
C      1  0.5115680000000  0.5166100000000  0.5211310000000 1.0
C      1  0.5273750000000  0.5204630000000  0.4954200000000 1.0
C      1  0.5049000000000  0.5088980000000  0.4738680000000 1.0
C      1  0.4848000000000  0.5222170000000  0.4919740000000 1.0
C      1  0.4886500000000  0.5388710000000  0.5202330000000 1.0
C      1  0.5166180000000  0.4762120000000  0.5716700000000 1.0
C      1  0.5704170000000  0.4840240000000  0.5059380000000 1.0
C      1  0.5285550000000  0.4761260000000  0.4253610000000 1.0
C      1  0.4430610000000  0.4650010000000  0.4491220000000 1.0
C      1  0.4355510000000  0.4675370000000  0.5344570000000 1.0
C      1  0.4705120000000  0.4524840000000  0.5466740000000 1.0
C      1  0.5421450000000  0.4579840000000  0.5245640000000 1.0
C      1  0.5639260000000  0.4585930000000  0.4591850000000 1.0
C      1  0.4792500000000  0.4482020000000  0.4496130000000 1.0
C      1  0.4349510000000  0.4552260000000  0.5042330000000 1.0
C      1  0.4149520000000  0.4859200000000  0.5534570000000 1.0
C      1  0.5202150000000  0.4848550000000  0.6026620000000 1.0
C      1  0.6035760000000  0.4822240000000  0.5132910000000 1.0
C      1  0.5394840000000  0.4862660000000  0.3972090000000 1.0
C      1  0.4224390000000  0.4838900000000  0.4355330000000 1.0
C      1  0.5269300000000  0.6090240000000  0.4999550000000 1.0
C      1  0.5102440000000  0.6114040000000  0.4772020000000 1.0
C      1  0.4813470000000  0.6111450000000  0.4865110000000 1.0
C      1  0.4798990000000  0.6130860000000  0.5190800000000 1.0
C      1  0.5087710000000  0.6029020000000  0.5244380000000 1.0
C      1  0.4175940000000  0.5697040000000  0.4813260000000 1.0
C      1  0.4551790000000  0.5687650000000  0.5765230000000 1.0
C      1  0.5574670000000  0.5641300000000  0.5626200000000 1.0
C      1  0.5704860000000  0.5637300000000  0.4617880000000 1.0
C      1  0.4930360000000  0.5637190000000  0.4155080000000 1.0
C      1  0.4857210000000  0.5594290000000  0.4781990000000 1.0
C      1  0.4738340000000  0.5799000000000  0.4976170000000 1.0
C      1  0.4829050000000  0.5692150000000  0.5266070000000 1.0
C      1  0.5133010000000  0.5712300000000  0.5128180000000 1.0
C      1  0.5179150000000  0.5517890000000  0.4860990000000 1.0
C      1  0.4682630000000  0.5069610000000  0.4586690000000 1.0
C      1  0.4518600000000  0.5099240000000  0.5110190000000 1.0
C      1  0.4942190000000  0.5164270000000  0.5561380000000 1.0
C      1  0.5546660000000  0.5077690000000  0.5214030000000 1.0
C      1  0.5350870000000  0.5104090000000  0.4578030000000 1.0
C      1  0.5166680000000  0.5376220000000  0.4487600000000 1.0
C      1  0.4638090000000  0.5359290000000  0.4732130000000 1.0
C      1  0.4582620000000  0.5354550000000  0.5188000000000 1.0
C      1  0.5187260000000  0.5378920000000  0.5463730000000 1.0
C      1  0.5535470000000  0.5379000000000  0.5056860000000 1.0
C      1  0.4650790000000  0.5056660000000  0.5545110000000 1.0
C      1  0.5416450000000  0.5032950000000  0.5478130000000 1.0
C      1  0.5606620000000  0.4978750000000  0.4764210000000 1.0
C      1  0.4889030000000  0.5014350000000  0.4380280000000 1.0
C      1  0.4396770000000  0.5016770000000  0.4861200000000 1.0
C      1  0.5077290000000  0.3907300000000  0.5273220000000 1.0
C      1  0.5239680000000  0.3969370000000  0.5027970000000 1.0
C      1  0.5066050000000  0.3980290000000  0.4783640000000 1.0
C      1  0.4804170000000  0.3904720000000  0.4868000000000 1.0
C      1  0.4815880000000  0.3832030000000  0.5179980000000 1.0
C      1  0.5468660000000  0.4326140000000  0.5811090000000 1.0
C      1  0.5891020000000  0.4475080000000  0.4765970000000 1.0
C      1  0.5207140000000  0.4256660000000  0.4178950000000 1.0
C      1  0.4260870000000  0.4149460000000  0.4487720000000 1.0
C      1  0.4416650000000  0.4185390000000  0.5656440000000 1.0
C      1  0.5044410000000  0.5361260000000  0.5893320000000 1.0
C      1  0.5877170000000  0.5293500000000  0.5243990000000 1.0
C      1  0.5457820000000  0.5301280000000  0.4225950000000 1.0
C      1  0.4455800000000  0.5353210000000  0.4326060000000 1.0
C      1  0.4201370000000  0.5327650000000  0.5303220000000 1.0
C      1  0.5793080000000  0.5574260000000  0.5162280000000 1.0
C      1  0.5345750000000  0.5580830000000  0.4291100000000 1.0
C      1  0.4491250000000  0.5636270000000  0.4327860000000 1.0
C      1  0.4395910000000  0.5567500000000  0.5274710000000 1.0
C      1  0.5060470000000  0.5648500000000  0.5901370000000 1.0
C      1  0.4334900000000  0.4967880000000  0.5767970000000 1.0
C      1  0.5480800000000  0.4956570000000  0.5864100000000 1.0
C      1  0.6082040000000  0.5036830000000  0.4940180000000 1.0
C      1  0.5064150000000  0.4942370000000  0.3979500000000 1.0
C      1  0.4113540000000  0.4998470000000  0.4581430000000 1.0
C      1  0.5676510000000  0.4422140000000  0.5391260000000 1.0
C      1  0.5582230000000  0.4435290000000  0.4326300000000 1.0
C      1  0.4668580000000  0.4433380000000  0.4256550000000 1.0
C      1  0.4105830000000  0.4408070000000  0.5185150000000 1.0
C      1  0.4860020000000  0.4508960000000  0.5724850000000 1.0
C      1  0.5093950000000  0.4571440000000  0.5336840000000 1.0
C      1  0.5384600000000  0.4553000000000  0.4812860000000 1.0
C      1  0.5104930000000  0.4514790000000  0.4632290000000 1.0
C      1  0.4620040000000  0.4531900000000  0.4908480000000 1.0
C      1  0.4809060000000  0.4647370000000  0.5166870000000 1.0
C      1  0.4434640000000  0.4400650000000  0.4653650000000 1.0
C      1  0.4429960000000  0.4429950000000  0.5524240000000 1.0
C      1  0.5251020000000  0.4487090000000  0.5626450000000 1.0
C      1  0.5650290000000  0.4509000000000  0.5004200000000 1.0
C      1  0.5187110000000  0.4490480000000  0.4303220000000 1.0
C      1  0.4303750000000  0.4158310000000  0.5066450000000 1.0
C      1  0.4887660000000  0.4221790000000  0.5652010000000 1.0
C      1  0.5501000000000  0.4195300000000  0.5221940000000 1.0
C      1  0.5485160000000  0.4222340000000  0.4536920000000 1.0
C      1  0.4737040000000  0.4164770000000  0.4185170000000 1.0
C      1  0.5158070000000  0.5950930000000  0.4558260000000 1.0
C      1  0.4597740000000  0.5985990000000  0.4655170000000 1.0
C      1  0.4598660000000  0.6005490000000  0.5349450000000 1.0
C      1  0.5198340000000  0.5934720000000  0.5531230000000 1.0
C      1  0.5477990000000  0.5911940000000  0.4973710000000 1.0
C      1  0.5615950000000  0.5377430000000  0.5678220000000 1.0
C      1  0.5781060000000  0.5380370000000  0.4608940000000 1.0
C      1  0.4883740000000  0.5376290000000  0.4094560000000 1.0
C      1  0.4147750000000  0.5429620000000  0.4829410000000 1.0
C      1  0.4558680000000  0.5419790000000  0.5785840000000 1.0
C      1  0.5142300000000  0.4840510000000  0.4526010000000 1.0
C      1  0.4573590000000  0.4808340000000  0.4716020000000 1.0
C      1  0.4599430000000  0.4880860000000  0.5298080000000 1.0
C      1  0.5120160000000  0.4904050000000  0.5428030000000 1.0
C      1  0.5324650000000  0.4869970000000  0.4920390000000 1.0
C      1  0.5650990000000  0.4234550000000  0.4778110000000 1.0
C      1  0.4996200000000  0.4080630000000  0.4279940000000 1.0
C      1  0.4278590000000  0.4153560000000  0.4791270000000 1.0
C      1  0.4661440000000  0.4067010000000  0.5715280000000 1.0
C      1  0.5376750000000  0.4190570000000  0.5517410000000 1.0
C      1  0.4676200000000  0.5795690000000  0.4465860000000 1.0
C      1  0.4419190000000  0.5839730000000  0.5211960000000 1.0
C      1  0.5004100000000  0.5853280000000  0.5714740000000 1.0
C      1  0.5582880000000  0.5776220000000  0.5191090000000 1.0
C      1  0.5395850000000  0.5809380000000  0.4434140000000 1.0
C      1  0.4618360000000  0.4092940000000  0.5081720000000 1.0
C      1  0.5064850000000  0.4227500000000  0.5387140000000 1.0
C      1  0.5259450000000  0.4303880000000  0.5008700000000 1.0
C      1  0.5151190000000  0.4183990000000  0.4567080000000 1.0
C      1  0.4858500000000  0.4356750000000  0.4805280000000 1.0
C      1  0.5683360000000  0.5225460000000  0.4389740000000 1.0
C      1  0.4640340000000  0.5228320000000  0.4151640000000 1.0
C      1  0.4095750000000  0.5253010000000  0.5051680000000 1.0
C      1  0.4768120000000  0.5264420000000  0.5904830000000 1.0
C      1  0.5781740000000  0.5213950000000  0.5507210000000 1.0
C      1  0.5425580000000  0.5725140000000  0.4751750000000 1.0
C      1  0.4990920000000  0.5667840000000  0.4482510000000 1.0
C      1  0.4414320000000  0.5875290000000  0.4902590000000 1.0
C      1  0.4744140000000  0.5823730000000  0.5567990000000 1.0
C      1  0.5345030000000  0.5671950000000  0.5390910000000 1.0
C      1  0.5029040000000  0.4702040000000  0.4913210000000 1.0
C      1  0.4933660000000  0.4221220000000  0.5073470000000 1.0
END
