TITL C-2622961-1971-728 -0.00294955054087009 125000 -237.891582869098 0 0 43 (C1) n - 1
REM
REM in /nfs/bkarasulu/CARBON/AIRSS/Generating-Clusters/AIREBO/with-SteepDescent/Higher-Symm/SD-CG/HFTN-CG
REM
REM
REM
REM
REM
REM ./C.cell (b20cbc046b6831c77cfcea5457e17084)
REM
REM compiler GCC version 9.2.1 20190827 (Red Hat 9.2.1-1)
REM options -cpp -mtune=generic -march=x86-64 -g -O0 -fpre-include=/usr/include/finclude/math-vector-fortran.h
REM seed -595942058 1470994416 586840461 -727506335 -352460198 -606073172 -2040671441 -313052746 -284260450 267926604 887388100 1605332298 1147591673 817533422 -1929839236 985324027 690113477 -638144091 32319686 1510570935 1761902759 -1492179355 1867643988 -1335609033 610090973 1402036081 1356270168 -1574142143 -1477205024 43399856 -1110664066 611371056 162674260
REM
CELL 1.54180   50.00000   50.00000   50.00000   90.00000   90.00000   90.00000
LATT -1
SFAC C  
C      1  0.4936670000000  0.4602150000000  0.5295380000000 1.0
C      1  0.4845430000000  0.5025600000000  0.4509480000000 1.0
C      1  0.4851390000000  0.5487970000000  0.5261100000000 1.0
C      1  0.4870610000000  0.4542340000000  0.4767970000000 1.0
C      1  0.4863150000000  0.4874980000000  0.5484960000000 1.0
C      1  0.4884790000000  0.5409870000000  0.4935150000000 1.0
C      1  0.4610130000000  0.4981240000000  0.4687360000000 1.0
C      1  0.4618250000000  0.5254400000000  0.5178210000000 1.0
C      1  0.4675920000000  0.4757680000000  0.5142190000000 1.0
C      1  0.4618040000000  0.5005080000000  0.5296130000000 1.0
C      1  0.4601370000000  0.5273550000000  0.4850700000000 1.0
C      1  0.4652590000000  0.4731040000000  0.4857420000000 1.0
C      1  0.5374130000000  0.4406230000000  0.5185240000000 1.0
C      1  0.5378160000000  0.5150800000000  0.4418570000000 1.0
C      1  0.5353400000000  0.5430850000000  0.5429820000000 1.0
C      1  0.5349240000000  0.4385780000000  0.4919460000000 1.0
C      1  0.5339430000000  0.5185730000000  0.5527840000000 1.0
C      1  0.5349910000000  0.5333280000000  0.4618020000000 1.0
C      1  0.5175640000000  0.4421640000000  0.5449520000000 1.0
C      1  0.5104680000000  0.5050800000000  0.4286170000000 1.0
C      1  0.5123450000000  0.5616620000000  0.5306800000000 1.0
C      1  0.5125790000000  0.4337360000000  0.4677490000000 1.0
C      1  0.5132150000000  0.4964660000000  0.5635920000000 1.0
C      1  0.5034930000000  0.5586030000000  0.4720330000000 1.0
C      1  0.5326230000000  0.5183000000000  0.5118960000000 1.0
C      1  0.5170560000000  0.4741360000000  0.5106310000000 1.0
C      1  0.5105290000000  0.4994250000000  0.4680230000000 1.0
C      1  0.5148260000000  0.5234000000000  0.4870900000000 1.0
C      1  0.5138090000000  0.4708760000000  0.4814820000000 1.0
C      1  0.5338230000000  0.4933650000000  0.5217900000000 1.0
C      1  0.4779690000000  0.5145480000000  0.5657630000000 1.0
C      1  0.4825370000000  0.4272450000000  0.4933040000000 1.0
C      1  0.4940980000000  0.5543440000000  0.4456730000000 1.0
C      1  0.4898860000000  0.5305130000000  0.4334470000000 1.0
C      1  0.4820550000000  0.4305160000000  0.5185110000000 1.0
C      1  0.4740480000000  0.5365220000000  0.5541820000000 1.0
C      1  0.5460960000000  0.4562360000000  0.5462410000000 1.0
C      1  0.5327640000000  0.4835250000000  0.4488090000000 1.0
C      1  0.5365250000000  0.5519880000000  0.5093970000000 1.0
C      1  0.5382650000000  0.4560060000000  0.4629400000000 1.0
C      1  0.5431850000000  0.4858820000000  0.5513800000000 1.0
C      1  0.5323610000000  0.5585130000000  0.4800110000000 1.0
C      1  0.4310510000000  0.5135530000000  0.4741770000000 1.0
END
