TITL C-2622966-9038-389 -0.000901905329713626 125000 -568.429667543092 0 0 100 (C1) n - 1
REM
REM in /nfs/bkarasulu/CARBON/AIRSS/Generating-Clusters/AIREBO/with-SteepDescent/Higher-Symm/SD-CG/HFTN-CG
REM
REM
REM
REM
REM
REM ./C.cell (b20cbc046b6831c77cfcea5457e17084)
REM
REM compiler GCC version 9.2.1 20190827 (Red Hat 9.2.1-1)
REM options -cpp -mtune=generic -march=x86-64 -g -O0 -fpre-include=/usr/include/finclude/math-vector-fortran.h
REM seed 820056869 1294037791 -599953684 -1730357905 758953936 309483552 -489144991 -477635384 125871903 -791758204 181779478 600310657 2097691963 -323695157 978344040 143579787 637345603 -1161069070 137611937 -1530109178 -984540040 -74108421 -1546525849 1856181903 -1014177491 -1891902993 -705238240 -1187040637 21145265 724252067 1607126764 -373305943 -413543126
REM
CELL 1.54180   50.00000   50.00000   50.00000   90.00000   90.00000   90.00000
LATT -1
SFAC C  
C      1  0.5522800000000  0.5150890000000  0.4146350000000 1.0
C      1  0.5467400000000  0.5190000000000  0.5795230000000 1.0
C      1  0.4009540000000  0.5217940000000  0.5010110000000 1.0
C      1  0.5000870000000  0.5702010000000  0.5513670000000 1.0
C      1  0.4488960000000  0.5737570000000  0.4774390000000 1.0
C      1  0.5417310000000  0.5713640000000  0.4654300000000 1.0
C      1  0.4725150000000  0.5249540000000  0.4678600000000 1.0
C      1  0.5418130000000  0.5299850000000  0.4936240000000 1.0
C      1  0.4854640000000  0.5215040000000  0.5429170000000 1.0
C      1  0.5201630000000  0.5538760000000  0.4262380000000 1.0
C      1  0.5599860000000  0.5593540000000  0.5493950000000 1.0
C      1  0.4259050000000  0.5542700000000  0.5299020000000 1.0
C      1  0.4970370000000  0.4720560000000  0.5351600000000 1.0
C      1  0.4784240000000  0.4710890000000  0.4828860000000 1.0
C      1  0.5305550000000  0.4692410000000  0.4985600000000 1.0
C      1  0.5166310000000  0.4636540000000  0.4111210000000 1.0
C      1  0.5546400000000  0.4512490000000  0.5492430000000 1.0
C      1  0.4293790000000  0.4570770000000  0.5245760000000 1.0
C      1  0.5571240000000  0.4675240000000  0.4803000000000 1.0
C      1  0.5169260000000  0.4566560000000  0.5803890000000 1.0
C      1  0.4312840000000  0.4680990000000  0.4721380000000 1.0
C      1  0.5705970000000  0.4762010000000  0.5342200000000 1.0
C      1  0.4424150000000  0.4727080000000  0.5447310000000 1.0
C      1  0.4992940000000  0.4789980000000  0.4254630000000 1.0
C      1  0.4942330000000  0.5777450000000  0.5213960000000 1.0
C      1  0.4779750000000  0.5865230000000  0.4790430000000 1.0
C      1  0.5244320000000  0.5869360000000  0.4872230000000 1.0
C      1  0.4337410000000  0.5576400000000  0.4968030000000 1.0
C      1  0.5439010000000  0.5604720000000  0.4399070000000 1.0
C      1  0.5271050000000  0.5578620000000  0.5587500000000 1.0
C      1  0.4703580000000  0.5328720000000  0.4050780000000 1.0
C      1  0.5920390000000  0.5311370000000  0.5092460000000 1.0
C      1  0.4349100000000  0.5250580000000  0.5792370000000 1.0
C      1  0.5377790000000  0.4721600000000  0.5281480000000 1.0
C      1  0.4689650000000  0.4655270000000  0.5488350000000 1.0
C      1  0.4991470000000  0.4714480000000  0.4557680000000 1.0
C      1  0.5030100000000  0.5320030000000  0.4062600000000 1.0
C      1  0.5704860000000  0.5309270000000  0.5355420000000 1.0
C      1  0.4317820000000  0.5248270000000  0.5460050000000 1.0
C      1  0.5001290000000  0.5115900000000  0.4737300000000 1.0
C      1  0.5160250000000  0.5140780000000  0.5019730000000 1.0
C      1  0.4932630000000  0.5017600000000  0.5213470000000 1.0
C      1  0.4370070000000  0.4297000000000  0.5268600000000 1.0
C      1  0.5342340000000  0.4385260000000  0.4484560000000 1.0
C      1  0.5310100000000  0.4294270000000  0.5465490000000 1.0
C      1  0.4808140000000  0.4933290000000  0.5979870000000 1.0
C      1  0.4288980000000  0.4915140000000  0.4287950000000 1.0
C      1  0.5686960000000  0.5033750000000  0.4381800000000 1.0
C      1  0.4724960000000  0.4953010000000  0.5000190000000 1.0
C      1  0.5238580000000  0.4874040000000  0.4706030000000 1.0
C      1  0.5202510000000  0.4920110000000  0.5489180000000 1.0
C      1  0.4631960000000  0.5277250000000  0.4379120000000 1.0
C      1  0.5715250000000  0.5194400000000  0.4865030000000 1.0
C      1  0.4675100000000  0.5198790000000  0.5703870000000 1.0
C      1  0.4560890000000  0.4552090000000  0.4678870000000 1.0
C      1  0.5501300000000  0.4393390000000  0.4717790000000 1.0
C      1  0.5072500000000  0.4377540000000  0.5610150000000 1.0
C      1  0.5333740000000  0.5169720000000  0.5304470000000 1.0
C      1  0.4502360000000  0.5146580000000  0.4993420000000 1.0
C      1  0.5207920000000  0.5221700000000  0.4506070000000 1.0
C      1  0.5031670000000  0.4377040000000  0.4573320000000 1.0
C      1  0.5258850000000  0.4189350000000  0.5171380000000 1.0
C      1  0.4678270000000  0.4237840000000  0.5258030000000 1.0
C      1  0.5666660000000  0.5372940000000  0.4356870000000 1.0
C      1  0.5238680000000  0.5340920000000  0.5778040000000 1.0
C      1  0.4185860000000  0.5354970000000  0.4824900000000 1.0
C      1  0.4286770000000  0.4914110000000  0.4561510000000 1.0
C      1  0.5549850000000  0.4890080000000  0.4568160000000 1.0
C      1  0.5065640000000  0.4852370000000  0.5792450000000 1.0
C      1  0.4811320000000  0.4383630000000  0.5506130000000 1.0
C      1  0.4695620000000  0.4373660000000  0.4521500000000 1.0
C      1  0.5458590000000  0.4231990000000  0.4932680000000 1.0
C      1  0.4396360000000  0.5163080000000  0.4687630000000 1.0
C      1  0.5489660000000  0.5280220000000  0.4625470000000 1.0
C      1  0.5000190000000  0.5172440000000  0.5724100000000 1.0
C      1  0.4730700000000  0.3962990000000  0.5232000000000 1.0
C      1  0.5030660000000  0.4065600000000  0.4573580000000 1.0
C      1  0.5151560000000  0.3929020000000  0.5169540000000 1.0
C      1  0.4241370000000  0.5166410000000  0.5172930000000 1.0
C      1  0.5247660000000  0.5145940000000  0.4209200000000 1.0
C      1  0.5552830000000  0.5101270000000  0.5552800000000 1.0
C      1  0.5409130000000  0.5607280000000  0.4981080000000 1.0
C      1  0.4801610000000  0.5498170000000  0.5325450000000 1.0
C      1  0.4752890000000  0.5583200000000  0.4628420000000 1.0
C      1  0.5774920000000  0.4885980000000  0.4898650000000 1.0
C      1  0.4520290000000  0.4980750000000  0.5908640000000 1.0
C      1  0.4526230000000  0.5051950000000  0.4157350000000 1.0
C      1  0.5087650000000  0.4456270000000  0.4880640000000 1.0
C      1  0.5063930000000  0.4465770000000  0.5207770000000 1.0
C      1  0.4787980000000  0.4430830000000  0.5021830000000 1.0
C      1  0.4204830000000  0.4641980000000  0.4983260000000 1.0
C      1  0.5359810000000  0.4465840000000  0.4214490000000 1.0
C      1  0.5448160000000  0.4548670000000  0.5800000000000 1.0
C      1  0.4865960000000  0.5038360000000  0.4159710000000 1.0
C      1  0.5798850000000  0.5015680000000  0.5211840000000 1.0
C      1  0.4343830000000  0.4950550000000  0.5619210000000 1.0
C      1  0.5360770000000  0.5496240000000  0.5277560000000 1.0
C      1  0.4550680000000  0.5428730000000  0.5176130000000 1.0
C      1  0.4975170000000  0.5464780000000  0.4457510000000 1.0
C      1  0.4985960000000  0.5886100000000  0.4970020000000 1.0
END
