TITL C-2622966-9038-857 0.00293463967850202 125000 -396.217635276693 0 0 80 (C1) n - 1
REM
REM in /nfs/bkarasulu/CARBON/AIRSS/Generating-Clusters/AIREBO/with-SteepDescent/Higher-Symm/SD-CG/HFTN-CG
REM
REM
REM
REM
REM
REM ./C.cell (b20cbc046b6831c77cfcea5457e17084)
REM
REM compiler GCC version 9.2.1 20190827 (Red Hat 9.2.1-1)
REM options -cpp -mtune=generic -march=x86-64 -g -O0 -fpre-include=/usr/include/finclude/math-vector-fortran.h
REM seed 254066656 1279489177 1477623635 -176256380 -1085777172 -908306604 -1708545925 -655644589 1856666258 783821156 -1687827810 -1566515575 1497959178 -756994462 1246374621 1045342238 -1484494689 -59365092 1627932003 -22217577 723688342 129605402 -1620388824 986807644 -1204957935 1768538432 -535065450 -131950107 -78533298 -1152505537 151389146 659954450 -1686810334
REM
CELL 1.54180   50.00000   50.00000   50.00000   90.00000   90.00000   90.00000
LATT -1
SFAC C  
C      1  0.4779880000000  0.5397210000000  0.4313650000000 1.0
C      1  0.4580360000000  0.5404770000000  0.5552560000000 1.0
C      1  0.4604770000000  0.4327560000000  0.5306660000000 1.0
C      1  0.5382860000000  0.4205520000000  0.4734870000000 1.0
C      1  0.5204130000000  0.5660330000000  0.4419150000000 1.0
C      1  0.5161940000000  0.5120950000000  0.5973170000000 1.0
C      1  0.4286550000000  0.4833200000000  0.4380890000000 1.0
C      1  0.4454610000000  0.5538630000000  0.5077720000000 1.0
C      1  0.4442890000000  0.4684360000000  0.5381380000000 1.0
C      1  0.4867930000000  0.5272420000000  0.5201520000000 1.0
C      1  0.4942860000000  0.4592220000000  0.5144060000000 1.0
C      1  0.5021580000000  0.5311340000000  0.4672550000000 1.0
C      1  0.4442830000000  0.5182160000000  0.5406610000000 1.0
C      1  0.4539870000000  0.4444300000000  0.5051320000000 1.0
C      1  0.4529480000000  0.5357020000000  0.4417120000000 1.0
C      1  0.5614350000000  0.4901010000000  0.4509040000000 1.0
C      1  0.5703260000000  0.5402810000000  0.5086130000000 1.0
C      1  0.5715800000000  0.4824040000000  0.5280740000000 1.0
C      1  0.5247900000000  0.5264180000000  0.4426100000000 1.0
C      1  0.5382160000000  0.5224420000000  0.5500140000000 1.0
C      1  0.5273570000000  0.4552980000000  0.5087220000000 1.0
C      1  0.4809490000000  0.4791620000000  0.4705440000000 1.0
C      1  0.4704670000000  0.5377520000000  0.4940310000000 1.0
C      1  0.4738400000000  0.4796890000000  0.5256360000000 1.0
C      1  0.5455470000000  0.4828770000000  0.4738860000000 1.0
C      1  0.5400940000000  0.5338180000000  0.4960900000000 1.0
C      1  0.5392840000000  0.4886920000000  0.5286330000000 1.0
C      1  0.5358480000000  0.4543740000000  0.4801140000000 1.0
C      1  0.5380180000000  0.5483200000000  0.4650110000000 1.0
C      1  0.5370080000000  0.5040680000000  0.5742820000000 1.0
C      1  0.4811670000000  0.4483700000000  0.4849680000000 1.0
C      1  0.4870840000000  0.5605930000000  0.4751020000000 1.0
C      1  0.4758910000000  0.5063390000000  0.5446640000000 1.0
C      1  0.5156620000000  0.4391700000000  0.4573670000000 1.0
C      1  0.5188410000000  0.5660890000000  0.4859480000000 1.0
C      1  0.5110070000000  0.4822930000000  0.5717760000000 1.0
C      1  0.4792570000000  0.4876320000000  0.4376290000000 1.0
C      1  0.4835950000000  0.5555900000000  0.5386760000000 1.0
C      1  0.4896460000000  0.4375210000000  0.5386230000000 1.0
C      1  0.5934120000000  0.5422160000000  0.5303510000000 1.0
C      1  0.5874240000000  0.4584720000000  0.5143060000000 1.0
C      1  0.5781220000000  0.5020710000000  0.4266400000000 1.0
C      1  0.5443900000000  0.5063250000000  0.4280230000000 1.0
C      1  0.5612810000000  0.5424150000000  0.5414690000000 1.0
C      1  0.5557410000000  0.4524460000000  0.5253000000000 1.0
C      1  0.5182830000000  0.5149990000000  0.5238020000000 1.0
C      1  0.5120850000000  0.4879500000000  0.4771850000000 1.0
C      1  0.5119230000000  0.5153320000000  0.4914270000000 1.0
C      1  0.4989400000000  0.5138660000000  0.5680700000000 1.0
C      1  0.5076530000000  0.4272820000000  0.4882020000000 1.0
C      1  0.4926980000000  0.5610340000000  0.4424470000000 1.0
C      1  0.4489190000000  0.4989450000000  0.5128060000000 1.0
C      1  0.4559690000000  0.4936570000000  0.4797660000000 1.0
C      1  0.4509940000000  0.5249500000000  0.4701280000000 1.0
C      1  0.5364450000000  0.5622160000000  0.5486710000000 1.0
C      1  0.5337630000000  0.4358790000000  0.5426630000000 1.0
C      1  0.5169220000000  0.4916560000000  0.4246430000000 1.0
C      1  0.4555830000000  0.5710070000000  0.5270910000000 1.0
C      1  0.4415680000000  0.4420300000000  0.5525210000000 1.0
C      1  0.4513120000000  0.4854000000000  0.4230150000000 1.0
C      1  0.5075830000000  0.5791200000000  0.5440260000000 1.0
C      1  0.5253630000000  0.4287120000000  0.5728890000000 1.0
C      1  0.5026970000000  0.4685420000000  0.4104600000000 1.0
C      1  0.4277330000000  0.4930100000000  0.4639820000000 1.0
C      1  0.4327930000000  0.5254330000000  0.4988490000000 1.0
C      1  0.4346550000000  0.4681990000000  0.5079390000000 1.0
C      1  0.4858030000000  0.4543150000000  0.4357630000000 1.0
C      1  0.4976450000000  0.5714580000000  0.5120620000000 1.0
C      1  0.5032850000000  0.4504700000000  0.5635860000000 1.0
C      1  0.5126260000000  0.4240140000000  0.5192960000000 1.0
C      1  0.4949320000000  0.5154200000000  0.4311890000000 1.0
C      1  0.5098890000000  0.5407480000000  0.5543210000000 1.0
C      1  0.5131310000000  0.4698950000000  0.4488540000000 1.0
C      1  0.5277030000000  0.5574660000000  0.5171530000000 1.0
C      1  0.5261150000000  0.4688660000000  0.5463260000000 1.0
C      1  0.4718130000000  0.5851090000000  0.4799780000000 1.0
C      1  0.4604680000000  0.4902610000000  0.5703520000000 1.0
C      1  0.4713410000000  0.4352380000000  0.4558250000000 1.0
C      1  0.4128590000000  0.5119800000000  0.4775330000000 1.0
C      1  0.5482960000000  0.5010060000000  0.4996150000000 1.0
END
