TITL C-2622963-3633-315 0.000523869699443187 125000 -382.291917877323 0 0 74 (C1) n - 1
REM
REM in /nfs/bkarasulu/CARBON/AIRSS/Generating-Clusters/AIREBO/with-SteepDescent/Higher-Symm/SD-CG/HFTN-CG
REM
REM
REM
REM
REM
REM ./C.cell (b20cbc046b6831c77cfcea5457e17084)
REM
REM compiler GCC version 9.2.1 20190827 (Red Hat 9.2.1-1)
REM options -cpp -mtune=generic -march=x86-64 -g -O0 -fpre-include=/usr/include/finclude/math-vector-fortran.h
REM seed -1779359385 -430072031 1873516816 464992647 818620202 -1492923416 -1686277631 50218689 -1953077250 -249018584 1949708043 543193708 1238156371 -115239598 1549279534 1560715889 -1177693384 -2035362109 564631158 -1309282626 1574200918 -642034017 -983873991 -880919738 631571386 1335380003 75540323 1219959828 -2027153832 58225985 -133052947 -1994189577 1661498689
REM
CELL 1.54180   50.00000   50.00000   50.00000   90.00000   90.00000   90.00000
LATT -1
SFAC C  
C      1  0.4397150000000  0.4583880000000  0.4878850000000 1.0
C      1  0.4450780000000  0.5123500000000  0.5470630000000 1.0
C      1  0.4423780000000  0.5351860000000  0.4673810000000 1.0
C      1  0.5347050000000  0.4636860000000  0.4935020000000 1.0
C      1  0.5265500000000  0.5177400000000  0.5427950000000 1.0
C      1  0.5325060000000  0.5117320000000  0.4710050000000 1.0
C      1  0.4099570000000  0.4903790000000  0.4843500000000 1.0
C      1  0.4104670000000  0.4902820000000  0.5159470000000 1.0
C      1  0.4113340000000  0.5178330000000  0.5008330000000 1.0
C      1  0.4481570000000  0.5075560000000  0.4483880000000 1.0
C      1  0.4516810000000  0.4558960000000  0.5196240000000 1.0
C      1  0.4497580000000  0.5416370000000  0.5302860000000 1.0
C      1  0.5726990000000  0.4902370000000  0.4643250000000 1.0
C      1  0.5637160000000  0.4843190000000  0.5418370000000 1.0
C      1  0.5753910000000  0.5415510000000  0.4886720000000 1.0
C      1  0.5497210000000  0.5328090000000  0.5356670000000 1.0
C      1  0.5458130000000  0.5144050000000  0.4473270000000 1.0
C      1  0.5469000000000  0.4447570000000  0.5165400000000 1.0
C      1  0.5566520000000  0.4888420000000  0.4345200000000 1.0
C      1  0.5565800000000  0.4533960000000  0.5410730000000 1.0
C      1  0.5540290000000  0.5488430000000  0.5131510000000 1.0
C      1  0.4430970000000  0.4550200000000  0.4583450000000 1.0
C      1  0.4572920000000  0.4890790000000  0.5608590000000 1.0
C      1  0.4505960000000  0.5606970000000  0.4801400000000 1.0
C      1  0.4864590000000  0.4184920000000  0.5047570000000 1.0
C      1  0.4922300000000  0.5483230000000  0.5721400000000 1.0
C      1  0.4909770000000  0.5303670000000  0.4239380000000 1.0
C      1  0.5415970000000  0.4481480000000  0.5636760000000 1.0
C      1  0.5376720000000  0.5703440000000  0.4980960000000 1.0
C      1  0.5362470000000  0.4644300000000  0.4415620000000 1.0
C      1  0.4974410000000  0.5167490000000  0.5254260000000 1.0
C      1  0.4986810000000  0.5108360000000  0.4717240000000 1.0
C      1  0.5007710000000  0.4655290000000  0.4919940000000 1.0
C      1  0.5102630000000  0.4739520000000  0.5942480000000 1.0
C      1  0.5028650000000  0.5713010000000  0.4652680000000 1.0
C      1  0.5061740000000  0.4233330000000  0.4420860000000 1.0
C      1  0.5111740000000  0.4193540000000  0.5200680000000 1.0
C      1  0.5057750000000  0.5753130000000  0.5681480000000 1.0
C      1  0.5064860000000  0.5105120000000  0.4128830000000 1.0
C      1  0.5022450000000  0.4788490000000  0.4607300000000 1.0
C      1  0.5085090000000  0.4851620000000  0.5197050000000 1.0
C      1  0.5045420000000  0.5322760000000  0.4974560000000 1.0
C      1  0.4953090000000  0.5707020000000  0.5395230000000 1.0
C      1  0.5038690000000  0.4869420000000  0.4270940000000 1.0
C      1  0.5078900000000  0.4512430000000  0.5220320000000 1.0
C      1  0.4882920000000  0.5709450000000  0.5116090000000 1.0
C      1  0.4802010000000  0.4670560000000  0.4299420000000 1.0
C      1  0.4958520000000  0.4609570000000  0.5487760000000 1.0
C      1  0.5743190000000  0.5160780000000  0.5432100000000 1.0
C      1  0.5792140000000  0.5127820000000  0.4794940000000 1.0
C      1  0.5690980000000  0.4765530000000  0.5091730000000 1.0
C      1  0.4787240000000  0.5222060000000  0.4466990000000 1.0
C      1  0.4760490000000  0.4433830000000  0.4994640000000 1.0
C      1  0.4815020000000  0.5398460000000  0.5416730000000 1.0
C      1  0.4410330000000  0.4903750000000  0.4764360000000 1.0
C      1  0.4385300000000  0.4866440000000  0.5257910000000 1.0
C      1  0.4402290000000  0.5281140000000  0.5005780000000 1.0
C      1  0.4305890000000  0.5122170000000  0.4252170000000 1.0
C      1  0.4355610000000  0.4339020000000  0.5312400000000 1.0
C      1  0.4315370000000  0.5603170000000  0.5438800000000 1.0
C      1  0.4694010000000  0.5156120000000  0.4883520000000 1.0
C      1  0.4712540000000  0.4822780000000  0.4898000000000 1.0
C      1  0.4686780000000  0.5002560000000  0.5178380000000 1.0
C      1  0.5074590000000  0.4508100000000  0.4421970000000 1.0
C      1  0.5178840000000  0.4695650000000  0.5676990000000 1.0
C      1  0.5098330000000  0.5626930000000  0.4912870000000 1.0
C      1  0.5630410000000  0.5688690000000  0.4800880000000 1.0
C      1  0.5516960000000  0.4665930000000  0.4669900000000 1.0
C      1  0.5343080000000  0.4925000000000  0.5534410000000 1.0
C      1  0.4576020000000  0.4752630000000  0.4433150000000 1.0
C      1  0.4692380000000  0.4673170000000  0.5464410000000 1.0
C      1  0.4629520000000  0.5613850000000  0.5059360000000 1.0
C      1  0.5457420000000  0.4958560000000  0.4932860000000 1.0
C      1  0.5711180000000  0.5092500000000  0.5115320000000 1.0
END
