TITL C-2622962-9663-288 -0.000329610874389341 125000 -354.986981593663 0 0 61 (C1) n - 1
REM
REM in /nfs/bkarasulu/CARBON/AIRSS/Generating-Clusters/AIREBO/with-SteepDescent/Higher-Symm/SD-CG/HFTN-CG
REM
REM
REM
REM
REM
REM ./C.cell (b20cbc046b6831c77cfcea5457e17084)
REM
REM compiler GCC version 9.2.1 20190827 (Red Hat 9.2.1-1)
REM options -cpp -mtune=generic -march=x86-64 -g -O0 -fpre-include=/usr/include/finclude/math-vector-fortran.h
REM seed 729583821 72476195 1544552338 2062396528 124535226 -1112420205 282052512 1097376238 -1867652927 1234467674 -1976446598 -244522671 -1350008936 -1063776955 1698859677 203416005 -1399128174 -1831732869 -1210146909 1958710928 50191974 -1772049245 -1565403710 -972990793 -30987037 799294048 -463110858 1865025053 -654396599 125087398 -1441371260 -741384425 -1111701940
REM
CELL 1.54180   50.00000   50.00000   50.00000   90.00000   90.00000   90.00000
LATT -1
SFAC C  
C      1  0.5031720000000  0.5557830000000  0.4769650000000 1.0
C      1  0.4810390000000  0.5525280000000  0.4948220000000 1.0
C      1  0.4912840000000  0.5464910000000  0.5210190000000 1.0
C      1  0.5194270000000  0.5480980000000  0.5200820000000 1.0
C      1  0.5271890000000  0.5532850000000  0.4928410000000 1.0
C      1  0.5446310000000  0.4840530000000  0.5199140000000 1.0
C      1  0.5276300000000  0.4821450000000  0.4602420000000 1.0
C      1  0.4663280000000  0.4905180000000  0.4609550000000 1.0
C      1  0.4462160000000  0.4834340000000  0.5121850000000 1.0
C      1  0.4966780000000  0.4728460000000  0.5401230000000 1.0
C      1  0.5795570000000  0.4930410000000  0.4662340000000 1.0
C      1  0.4927370000000  0.4907270000000  0.4148240000000 1.0
C      1  0.4107850000000  0.4941490000000  0.4756920000000 1.0
C      1  0.4559820000000  0.4915200000000  0.5761980000000 1.0
C      1  0.5635150000000  0.4977550000000  0.5702540000000 1.0
C      1  0.5129180000000  0.5327340000000  0.4234000000000 1.0
C      1  0.4380860000000  0.5338770000000  0.4488530000000 1.0
C      1  0.4500070000000  0.5235760000000  0.5385690000000 1.0
C      1  0.5207450000000  0.5177240000000  0.5565640000000 1.0
C      1  0.5639430000000  0.5237120000000  0.4987450000000 1.0
C      1  0.4141310000000  0.5049910000000  0.5020410000000 1.0
C      1  0.4827790000000  0.5023110000000  0.5787500000000 1.0
C      1  0.5759380000000  0.5097030000000  0.5466050000000 1.0
C      1  0.5592960000000  0.5045300000000  0.4498140000000 1.0
C      1  0.4701610000000  0.5045150000000  0.4237030000000 1.0
C      1  0.4442930000000  0.4956800000000  0.4393730000000 1.0
C      1  0.4234310000000  0.4942660000000  0.5330290000000 1.0
C      1  0.5092440000000  0.5055100000000  0.5928460000000 1.0
C      1  0.5934360000000  0.5077420000000  0.5204560000000 1.0
C      1  0.5371550000000  0.4929980000000  0.4302080000000 1.0
C      1  0.5169410000000  0.5056400000000  0.4156610000000 1.0
C      1  0.4198510000000  0.5091150000000  0.4526230000000 1.0
C      1  0.4376140000000  0.5050590000000  0.5580710000000 1.0
C      1  0.5373520000000  0.5079150000000  0.5788830000000 1.0
C      1  0.5867640000000  0.5078670000000  0.4896020000000 1.0
C      1  0.5632090000000  0.4694080000000  0.5669730000000 1.0
C      1  0.5746710000000  0.4652270000000  0.4695840000000 1.0
C      1  0.4955000000000  0.4633810000000  0.4219030000000 1.0
C      1  0.4197760000000  0.4668240000000  0.4745960000000 1.0
C      1  0.4565880000000  0.4631420000000  0.5723340000000 1.0
C      1  0.5447840000000  0.5344350000000  0.4822550000000 1.0
C      1  0.5022940000000  0.5346920000000  0.4534640000000 1.0
C      1  0.4651470000000  0.5281420000000  0.4866570000000 1.0
C      1  0.4798270000000  0.5190590000000  0.5299610000000 1.0
C      1  0.5330360000000  0.5298800000000  0.5354770000000 1.0
C      1  0.5296610000000  0.5161560000000  0.4617840000000 1.0
C      1  0.4700870000000  0.5235830000000  0.4539630000000 1.0
C      1  0.4439750000000  0.5170550000000  0.5076090000000 1.0
C      1  0.4953720000000  0.5025120000000  0.5500860000000 1.0
C      1  0.5538870000000  0.5122350000000  0.5240490000000 1.0
C      1  0.5024400000000  0.4530010000000  0.4461850000000 1.0
C      1  0.4434090000000  0.4631830000000  0.4872870000000 1.0
C      1  0.4699890000000  0.4545460000000  0.5505800000000 1.0
C      1  0.5507110000000  0.4613160000000  0.5448150000000 1.0
C      1  0.5485000000000  0.4594160000000  0.4730400000000 1.0
C      1  0.5215900000000  0.4618210000000  0.5297040000000 1.0
C      1  0.5283580000000  0.4665690000000  0.4969650000000 1.0
C      1  0.5034780000000  0.4644670000000  0.4764510000000 1.0
C      1  0.4756270000000  0.4740650000000  0.4869260000000 1.0
C      1  0.4724980000000  0.4656740000000  0.5198750000000 1.0
C      1  0.4809820000000  0.5038510000000  0.5017040000000 1.0
END
