TITL C-2622965-4321-445 0.00112146714404551 125000 -898.787954152339 0 0 163 (C1) n - 1
REM
REM in /nfs/bkarasulu/CARBON/AIRSS/Generating-Clusters/AIREBO/with-SteepDescent/Higher-Symm/SD-CG/HFTN-CG
REM
REM
REM
REM
REM
REM ./C.cell (b20cbc046b6831c77cfcea5457e17084)
REM
REM compiler GCC version 9.2.1 20190827 (Red Hat 9.2.1-1)
REM options -cpp -mtune=generic -march=x86-64 -g -O0 -fpre-include=/usr/include/finclude/math-vector-fortran.h
REM seed 1535783382 -1655515215 1055173961 -1477646640 1835658525 1043403777 167524278 1500636260 1581058765 729443769 1684222266 -733152458 46375693 1763218272 -164930737 -301511549 -1589340912 -2049809159 1752366432 245691650 1523805924 1195151999 1261799226 364030716 -1372248799 1664070363 -54691848 106124716 1377100910 247772789 1058783114 -1871526017 248119575
REM
CELL 1.54180   50.00000   50.00000   50.00000   90.00000   90.00000   90.00000
LATT -1
SFAC C  
C      1  0.4463870000000  0.5000830000000  0.4669460000000 1.0
C      1  0.5162660000000  0.3864270000000  0.5356690000000 1.0
C      1  0.4722740000000  0.4510890000000  0.4232530000000 1.0
C      1  0.3998780000000  0.4744740000000  0.5580690000000 1.0
C      1  0.4824340000000  0.4099110000000  0.5141500000000 1.0
C      1  0.5660520000000  0.5379960000000  0.5174200000000 1.0
C      1  0.4956210000000  0.5754360000000  0.4203010000000 1.0
C      1  0.4043920000000  0.4160520000000  0.5001210000000 1.0
C      1  0.4447730000000  0.4451090000000  0.4429560000000 1.0
C      1  0.5017280000000  0.5344730000000  0.5569150000000 1.0
C      1  0.4779110000000  0.5397010000000  0.5885980000000 1.0
C      1  0.4857110000000  0.5591610000000  0.3921400000000 1.0
C      1  0.5176360000000  0.5909320000000  0.5468370000000 1.0
C      1  0.4258020000000  0.4920600000000  0.4190430000000 1.0
C      1  0.4826350000000  0.4216200000000  0.4287220000000 1.0
C      1  0.5894580000000  0.5620320000000  0.5170550000000 1.0
C      1  0.4785960000000  0.4722520000000  0.5613880000000 1.0
C      1  0.5108450000000  0.4997990000000  0.5103590000000 1.0
C      1  0.5654580000000  0.5409220000000  0.4145760000000 1.0
C      1  0.5132040000000  0.5327480000000  0.4502650000000 1.0
C      1  0.4952690000000  0.4378370000000  0.5094440000000 1.0
C      1  0.5462320000000  0.5631030000000  0.5549080000000 1.0
C      1  0.4665310000000  0.5161320000000  0.5924990000000 1.0
C      1  0.5037240000000  0.4452400000000  0.4774040000000 1.0
C      1  0.4637270000000  0.5572650000000  0.5682690000000 1.0
C      1  0.4110930000000  0.5353690000000  0.5006760000000 1.0
C      1  0.5380050000000  0.5095140000000  0.4519170000000 1.0
C      1  0.5242780000000  0.4772830000000  0.3929450000000 1.0
C      1  0.5175910000000  0.3949780000000  0.4864040000000 1.0
C      1  0.5010720000000  0.4005520000000  0.5581860000000 1.0
C      1  0.4374520000000  0.4763820000000  0.4444290000000 1.0
C      1  0.5881230000000  0.5364550000000  0.5433270000000 1.0
C      1  0.4947100000000  0.5935780000000  0.5691280000000 1.0
C      1  0.5951700000000  0.4256410000000  0.4733270000000 1.0
C      1  0.5553220000000  0.5213650000000  0.4757670000000 1.0
C      1  0.4162930000000  0.4423860000000  0.4884980000000 1.0
C      1  0.5089410000000  0.4435230000000  0.5791610000000 1.0
C      1  0.4143850000000  0.4916540000000  0.4962520000000 1.0
C      1  0.5577060000000  0.4754130000000  0.5044340000000 1.0
C      1  0.4623280000000  0.4656430000000  0.3941770000000 1.0
C      1  0.5040820000000  0.3901220000000  0.5107540000000 1.0
C      1  0.5022060000000  0.5700020000000  0.4792720000000 1.0
C      1  0.4194930000000  0.5636610000000  0.5551370000000 1.0
C      1  0.5372130000000  0.4102960000000  0.5448800000000 1.0
C      1  0.5568240000000  0.4242600000000  0.5208660000000 1.0
C      1  0.4752480000000  0.5709680000000  0.4932760000000 1.0
C      1  0.4986430000000  0.4638870000000  0.5951150000000 1.0
C      1  0.4808670000000  0.4171230000000  0.4555170000000 1.0
C      1  0.4516860000000  0.5117420000000  0.5557270000000 1.0
C      1  0.5475960000000  0.4585340000000  0.4490140000000 1.0
C      1  0.4573390000000  0.5982630000000  0.4905960000000 1.0
C      1  0.5860070000000  0.5212640000000  0.4750600000000 1.0
C      1  0.5028590000000  0.4957410000000  0.4083700000000 1.0
C      1  0.4328370000000  0.4341770000000  0.5671540000000 1.0
C      1  0.4580290000000  0.5434560000000  0.4876730000000 1.0
C      1  0.4606840000000  0.5950510000000  0.5264790000000 1.0
C      1  0.4863460000000  0.5928360000000  0.4380660000000 1.0
C      1  0.5257030000000  0.4214980000000  0.4804430000000 1.0
C      1  0.4008430000000  0.4920920000000  0.4421590000000 1.0
C      1  0.4921690000000  0.4048250000000  0.4095070000000 1.0
C      1  0.5473770000000  0.5094630000000  0.6056330000000 1.0
C      1  0.4944310000000  0.5748260000000  0.5186040000000 1.0
C      1  0.5580550000000  0.5780940000000  0.4677830000000 1.0
C      1  0.5022980000000  0.5390360000000  0.3698220000000 1.0
C      1  0.4222320000000  0.5598800000000  0.4640210000000 1.0
C      1  0.5834750000000  0.5210680000000  0.4095930000000 1.0
C      1  0.5376030000000  0.5476980000000  0.5105030000000 1.0
C      1  0.5489430000000  0.4637850000000  0.5335150000000 1.0
C      1  0.4479570000000  0.4229630000000  0.5477280000000 1.0
C      1  0.4346550000000  0.5254700000000  0.5310860000000 1.0
C      1  0.5269270000000  0.5781060000000  0.5095640000000 1.0
C      1  0.4943480000000  0.4610980000000  0.3914380000000 1.0
C      1  0.5169440000000  0.4613460000000  0.4504750000000 1.0
C      1  0.4649030000000  0.5125350000000  0.4008180000000 1.0
C      1  0.5283420000000  0.5391970000000  0.5413530000000 1.0
C      1  0.4526170000000  0.4676290000000  0.5592260000000 1.0
C      1  0.5009990000000  0.5251180000000  0.4955460000000 1.0
C      1  0.5207540000000  0.4773640000000  0.5468220000000 1.0
C      1  0.4472050000000  0.4900930000000  0.3964580000000 1.0
C      1  0.4895310000000  0.5098060000000  0.4725430000000 1.0
C      1  0.4502630000000  0.5420970000000  0.4545940000000 1.0
C      1  0.5194820000000  0.5704930000000  0.5739470000000 1.0
C      1  0.5489950000000  0.4830020000000  0.4036670000000 1.0
C      1  0.4727190000000  0.4844110000000  0.6030600000000 1.0
C      1  0.5799650000000  0.5099220000000  0.5980130000000 1.0
C      1  0.5648900000000  0.4802520000000  0.6054560000000 1.0
C      1  0.4294820000000  0.5216670000000  0.5788780000000 1.0
C      1  0.4793030000000  0.5047220000000  0.4294570000000 1.0
C      1  0.5058900000000  0.4771980000000  0.4888180000000 1.0
C      1  0.4280930000000  0.5555960000000  0.5306290000000 1.0
C      1  0.4086380000000  0.5095660000000  0.5233750000000 1.0
C      1  0.4700890000000  0.4788680000000  0.4427420000000 1.0
C      1  0.4850410000000  0.4928120000000  0.5257220000000 1.0
C      1  0.5216560000000  0.5458060000000  0.4805150000000 1.0
C      1  0.4329060000000  0.5159270000000  0.4415400000000 1.0
C      1  0.5790220000000  0.4912240000000  0.4175380000000 1.0
C      1  0.5091830000000  0.5441210000000  0.5883470000000 1.0
C      1  0.4913720000000  0.6060040000000  0.5313610000000 1.0
C      1  0.5608660000000  0.4315310000000  0.4374860000000 1.0
C      1  0.5448680000000  0.5911140000000  0.4847000000000 1.0
C      1  0.5134010000000  0.4920820000000  0.4605790000000 1.0
C      1  0.4693330000000  0.5863930000000  0.5582490000000 1.0
C      1  0.5935120000000  0.4949620000000  0.4669360000000 1.0
C      1  0.5856720000000  0.4740470000000  0.4885030000000 1.0
C      1  0.4403040000000  0.4290640000000  0.4705130000000 1.0
C      1  0.4701330000000  0.4409630000000  0.4760670000000 1.0
C      1  0.4117390000000  0.5406960000000  0.4443340000000 1.0
C      1  0.5935250000000  0.4625940000000  0.5570280000000 1.0
C      1  0.4729680000000  0.4808470000000  0.4762900000000 1.0
C      1  0.5516570000000  0.4861460000000  0.4363480000000 1.0
C      1  0.5339060000000  0.5102900000000  0.5284980000000 1.0
C      1  0.4387240000000  0.5762960000000  0.5086800000000 1.0
C      1  0.4165020000000  0.5612560000000  0.4912910000000 1.0
C      1  0.4376800000000  0.5161240000000  0.4923960000000 1.0
C      1  0.5271330000000  0.4378760000000  0.5305140000000 1.0
C      1  0.5861340000000  0.4209380000000  0.5039100000000 1.0
C      1  0.4354680000000  0.4092170000000  0.4980370000000 1.0
C      1  0.5286370000000  0.5037830000000  0.5598470000000 1.0
C      1  0.4585250000000  0.4626330000000  0.4989880000000 1.0
C      1  0.5161760000000  0.6244530000000  0.5252140000000 1.0
C      1  0.5002140000000  0.4957900000000  0.5865220000000 1.0
C      1  0.5444330000000  0.5471740000000  0.4300260000000 1.0
C      1  0.5955030000000  0.4805840000000  0.4427070000000 1.0
C      1  0.5940570000000  0.4529580000000  0.4490100000000 1.0
C      1  0.4800330000000  0.5279140000000  0.4494070000000 1.0
C      1  0.5493540000000  0.5059310000000  0.5008880000000 1.0
C      1  0.3996270000000  0.5178590000000  0.5697740000000 1.0
C      1  0.5965210000000  0.5406090000000  0.4916710000000 1.0
C      1  0.5483440000000  0.5502410000000  0.4599070000000 1.0
C      1  0.5029700000000  0.4656860000000  0.4243130000000 1.0
C      1  0.5245490000000  0.5158630000000  0.5883830000000 1.0
C      1  0.5206820000000  0.4174870000000  0.5744400000000 1.0
C      1  0.5814350000000  0.4843880000000  0.5760420000000 1.0
C      1  0.4955440000000  0.5279060000000  0.4012440000000 1.0
C      1  0.5735370000000  0.5064280000000  0.5247860000000 1.0
C      1  0.4850110000000  0.5048600000000  0.5574860000000 1.0
C      1  0.6087510000000  0.4736660000000  0.5358530000000 1.0
C      1  0.5779740000000  0.4163880000000  0.4479320000000 1.0
C      1  0.4282700000000  0.4653960000000  0.4995260000000 1.0
C      1  0.4000650000000  0.4932270000000  0.4671360000000 1.0
C      1  0.3962820000000  0.4999570000000  0.5491900000000 1.0
C      1  0.4348120000000  0.5522800000000  0.5747000000000 1.0
C      1  0.4791080000000  0.5370170000000  0.5135650000000 1.0
C      1  0.5137590000000  0.5479860000000  0.4219690000000 1.0
C      1  0.5358070000000  0.6102000000000  0.5169120000000 1.0
C      1  0.4830610000000  0.5533850000000  0.5405260000000 1.0
C      1  0.4426090000000  0.4920350000000  0.5892120000000 1.0
C      1  0.5946480000000  0.4854570000000  0.5159790000000 1.0
C      1  0.5623810000000  0.4582980000000  0.6208590000000 1.0
C      1  0.4745840000000  0.5955830000000  0.4622520000000 1.0
C      1  0.4606350000000  0.5110830000000  0.5169680000000 1.0
C      1  0.4527350000000  0.5639460000000  0.4300550000000 1.0
C      1  0.4251960000000  0.4664720000000  0.5749190000000 1.0
C      1  0.5736280000000  0.4454700000000  0.5478480000000 1.0
C      1  0.4589470000000  0.5675790000000  0.4065080000000 1.0
C      1  0.5648240000000  0.4893240000000  0.5493810000000 1.0
C      1  0.4799430000000  0.4626970000000  0.5226140000000 1.0
C      1  0.4804590000000  0.4225190000000  0.5475290000000 1.0
C      1  0.5001130000000  0.4502720000000  0.5470260000000 1.0
C      1  0.5501530000000  0.4311480000000  0.4901080000000 1.0
C      1  0.5723000000000  0.5646260000000  0.5463060000000 1.0
C      1  0.4520540000000  0.4109140000000  0.5203470000000 1.0
C      1  0.5699510000000  0.4484450000000  0.4725690000000 1.0
END
