TITL C-2622960-5345-328 -0.00218818158307693 125000 -232.121428119143 0 0 43 (C1) n - 1
REM
REM in /nfs/bkarasulu/CARBON/AIRSS/Generating-Clusters/AIREBO/with-SteepDescent/Higher-Symm/SD-CG/HFTN-CG
REM
REM
REM
REM
REM
REM ./C.cell (b20cbc046b6831c77cfcea5457e17084)
REM
REM compiler GCC version 9.2.1 20190827 (Red Hat 9.2.1-1)
REM options -cpp -mtune=generic -march=x86-64 -g -O0 -fpre-include=/usr/include/finclude/math-vector-fortran.h
REM seed -2082359087 -346651783 -1567125960 -1969928768 1918344189 1514551301 681286700 -1494255948 -1164971183 -2086813247 -1417541040 -1860314806 2128210642 -114571618 -1372534599 2005369280 -67482077 -1176481122 289459281 1337314115 361758792 930559215 349647098 1982148590 -1645412018 211348267 -1551879649 1677808450 365395289 -1019873366 236922311 -1767694443 -1135384069
REM
CELL 1.54180   50.00000   50.00000   50.00000   90.00000   90.00000   90.00000
LATT -1
SFAC C  
C      1  0.5173590000000  0.5652710000000  0.4852330000000 1.0
C      1  0.4719330000000  0.5557240000000  0.5317050000000 1.0
C      1  0.4725030000000  0.5513970000000  0.4795800000000 1.0
C      1  0.5224790000000  0.5489740000000  0.5242980000000 1.0
C      1  0.4493750000000  0.4762850000000  0.4809850000000 1.0
C      1  0.5590760000000  0.4783820000000  0.5218240000000 1.0
C      1  0.5463460000000  0.4712030000000  0.4743640000000 1.0
C      1  0.4548390000000  0.4764600000000  0.5145460000000 1.0
C      1  0.5170140000000  0.4840730000000  0.4363910000000 1.0
C      1  0.4887940000000  0.4806480000000  0.5528210000000 1.0
C      1  0.4892140000000  0.4914790000000  0.4408220000000 1.0
C      1  0.5171110000000  0.4867630000000  0.5541350000000 1.0
C      1  0.5264190000000  0.5162440000000  0.5159480000000 1.0
C      1  0.4791780000000  0.5024000000000  0.4856000000000 1.0
C      1  0.4837270000000  0.5176600000000  0.5294560000000 1.0
C      1  0.5222640000000  0.5324400000000  0.4794170000000 1.0
C      1  0.5306250000000  0.4875030000000  0.5290190000000 1.0
C      1  0.4762460000000  0.4830070000000  0.4640700000000 1.0
C      1  0.4801680000000  0.4652780000000  0.5311050000000 1.0
C      1  0.5306730000000  0.4637690000000  0.4514590000000 1.0
C      1  0.4657260000000  0.5304060000000  0.4605210000000 1.0
C      1  0.5443810000000  0.5288580000000  0.5419270000000 1.0
C      1  0.5588510000000  0.5065590000000  0.4449980000000 1.0
C      1  0.4585710000000  0.5317410000000  0.5474820000000 1.0
C      1  0.4730810000000  0.5031270000000  0.5646060000000 1.0
C      1  0.5323020000000  0.5091220000000  0.4354900000000 1.0
C      1  0.5229320000000  0.5150790000000  0.5626260000000 1.0
C      1  0.4876250000000  0.5213260000000  0.4438740000000 1.0
C      1  0.4518930000000  0.5055840000000  0.5276670000000 1.0
C      1  0.5588420000000  0.4966500000000  0.4714650000000 1.0
C      1  0.5651200000000  0.5100030000000  0.5220620000000 1.0
C      1  0.4441940000000  0.5074750000000  0.4670960000000 1.0
C      1  0.4532670000000  0.5123600000000  0.4971600000000 1.0
C      1  0.5503490000000  0.5172050000000  0.4918130000000 1.0
C      1  0.5431220000000  0.4620510000000  0.5008560000000 1.0
C      1  0.4502250000000  0.4473960000000  0.4971710000000 1.0
C      1  0.4959970000000  0.5252320000000  0.5598760000000 1.0
C      1  0.5154930000000  0.5280980000000  0.4493010000000 1.0
C      1  0.5204550000000  0.4474350000000  0.5096880000000 1.0
C      1  0.4724560000000  0.4313100000000  0.5006550000000 1.0
C      1  0.4936060000000  0.5525380000000  0.5062300000000 1.0
C      1  0.4985390000000  0.5194670000000  0.5000410000000 1.0
C      1  0.4930330000000  0.4445500000000  0.5159210000000 1.0
END
