TITL C-2622956-4641-716 0.000881522662140486 125000 -869.869938425663 0 0 170 (C1) n - 1
REM
REM in /nfs/bkarasulu/CARBON/AIRSS/Generating-Clusters/AIREBO/with-SteepDescent/Higher-Symm/SD-CG/HFTN-CG
REM
REM
REM
REM
REM
REM ./C.cell (b20cbc046b6831c77cfcea5457e17084)
REM
REM compiler GCC version 9.2.1 20190827 (Red Hat 9.2.1-1)
REM options -cpp -mtune=generic -march=x86-64 -g -O0 -fpre-include=/usr/include/finclude/math-vector-fortran.h
REM seed 1120745210 -2124877491 -332534677 133430575 1495111526 474226077 1336155790 -1740858506 445619519 -1891637922 -342395351 1713471255 1422253269 -376016931 534118836 -1900718343 -764276184 340859817 799753103 -419294048 1942474030 1388021788 -415696355 -1599828035 464429253 -1013072796 894404207 -24094960 -2015387473 797461036 -1877956943 707698163 1968545694
REM
CELL 1.54180   50.00000   50.00000   50.00000   90.00000   90.00000   90.00000
LATT -1
SFAC C  
C      1  0.4835910000000  0.6040310000000  0.5466130000000 1.0
C      1  0.4849030000000  0.5149040000000  0.5152320000000 1.0
C      1  0.5535270000000  0.4758050000000  0.5675890000000 1.0
C      1  0.4893500000000  0.3968030000000  0.5566470000000 1.0
C      1  0.5936940000000  0.5197960000000  0.5446510000000 1.0
C      1  0.5505160000000  0.5156780000000  0.5951050000000 1.0
C      1  0.5627690000000  0.5600050000000  0.5425990000000 1.0
C      1  0.5353220000000  0.5133400000000  0.5318560000000 1.0
C      1  0.5756950000000  0.4942450000000  0.5856210000000 1.0
C      1  0.5671470000000  0.4272480000000  0.5508960000000 1.0
C      1  0.5317620000000  0.4087170000000  0.4679150000000 1.0
C      1  0.4101960000000  0.4615520000000  0.5691490000000 1.0
C      1  0.5717930000000  0.5340290000000  0.4790670000000 1.0
C      1  0.4390600000000  0.4308760000000  0.5531220000000 1.0
C      1  0.4626260000000  0.4726640000000  0.5328420000000 1.0
C      1  0.4736740000000  0.4197780000000  0.5698750000000 1.0
C      1  0.5849760000000  0.4291210000000  0.5213760000000 1.0
C      1  0.4326370000000  0.4884580000000  0.4676440000000 1.0
C      1  0.5003120000000  0.4450950000000  0.4634500000000 1.0
C      1  0.4894390000000  0.5559230000000  0.4789690000000 1.0
C      1  0.5073860000000  0.3971160000000  0.4733300000000 1.0
C      1  0.5913350000000  0.4826620000000  0.4979760000000 1.0
C      1  0.4490400000000  0.5311390000000  0.4121190000000 1.0
C      1  0.4242850000000  0.5752730000000  0.5347580000000 1.0
C      1  0.5913130000000  0.5178330000000  0.4577990000000 1.0
C      1  0.4368090000000  0.5321630000000  0.4438350000000 1.0
C      1  0.5471490000000  0.5087710000000  0.5620380000000 1.0
C      1  0.4579490000000  0.5631650000000  0.4895820000000 1.0
C      1  0.5076510000000  0.4436390000000  0.4966600000000 1.0
C      1  0.5355640000000  0.4275450000000  0.5646030000000 1.0
C      1  0.5717280000000  0.4585020000000  0.5450370000000 1.0
C      1  0.4664340000000  0.5210060000000  0.4873430000000 1.0
C      1  0.4675220000000  0.5385010000000  0.4596220000000 1.0
C      1  0.4635200000000  0.5859690000000  0.4668050000000 1.0
C      1  0.5040360000000  0.5086900000000  0.5426640000000 1.0
C      1  0.4335160000000  0.4268890000000  0.4705210000000 1.0
C      1  0.5780050000000  0.4520390000000  0.4486520000000 1.0
C      1  0.4579840000000  0.5460070000000  0.5796160000000 1.0
C      1  0.5692400000000  0.5667880000000  0.4703220000000 1.0
C      1  0.5458380000000  0.4318870000000  0.5264760000000 1.0
C      1  0.5772230000000  0.4278360000000  0.4881350000000 1.0
C      1  0.4534730000000  0.5883240000000  0.5483090000000 1.0
C      1  0.5159190000000  0.5227970000000  0.4130860000000 1.0
C      1  0.5513110000000  0.4072820000000  0.4875570000000 1.0
C      1  0.5762450000000  0.4950390000000  0.4451650000000 1.0
C      1  0.5321140000000  0.5930650000000  0.4883450000000 1.0
C      1  0.5005120000000  0.5049300000000  0.4375870000000 1.0
C      1  0.4204670000000  0.5707440000000  0.5012620000000 1.0
C      1  0.5293680000000  0.5531150000000  0.4210430000000 1.0
C      1  0.4041590000000  0.4727470000000  0.4728980000000 1.0
C      1  0.4529390000000  0.4555520000000  0.4902710000000 1.0
C      1  0.5321600000000  0.5588220000000  0.5089950000000 1.0
C      1  0.4922130000000  0.5576100000000  0.5376660000000 1.0
C      1  0.4545350000000  0.5029470000000  0.5247910000000 1.0
C      1  0.4972350000000  0.4893800000000  0.5009130000000 1.0
C      1  0.5286350000000  0.4891780000000  0.4484050000000 1.0
C      1  0.5549230000000  0.5336740000000  0.4258050000000 1.0
C      1  0.4805420000000  0.4640800000000  0.4432950000000 1.0
C      1  0.5200010000000  0.4007850000000  0.5606890000000 1.0
C      1  0.5035240000000  0.5849120000000  0.4898550000000 1.0
C      1  0.5430600000000  0.5016460000000  0.4835020000000 1.0
C      1  0.5163180000000  0.3928190000000  0.5278370000000 1.0
C      1  0.5239360000000  0.5189420000000  0.5034740000000 1.0
C      1  0.4480150000000  0.4169850000000  0.4352730000000 1.0
C      1  0.4854600000000  0.4345950000000  0.5451150000000 1.0
C      1  0.4156600000000  0.5288600000000  0.4702580000000 1.0
C      1  0.4646870000000  0.4985940000000  0.5997430000000 1.0
C      1  0.5102010000000  0.4460280000000  0.4085730000000 1.0
C      1  0.4825840000000  0.3930780000000  0.5234280000000 1.0
C      1  0.4298940000000  0.5655670000000  0.4426900000000 1.0
C      1  0.5204880000000  0.4993280000000  0.5985260000000 1.0
C      1  0.5874390000000  0.5507480000000  0.5169610000000 1.0
C      1  0.5208990000000  0.5493810000000  0.5552160000000 1.0
C      1  0.4119320000000  0.5242810000000  0.5220200000000 1.0
C      1  0.4578340000000  0.4985030000000  0.4471350000000 1.0
C      1  0.5322090000000  0.4609060000000  0.4298160000000 1.0
C      1  0.5401090000000  0.4061620000000  0.5131010000000 1.0
C      1  0.4498530000000  0.4608980000000  0.4575970000000 1.0
C      1  0.5166720000000  0.5201560000000  0.5720820000000 1.0
C      1  0.4575170000000  0.4982790000000  0.4142260000000 1.0
C      1  0.4799220000000  0.4020500000000  0.4910720000000 1.0
C      1  0.5595210000000  0.5330780000000  0.5226060000000 1.0
C      1  0.5314800000000  0.4574660000000  0.5802340000000 1.0
C      1  0.5651830000000  0.5220680000000  0.3957940000000 1.0
C      1  0.4631610000000  0.5399630000000  0.5394130000000 1.0
C      1  0.4569930000000  0.4073660000000  0.5357570000000 1.0
C      1  0.5416220000000  0.5984740000000  0.5139890000000 1.0
C      1  0.3855770000000  0.5196770000000  0.5006970000000 1.0
C      1  0.5715960000000  0.4589910000000  0.5123410000000 1.0
C      1  0.3943090000000  0.5020190000000  0.4729810000000 1.0
C      1  0.4670570000000  0.6096970000000  0.5174490000000 1.0
C      1  0.5648440000000  0.4620040000000  0.4257490000000 1.0
C      1  0.4318780000000  0.5283650000000  0.5459720000000 1.0
C      1  0.4398110000000  0.4982300000000  0.5550880000000 1.0
C      1  0.3817650000000  0.4866040000000  0.5076440000000 1.0
C      1  0.4780480000000  0.5735180000000  0.4203530000000 1.0
C      1  0.4248640000000  0.5010400000000  0.4370150000000 1.0
C      1  0.4918650000000  0.5861190000000  0.5190880000000 1.0
C      1  0.4545980000000  0.5675220000000  0.5214210000000 1.0
C      1  0.5802590000000  0.5440320000000  0.4417660000000 1.0
C      1  0.6057590000000  0.5105010000000  0.4847930000000 1.0
C      1  0.4537890000000  0.5616880000000  0.4230030000000 1.0
C      1  0.4784680000000  0.4725460000000  0.4821230000000 1.0
C      1  0.5940870000000  0.4558330000000  0.4771250000000 1.0
C      1  0.5646310000000  0.5675580000000  0.5034650000000 1.0
C      1  0.5390040000000  0.5034260000000  0.4035630000000 1.0
C      1  0.5065700000000  0.5455330000000  0.5923560000000 1.0
C      1  0.5157270000000  0.5501020000000  0.4581790000000 1.0
C      1  0.5682030000000  0.4912780000000  0.4160690000000 1.0
C      1  0.5465270000000  0.5455080000000  0.5775730000000 1.0
C      1  0.5550110000000  0.4490580000000  0.4735340000000 1.0
C      1  0.4053860000000  0.4456190000000  0.4742920000000 1.0
C      1  0.6079530000000  0.4813910000000  0.5276310000000 1.0
C      1  0.4331790000000  0.5773090000000  0.4709310000000 1.0
C      1  0.4592110000000  0.4064740000000  0.4656170000000 1.0
C      1  0.5911490000000  0.4827450000000  0.5573770000000 1.0
C      1  0.4435410000000  0.5963010000000  0.5070470000000 1.0
C      1  0.5014070000000  0.5759110000000  0.4412430000000 1.0
C      1  0.5717400000000  0.4965240000000  0.5330980000000 1.0
C      1  0.4785130000000  0.4709910000000  0.5904170000000 1.0
C      1  0.5048000000000  0.4747880000000  0.5454570000000 1.0
C      1  0.4197410000000  0.4358730000000  0.5275500000000 1.0
C      1  0.5017610000000  0.5435920000000  0.5081770000000 1.0
C      1  0.4771620000000  0.4851380000000  0.5602300000000 1.0
C      1  0.4309250000000  0.4700590000000  0.4238970000000 1.0
C      1  0.5331690000000  0.5761680000000  0.5382280000000 1.0
C      1  0.4572310000000  0.4664190000000  0.4091630000000 1.0
C      1  0.4741460000000  0.5692790000000  0.5640210000000 1.0
C      1  0.6098920000000  0.5319060000000  0.5025830000000 1.0
C      1  0.5220540000000  0.4495880000000  0.5425130000000 1.0
C      1  0.4139280000000  0.5529500000000  0.5497860000000 1.0
C      1  0.5306980000000  0.4363870000000  0.4533950000000 1.0
C      1  0.5067990000000  0.4247850000000  0.5249550000000 1.0
C      1  0.5010250000000  0.5716460000000  0.5817710000000 1.0
C      1  0.4110260000000  0.4919850000000  0.5130190000000 1.0
C      1  0.4892450000000  0.5927570000000  0.4634690000000 1.0
C      1  0.4599280000000  0.4510310000000  0.5708590000000 1.0
C      1  0.4932800000000  0.4811580000000  0.4166840000000 1.0
C      1  0.4446310000000  0.5159220000000  0.5817810000000 1.0
C      1  0.4274460000000  0.5394310000000  0.4983000000000 1.0
C      1  0.4860130000000  0.5105370000000  0.4011440000000 1.0
C      1  0.4774390000000  0.5288380000000  0.4303520000000 1.0
C      1  0.4821850000000  0.5019540000000  0.4660710000000 1.0
C      1  0.4819000000000  0.5256780000000  0.5907960000000 1.0
C      1  0.5110360000000  0.4753810000000  0.4727440000000 1.0
C      1  0.5565320000000  0.4817820000000  0.4644160000000 1.0
C      1  0.3820320000000  0.5338710000000  0.4700040000000 1.0
C      1  0.4808550000000  0.4431890000000  0.4169050000000 1.0
C      1  0.5112880000000  0.4726500000000  0.5936320000000 1.0
C      1  0.4366880000000  0.5067740000000  0.4960950000000 1.0
C      1  0.5448100000000  0.5855470000000  0.4637350000000 1.0
C      1  0.4343000000000  0.4694790000000  0.5623130000000 1.0
C      1  0.4916530000000  0.4639630000000  0.5187390000000 1.0
C      1  0.5232180000000  0.4768390000000  0.4011480000000 1.0
C      1  0.4286320000000  0.4362140000000  0.5015250000000 1.0
C      1  0.4796980000000  0.4243340000000  0.4451840000000 1.0
C      1  0.4594720000000  0.4402920000000  0.5275960000000 1.0
C      1  0.5340310000000  0.5227760000000  0.4492750000000 1.0
C      1  0.5693920000000  0.5084510000000  0.5013390000000 1.0
C      1  0.5329970000000  0.5799540000000  0.4383570000000 1.0
C      1  0.6155220000000  0.5259380000000  0.5308830000000 1.0
C      1  0.5125490000000  0.5147940000000  0.4744000000000 1.0
C      1  0.4273590000000  0.4427860000000  0.4410460000000 1.0
C      1  0.5410800000000  0.5486210000000  0.4785010000000 1.0
C      1  0.4770060000000  0.5178870000000  0.5588000000000 1.0
C      1  0.5423730000000  0.4830660000000  0.5224910000000 1.0
C      1  0.5715110000000  0.5324470000000  0.5605070000000 1.0
C      1  0.5391020000000  0.4554520000000  0.5029080000000 1.0
C      1  0.5092980000000  0.5898080000000  0.5583330000000 1.0
C      1  0.4753830000000  0.4330260000000  0.4984320000000 1.0
END
