TITL C-2622965-4321-398 0.00267228037818279 125000 -992.915456832503 0 0 186 (C1) n - 1
REM
REM in /nfs/bkarasulu/CARBON/AIRSS/Generating-Clusters/AIREBO/with-SteepDescent/Higher-Symm/SD-CG/HFTN-CG
REM
REM
REM
REM
REM
REM ./C.cell (b20cbc046b6831c77cfcea5457e17084)
REM
REM compiler GCC version 9.2.1 20190827 (Red Hat 9.2.1-1)
REM options -cpp -mtune=generic -march=x86-64 -g -O0 -fpre-include=/usr/include/finclude/math-vector-fortran.h
REM seed -1288859520 -1025410838 -846496832 507842936 -510316286 229468753 1156960938 1498933400 -2119626759 1033918650 167863801 -1367029869 586244097 342759831 1702828221 -1825614097 -1873584173 -100925335 -835205356 -86779072 1566418077 1567095739 1968419220 -1289841355 -491589570 448688240 1953758081 -2011254858 -2114988560 1045269458 990475071 -1672052442 -1002133650
REM
CELL 1.54180   50.00000   50.00000   50.00000   90.00000   90.00000   90.00000
LATT -1
SFAC C  
C      1  0.4620560000000  0.5438110000000  0.5445610000000 1.0
C      1  0.5447740000000  0.4595430000000  0.5309190000000 1.0
C      1  0.4162440000000  0.5134360000000  0.4304990000000 1.0
C      1  0.3984950000000  0.5212240000000  0.4882650000000 1.0
C      1  0.6005690000000  0.4491000000000  0.5122730000000 1.0
C      1  0.6094600000000  0.4797590000000  0.4425380000000 1.0
C      1  0.4984150000000  0.5016640000000  0.4028050000000 1.0
C      1  0.4817310000000  0.4911340000000  0.5992250000000 1.0
C      1  0.4698670000000  0.4729920000000  0.5168780000000 1.0
C      1  0.4483610000000  0.4563620000000  0.4813050000000 1.0
C      1  0.4684520000000  0.4790790000000  0.4453140000000 1.0
C      1  0.6003390000000  0.5301640000000  0.5187730000000 1.0
C      1  0.4386850000000  0.5253320000000  0.5182510000000 1.0
C      1  0.4613400000000  0.5893650000000  0.5664650000000 1.0
C      1  0.4483150000000  0.5644890000000  0.5753940000000 1.0
C      1  0.4478580000000  0.5580880000000  0.5192280000000 1.0
C      1  0.4004140000000  0.5466160000000  0.5003670000000 1.0
C      1  0.5421320000000  0.4416650000000  0.4269330000000 1.0
C      1  0.4192520000000  0.4457300000000  0.4676180000000 1.0
C      1  0.5032140000000  0.6013560000000  0.5335790000000 1.0
C      1  0.6030640000000  0.5129590000000  0.5446940000000 1.0
C      1  0.4818510000000  0.4297830000000  0.4519230000000 1.0
C      1  0.4681250000000  0.5373140000000  0.6142210000000 1.0
C      1  0.5564050000000  0.4516620000000  0.4561320000000 1.0
C      1  0.5198290000000  0.4817830000000  0.5049150000000 1.0
C      1  0.5485420000000  0.5874340000000  0.5576190000000 1.0
C      1  0.5799190000000  0.4827990000000  0.4312820000000 1.0
C      1  0.5406350000000  0.4744420000000  0.5864640000000 1.0
C      1  0.4715930000000  0.6070230000000  0.5454340000000 1.0
C      1  0.4536590000000  0.4482680000000  0.4474820000000 1.0
C      1  0.4411770000000  0.5021430000000  0.5812810000000 1.0
C      1  0.5299330000000  0.5373550000000  0.4049600000000 1.0
C      1  0.5914420000000  0.5128690000000  0.4546020000000 1.0
C      1  0.4719070000000  0.5454160000000  0.5841810000000 1.0
C      1  0.4538390000000  0.4021020000000  0.4733870000000 1.0
C      1  0.4221440000000  0.4790060000000  0.4615530000000 1.0
C      1  0.5777200000000  0.5172430000000  0.5649770000000 1.0
C      1  0.4060180000000  0.5454840000000  0.5286220000000 1.0
C      1  0.4037790000000  0.4316820000000  0.5254470000000 1.0
C      1  0.4034750000000  0.4880640000000  0.4888530000000 1.0
C      1  0.4534440000000  0.4439160000000  0.5924150000000 1.0
C      1  0.4499990000000  0.4720770000000  0.5513500000000 1.0
C      1  0.4468750000000  0.5012130000000  0.4542740000000 1.0
C      1  0.4640510000000  0.5063910000000  0.5206380000000 1.0
C      1  0.5713420000000  0.4125870000000  0.5048100000000 1.0
C      1  0.4292580000000  0.5855210000000  0.4865080000000 1.0
C      1  0.4431820000000  0.4704760000000  0.4148440000000 1.0
C      1  0.5441730000000  0.5152720000000  0.4662160000000 1.0
C      1  0.4781060000000  0.4197680000000  0.5941510000000 1.0
C      1  0.5076920000000  0.4135450000000  0.4369070000000 1.0
C      1  0.4306600000000  0.4500220000000  0.5670300000000 1.0
C      1  0.4191700000000  0.5183530000000  0.4640170000000 1.0
C      1  0.6119050000000  0.5114480000000  0.4982390000000 1.0
C      1  0.4772720000000  0.4933060000000  0.4934820000000 1.0
C      1  0.4956710000000  0.5405930000000  0.4576600000000 1.0
C      1  0.4950430000000  0.5590380000000  0.4931330000000 1.0
C      1  0.5844530000000  0.5530650000000  0.4598680000000 1.0
C      1  0.4709310000000  0.4937770000000  0.5670910000000 1.0
C      1  0.5174000000000  0.6071140000000  0.4453530000000 1.0
C      1  0.5642770000000  0.5429440000000  0.5772360000000 1.0
C      1  0.5773340000000  0.4419340000000  0.4886520000000 1.0
C      1  0.5196360000000  0.5722490000000  0.5272960000000 1.0
C      1  0.5407660000000  0.4111480000000  0.4317880000000 1.0
C      1  0.5645400000000  0.5583880000000  0.5058960000000 1.0
C      1  0.4929370000000  0.4593940000000  0.5294000000000 1.0
C      1  0.5111290000000  0.5144790000000  0.4742390000000 1.0
C      1  0.4378940000000  0.5646070000000  0.4238270000000 1.0
C      1  0.5717010000000  0.5145200000000  0.4269660000000 1.0
C      1  0.4621410000000  0.5142330000000  0.3916630000000 1.0
C      1  0.5883930000000  0.5494480000000  0.5379610000000 1.0
C      1  0.4920400000000  0.4272730000000  0.4096100000000 1.0
C      1  0.4365050000000  0.5094190000000  0.4918890000000 1.0
C      1  0.5237990000000  0.4828220000000  0.5387540000000 1.0
C      1  0.4925570000000  0.4571260000000  0.4356620000000 1.0
C      1  0.4740260000000  0.5522660000000  0.4355450000000 1.0
C      1  0.5610820000000  0.4046180000000  0.4505550000000 1.0
C      1  0.5164200000000  0.4947790000000  0.5796910000000 1.0
C      1  0.5205370000000  0.4889630000000  0.4211630000000 1.0
C      1  0.4880690000000  0.5722340000000  0.5558780000000 1.0
C      1  0.5197740000000  0.5105700000000  0.5227620000000 1.0
C      1  0.4400860000000  0.4172080000000  0.4502060000000 1.0
C      1  0.4883100000000  0.4005690000000  0.5326410000000 1.0
C      1  0.4286550000000  0.4193800000000  0.4845080000000 1.0
C      1  0.5440560000000  0.5896150000000  0.4434290000000 1.0
C      1  0.4998300000000  0.4762960000000  0.4784540000000 1.0
C      1  0.5180360000000  0.5588440000000  0.4679540000000 1.0
C      1  0.5322400000000  0.4280470000000  0.5280180000000 1.0
C      1  0.5872120000000  0.4827660000000  0.5473660000000 1.0
C      1  0.5453510000000  0.5459400000000  0.4807290000000 1.0
C      1  0.4865490000000  0.5557430000000  0.4066270000000 1.0
C      1  0.4033820000000  0.4821550000000  0.5216380000000 1.0
C      1  0.5243650000000  0.5556970000000  0.5567050000000 1.0
C      1  0.5139170000000  0.5634310000000  0.4058750000000 1.0
C      1  0.5776770000000  0.4755260000000  0.4833990000000 1.0
C      1  0.5294370000000  0.4781250000000  0.4439010000000 1.0
C      1  0.4651600000000  0.5114050000000  0.6198380000000 1.0
C      1  0.4810480000000  0.5346300000000  0.3888030000000 1.0
C      1  0.5652680000000  0.5058530000000  0.5354570000000 1.0
C      1  0.5716160000000  0.4813320000000  0.5756340000000 1.0
C      1  0.4973480000000  0.5201690000000  0.4305270000000 1.0
C      1  0.4131270000000  0.5564360000000  0.4541350000000 1.0
C      1  0.5634370000000  0.4794730000000  0.5140800000000 1.0
C      1  0.4739840000000  0.4840840000000  0.3936370000000 1.0
C      1  0.4830090000000  0.5882680000000  0.4838290000000 1.0
C      1  0.4012180000000  0.5387310000000  0.4347840000000 1.0
C      1  0.4544980000000  0.6070100000000  0.5205040000000 1.0
C      1  0.4741560000000  0.4053290000000  0.4914480000000 1.0
C      1  0.5213680000000  0.4415640000000  0.5746560000000 1.0
C      1  0.5810550000000  0.4285500000000  0.4576180000000 1.0
C      1  0.4609980000000  0.4666530000000  0.6106340000000 1.0
C      1  0.4442670000000  0.4560130000000  0.5219010000000 1.0
C      1  0.4151850000000  0.5146530000000  0.5377810000000 1.0
C      1  0.4374960000000  0.5857160000000  0.5131130000000 1.0
C      1  0.4318500000000  0.4199030000000  0.5512480000000 1.0
C      1  0.5691150000000  0.4569870000000  0.4174120000000 1.0
C      1  0.4727910000000  0.4557200000000  0.4080290000000 1.0
C      1  0.5505570000000  0.4522160000000  0.5629820000000 1.0
C      1  0.4938790000000  0.4275890000000  0.4897910000000 1.0
C      1  0.5204610000000  0.5572600000000  0.6001600000000 1.0
C      1  0.4696750000000  0.5838830000000  0.4465660000000 1.0
C      1  0.4341960000000  0.4781470000000  0.4995450000000 1.0
C      1  0.5169400000000  0.4501860000000  0.4129850000000 1.0
C      1  0.5259330000000  0.4744430000000  0.3928560000000 1.0
C      1  0.4824040000000  0.6062880000000  0.5076110000000 1.0
C      1  0.4604250000000  0.5276280000000  0.4708870000000 1.0
C      1  0.4411230000000  0.5013300000000  0.4146960000000 1.0
C      1  0.4980030000000  0.4746860000000  0.5593630000000 1.0
C      1  0.4896630000000  0.4667660000000  0.6289600000000 1.0
C      1  0.5191740000000  0.4209660000000  0.4680580000000 1.0
C      1  0.5435820000000  0.4459380000000  0.4873980000000 1.0
C      1  0.4236640000000  0.5193960000000  0.5691300000000 1.0
C      1  0.5279520000000  0.5852930000000  0.4137720000000 1.0
C      1  0.4984320000000  0.5631390000000  0.5861360000000 1.0
C      1  0.4202800000000  0.4846170000000  0.5499680000000 1.0
C      1  0.5173050000000  0.5885810000000  0.5617730000000 1.0
C      1  0.4054140000000  0.4551100000000  0.5437880000000 1.0
C      1  0.5615610000000  0.5073810000000  0.5943270000000 1.0
C      1  0.5845540000000  0.5206820000000  0.4833090000000 1.0
C      1  0.5692610000000  0.5777430000000  0.5329280000000 1.0
C      1  0.4515710000000  0.5865610000000  0.4701410000000 1.0
C      1  0.5122350000000  0.4860820000000  0.6122270000000 1.0
C      1  0.4858220000000  0.5263040000000  0.4936490000000 1.0
C      1  0.5305840000000  0.5244300000000  0.4364060000000 1.0
C      1  0.5100160000000  0.5223890000000  0.3795450000000 1.0
C      1  0.4431160000000  0.4938750000000  0.6083550000000 1.0
C      1  0.5585040000000  0.5079490000000  0.4961680000000 1.0
C      1  0.5407790000000  0.5007690000000  0.6165700000000 1.0
C      1  0.5753060000000  0.5721330000000  0.4785760000000 1.0
C      1  0.5565700000000  0.5171300000000  0.4011220000000 1.0
C      1  0.5127820000000  0.4022870000000  0.5173350000000 1.0
C      1  0.4645250000000  0.4046300000000  0.5178330000000 1.0
C      1  0.5582690000000  0.4856010000000  0.4573520000000 1.0
C      1  0.4882420000000  0.4476070000000  0.5774660000000 1.0
C      1  0.4827220000000  0.5245580000000  0.5595660000000 1.0
C      1  0.5614580000000  0.4171490000000  0.5307020000000 1.0
C      1  0.5474270000000  0.5299860000000  0.5189490000000 1.0
C      1  0.4942390000000  0.5986570000000  0.4540190000000 1.0
C      1  0.5379090000000  0.5573970000000  0.4404030000000 1.0
C      1  0.4561690000000  0.4197750000000  0.5689330000000 1.0
C      1  0.4811840000000  0.5623320000000  0.5240560000000 1.0
C      1  0.5347550000000  0.5024210000000  0.3863440000000 1.0
C      1  0.5142280000000  0.5278490000000  0.5719200000000 1.0
C      1  0.4918150000000  0.5221020000000  0.5268700000000 1.0
C      1  0.4788330000000  0.4512610000000  0.4781220000000 1.0
C      1  0.4439250000000  0.5498980000000  0.4511850000000 1.0
C      1  0.5637910000000  0.5939340000000  0.4667760000000 1.0
C      1  0.5167460000000  0.4538360000000  0.4593360000000 1.0
C      1  0.4861510000000  0.4118200000000  0.5611150000000 1.0
C      1  0.4944640000000  0.4954700000000  0.4519400000000 1.0
C      1  0.5373430000000  0.4461420000000  0.6018150000000 1.0
C      1  0.4295390000000  0.5484060000000  0.5534010000000 1.0
C      1  0.5173290000000  0.3954780000000  0.4905230000000 1.0
C      1  0.4085640000000  0.5667600000000  0.4802680000000 1.0
C      1  0.4625110000000  0.5205820000000  0.4310760000000 1.0
C      1  0.4358080000000  0.4233280000000  0.5176500000000 1.0
C      1  0.5552720000000  0.5494950000000  0.5456840000000 1.0
C      1  0.4231610000000  0.4574280000000  0.4355470000000 1.0
C      1  0.5392670000000  0.5330380000000  0.5933500000000 1.0
C      1  0.5666910000000  0.5417830000000  0.4425240000000 1.0
C      1  0.5506440000000  0.4138440000000  0.4788300000000 1.0
C      1  0.5733210000000  0.4365280000000  0.5481680000000 1.0
C      1  0.6054650000000  0.4885500000000  0.4738140000000 1.0
C      1  0.5062060000000  0.4333040000000  0.5470380000000 1.0
C      1  0.5153260000000  0.4481090000000  0.5063940000000 1.0
C      1  0.5915470000000  0.4548510000000  0.5372340000000 1.0
C      1  0.5251200000000  0.5524580000000  0.5065580000000 1.0
END
