TITL C-2622957-9142-793 0.0010938528057759 125000 -447.682236499955 0 0 79 (C1) n - 1
REM
REM in /nfs/bkarasulu/CARBON/AIRSS/Generating-Clusters/AIREBO/with-SteepDescent/Higher-Symm/SD-CG/HFTN-CG
REM
REM
REM
REM
REM
REM ./C.cell (b20cbc046b6831c77cfcea5457e17084)
REM
REM compiler GCC version 9.2.1 20190827 (Red Hat 9.2.1-1)
REM options -cpp -mtune=generic -march=x86-64 -g -O0 -fpre-include=/usr/include/finclude/math-vector-fortran.h
REM seed 117053194 1550401014 -1668380215 1514505461 682375329 -231803155 1272351107 -613250346 -1089142678 220842342 957288239 2092718690 1633273619 -545241762 1611342229 -1768093497 -286469045 1792245380 -1385054472 -1919596710 270835539 -1062451244 -182651359 -121022326 1087278967 -1876090958 1316797153 -1417770507 -1660359972 2087421534 -1599013157 176861147 -310222540
REM
CELL 1.54180   50.00000   50.00000   50.00000   90.00000   90.00000   90.00000
LATT -1
SFAC C  
C      1  0.4764050000000  0.5196680000000  0.4213640000000 1.0
C      1  0.4286860000000  0.5123390000000  0.5066530000000 1.0
C      1  0.4688590000000  0.5198470000000  0.5756310000000 1.0
C      1  0.5621620000000  0.5188510000000  0.5591050000000 1.0
C      1  0.5669820000000  0.5118010000000  0.4588760000000 1.0
C      1  0.4768290000000  0.4933890000000  0.5800430000000 1.0
C      1  0.4169830000000  0.4746440000000  0.5018530000000 1.0
C      1  0.4624830000000  0.4937980000000  0.4172010000000 1.0
C      1  0.5679710000000  0.4872800000000  0.4455510000000 1.0
C      1  0.5682120000000  0.4916690000000  0.5532450000000 1.0
C      1  0.5409580000000  0.4783560000000  0.5510690000000 1.0
C      1  0.5653000000000  0.4642630000000  0.4628480000000 1.0
C      1  0.4795320000000  0.4737130000000  0.4279010000000 1.0
C      1  0.4325960000000  0.4515700000000  0.4963540000000 1.0
C      1  0.4571140000000  0.4736690000000  0.5646350000000 1.0
C      1  0.5396160000000  0.5240530000000  0.4597110000000 1.0
C      1  0.5604560000000  0.5313270000000  0.5313650000000 1.0
C      1  0.4904490000000  0.5374710000000  0.5623570000000 1.0
C      1  0.4520010000000  0.5310550000000  0.5065950000000 1.0
C      1  0.4600970000000  0.5209940000000  0.4494120000000 1.0
C      1  0.5591780000000  0.4480090000000  0.5058510000000 1.0
C      1  0.5329520000000  0.4465020000000  0.4319060000000 1.0
C      1  0.4475660000000  0.4387180000000  0.4503020000000 1.0
C      1  0.4599680000000  0.4358630000000  0.5325030000000 1.0
C      1  0.5046140000000  0.4478060000000  0.5661970000000 1.0
C      1  0.5599510000000  0.5457190000000  0.4863460000000 1.0
C      1  0.5321910000000  0.5645640000000  0.5571840000000 1.0
C      1  0.4577890000000  0.5715950000000  0.5438410000000 1.0
C      1  0.4474930000000  0.5740210000000  0.4620720000000 1.0
C      1  0.5126620000000  0.5624340000000  0.4415970000000 1.0
C      1  0.5327860000000  0.4549310000000  0.5053020000000 1.0
C      1  0.5426550000000  0.4469600000000  0.4584370000000 1.0
C      1  0.4676800000000  0.4582050000000  0.4482520000000 1.0
C      1  0.4571340000000  0.4524790000000  0.5102400000000 1.0
C      1  0.4860880000000  0.4633090000000  0.5518930000000 1.0
C      1  0.5324760000000  0.5280250000000  0.4922190000000 1.0
C      1  0.5394660000000  0.5543690000000  0.5330010000000 1.0
C      1  0.4788380000000  0.5666880000000  0.5602570000000 1.0
C      1  0.4566190000000  0.5463560000000  0.4798060000000 1.0
C      1  0.5007170000000  0.5466720000000  0.4639220000000 1.0
C      1  0.5542700000000  0.4859160000000  0.4207740000000 1.0
C      1  0.4379850000000  0.4926820000000  0.4318750000000 1.0
C      1  0.4240830000000  0.4926760000000  0.5292870000000 1.0
C      1  0.5033180000000  0.4896390000000  0.5787470000000 1.0
C      1  0.5862570000000  0.4875710000000  0.5332590000000 1.0
C      1  0.5365340000000  0.5213250000000  0.5715340000000 1.0
C      1  0.4415270000000  0.5191590000000  0.5670730000000 1.0
C      1  0.4235220000000  0.4976040000000  0.4818570000000 1.0
C      1  0.5048920000000  0.5175110000000  0.4230640000000 1.0
C      1  0.5830150000000  0.5135100000000  0.4809830000000 1.0
C      1  0.4784290000000  0.5120470000000  0.5115200000000 1.0
C      1  0.4997550000000  0.5232030000000  0.5327370000000 1.0
C      1  0.5464810000000  0.5054850000000  0.5135000000000 1.0
C      1  0.5074770000000  0.5133560000000  0.4627400000000 1.0
C      1  0.4779300000000  0.5196900000000  0.4783520000000 1.0
C      1  0.4701700000000  0.4747030000000  0.4760280000000 1.0
C      1  0.5009680000000  0.4694920000000  0.4673010000000 1.0
C      1  0.5258710000000  0.4797120000000  0.5219000000000 1.0
C      1  0.4956550000000  0.4753480000000  0.5280700000000 1.0
C      1  0.4743250000000  0.4799620000000  0.5064780000000 1.0
C      1  0.5237050000000  0.5352960000000  0.4335050000000 1.0
C      1  0.4396320000000  0.5455550000000  0.4503640000000 1.0
C      1  0.4476940000000  0.5524310000000  0.5280600000000 1.0
C      1  0.5200030000000  0.5444760000000  0.5731600000000 1.0
C      1  0.5752570000000  0.5456160000000  0.5070480000000 1.0
C      1  0.5314680000000  0.4537450000000  0.5671120000000 1.0
C      1  0.4522590000000  0.4429610000000  0.5578300000000 1.0
C      1  0.4317670000000  0.4359490000000  0.4728500000000 1.0
C      1  0.5292960000000  0.4730160000000  0.4228600000000 1.0
C      1  0.5742480000000  0.4654050000000  0.4895920000000 1.0
C      1  0.5762820000000  0.4926320000000  0.5034200000000 1.0
C      1  0.4464230000000  0.4936680000000  0.4633910000000 1.0
C      1  0.4353080000000  0.4938520000000  0.5543200000000 1.0
C      1  0.5067580000000  0.4883330000000  0.4396920000000 1.0
C      1  0.5180980000000  0.5031620000000  0.5533420000000 1.0
C      1  0.5062740000000  0.4225030000000  0.4807110000000 1.0
C      1  0.5011730000000  0.5678650000000  0.5048710000000 1.0
C      1  0.5168670000000  0.5437690000000  0.5154040000000 1.0
C      1  0.5193140000000  0.4476760000000  0.4790480000000 1.0
END
