TITL C-2622960-5345-609 0.00107809093530825 125000 -1048.07456385643 0 0 172 (C1) n - 1
REM
REM in /nfs/bkarasulu/CARBON/AIRSS/Generating-Clusters/AIREBO/with-SteepDescent/Higher-Symm/SD-CG/HFTN-CG
REM
REM
REM
REM
REM
REM ./C.cell (b20cbc046b6831c77cfcea5457e17084)
REM
REM compiler GCC version 9.2.1 20190827 (Red Hat 9.2.1-1)
REM options -cpp -mtune=generic -march=x86-64 -g -O0 -fpre-include=/usr/include/finclude/math-vector-fortran.h
REM seed 649792808 -1550928686 1918115102 398065096 928116075 635409493 852321688 359484279 1378251957 -1744446153 -1067046897 939173193 2054399686 -168662933 2003352456 657093932 142395785 -2077825393 -2047842672 2077845372 821763538 -1320395039 -1092400688 1628780007 -1712546383 -616369374 1778160239 541693750 -959483467 1511215878 -875904090 -1904460938 1263760224
REM
CELL 1.54180   50.00000   50.00000   50.00000   90.00000   90.00000   90.00000
LATT -1
SFAC C  
C      1  0.5267290000000  0.4569400000000  0.4998030000000 1.0
C      1  0.4467020000000  0.4985080000000  0.5180330000000 1.0
C      1  0.4939020000000  0.5208710000000  0.4554370000000 1.0
C      1  0.4822070000000  0.5461850000000  0.5034030000000 1.0
C      1  0.5264260000000  0.5453260000000  0.5015000000000 1.0
C      1  0.4737920000000  0.4543650000000  0.5031960000000 1.0
C      1  0.5503410000000  0.5010470000000  0.5197790000000 1.0
C      1  0.4447190000000  0.5113470000000  0.4686210000000 1.0
C      1  0.5516510000000  0.4898000000000  0.4723080000000 1.0
C      1  0.5052710000000  0.4772710000000  0.4555840000000 1.0
C      1  0.4960800000000  0.4782120000000  0.5459890000000 1.0
C      1  0.5055470000000  0.5245420000000  0.5441070000000 1.0
C      1  0.4461640000000  0.5213330000000  0.4960530000000 1.0
C      1  0.4948410000000  0.4535370000000  0.5240400000000 1.0
C      1  0.5264880000000  0.4980070000000  0.4577060000000 1.0
C      1  0.5505710000000  0.4786060000000  0.4993400000000 1.0
C      1  0.5502700000000  0.5260990000000  0.5047780000000 1.0
C      1  0.4494770000000  0.4726400000000  0.5063960000000 1.0
C      1  0.5054440000000  0.5468430000000  0.5244930000000 1.0
C      1  0.5058070000000  0.4552710000000  0.4794750000000 1.0
C      1  0.4949120000000  0.5455360000000  0.4769570000000 1.0
C      1  0.4719030000000  0.5004350000000  0.4580980000000 1.0
C      1  0.4816060000000  0.5039270000000  0.5463270000000 1.0
C      1  0.5275060000000  0.5026890000000  0.5427170000000 1.0
C      1  0.3949420000000  0.5227970000000  0.5015790000000 1.0
C      1  0.5266050000000  0.5050330000000  0.3992250000000 1.0
C      1  0.5047620000000  0.3981450000000  0.5196470000000 1.0
C      1  0.6048950000000  0.4783690000000  0.4998660000000 1.0
C      1  0.3961630000000  0.4798540000000  0.4967560000000 1.0
C      1  0.6050820000000  0.5197740000000  0.4981690000000 1.0
C      1  0.4798510000000  0.4963100000000  0.3991240000000 1.0
C      1  0.5276790000000  0.4997570000000  0.5995170000000 1.0
C      1  0.4753390000000  0.4977810000000  0.6023100000000 1.0
C      1  0.4962880000000  0.6019230000000  0.5192810000000 1.0
C      1  0.5015660000000  0.6021260000000  0.4728230000000 1.0
C      1  0.4987040000000  0.3977070000000  0.4740040000000 1.0
C      1  0.5308130000000  0.3996500000000  0.5024830000000 1.0
C      1  0.4995880000000  0.5230440000000  0.3984210000000 1.0
C      1  0.3944900000000  0.4988460000000  0.5244040000000 1.0
C      1  0.4702720000000  0.5995700000000  0.5034370000000 1.0
C      1  0.4779820000000  0.3968030000000  0.4998440000000 1.0
C      1  0.5222800000000  0.6028160000000  0.4984480000000 1.0
C      1  0.4970370000000  0.4708660000000  0.4003730000000 1.0
C      1  0.4950960000000  0.5238410000000  0.6024250000000 1.0
C      1  0.5035780000000  0.4809780000000  0.6020330000000 1.0
C      1  0.6057340000000  0.5004280000000  0.5246270000000 1.0
C      1  0.6075170000000  0.4991280000000  0.4725620000000 1.0
C      1  0.3937290000000  0.5044930000000  0.4734240000000 1.0
C      1  0.5792420000000  0.5024850000000  0.4592270000000 1.0
C      1  0.5035250000000  0.4650440000000  0.5744720000000 1.0
C      1  0.4633270000000  0.5693240000000  0.5052000000000 1.0
C      1  0.4206640000000  0.4926770000000  0.4625420000000 1.0
C      1  0.5769270000000  0.4973370000000  0.5375110000000 1.0
C      1  0.4237280000000  0.5015020000000  0.5378920000000 1.0
C      1  0.4967980000000  0.5371130000000  0.5739970000000 1.0
C      1  0.5036480000000  0.5357850000000  0.4276760000000 1.0
C      1  0.4961250000000  0.4620910000000  0.4295030000000 1.0
C      1  0.5386770000000  0.4291590000000  0.5067680000000 1.0
C      1  0.4618540000000  0.4244330000000  0.4994240000000 1.0
C      1  0.5384630000000  0.5752410000000  0.4976650000000 1.0
C      1  0.5048030000000  0.5724540000000  0.4639640000000 1.0
C      1  0.4641520000000  0.5042400000000  0.5713470000000 1.0
C      1  0.5776180000000  0.4620380000000  0.5034830000000 1.0
C      1  0.4963290000000  0.4277160000000  0.4665090000000 1.0
C      1  0.4973000000000  0.5756950000000  0.5383580000000 1.0
C      1  0.5037180000000  0.4255910000000  0.5375470000000 1.0
C      1  0.5392300000000  0.4964750000000  0.5710580000000 1.0
C      1  0.5380650000000  0.5035120000000  0.4282150000000 1.0
C      1  0.4614310000000  0.4966500000000  0.4260070000000 1.0
C      1  0.4218720000000  0.5392030000000  0.5031780000000 1.0
C      1  0.4215260000000  0.4598660000000  0.4990960000000 1.0
C      1  0.5787690000000  0.5380820000000  0.4977510000000 1.0
C      1  0.5224990000000  0.4587210000000  0.3917710000000 1.0
C      1  0.4521040000000  0.3932420000000  0.5223460000000 1.0
C      1  0.3888580000000  0.5266960000000  0.4497730000000 1.0
C      1  0.4772970000000  0.5488520000000  0.3934080000000 1.0
C      1  0.5173300000000  0.5472970000000  0.6076920000000 1.0
C      1  0.4784870000000  0.4583420000000  0.6081570000000 1.0
C      1  0.5487220000000  0.6066280000000  0.5202400000000 1.0
C      1  0.4550000000000  0.6098890000000  0.4804070000000 1.0
C      1  0.5450100000000  0.3915200000000  0.4775750000000 1.0
C      1  0.6071740000000  0.4767470000000  0.4469480000000 1.0
C      1  0.3876240000000  0.4757380000000  0.5486410000000 1.0
C      1  0.6094990000000  0.5219550000000  0.5511570000000 1.0
C      1  0.4597810000000  0.5234210000000  0.3947140000000 1.0
C      1  0.3894710000000  0.4592350000000  0.5229510000000 1.0
C      1  0.5232700000000  0.3911380000000  0.4569070000000 1.0
C      1  0.5426430000000  0.4801690000000  0.3916500000000 1.0
C      1  0.5383620000000  0.5248640000000  0.6091700000000 1.0
C      1  0.4518040000000  0.4745130000000  0.6100610000000 1.0
C      1  0.6108270000000  0.5398870000000  0.5250240000000 1.0
C      1  0.6103520000000  0.4593000000000  0.4719550000000 1.0
C      1  0.3891120000000  0.5440820000000  0.4752740000000 1.0
C      1  0.4767700000000  0.6113060000000  0.4604490000000 1.0
C      1  0.4776940000000  0.3930630000000  0.5396130000000 1.0
C      1  0.5237340000000  0.6072950000000  0.5381340000000 1.0
C      1  0.5724560000000  0.4700420000000  0.5507950000000 1.0
C      1  0.4695120000000  0.5501050000000  0.5698670000000 1.0
C      1  0.5515050000000  0.5685880000000  0.4705570000000 1.0
C      1  0.4290060000000  0.5292930000000  0.5503250000000 1.0
C      1  0.5718120000000  0.5303200000000  0.4504200000000 1.0
C      1  0.4284450000000  0.4679730000000  0.4523270000000 1.0
C      1  0.5305650000000  0.4511240000000  0.5701460000000 1.0
C      1  0.4692900000000  0.4503440000000  0.4346850000000 1.0
C      1  0.5308220000000  0.5488780000000  0.4320930000000 1.0
C      1  0.4490820000000  0.4296970000000  0.4724490000000 1.0
C      1  0.5515550000000  0.4321020000000  0.5328550000000 1.0
C      1  0.4496640000000  0.5672180000000  0.5314160000000 1.0
C      1  0.4693010000000  0.5699640000000  0.5510410000000 1.0
C      1  0.5513390000000  0.4697530000000  0.5686860000000 1.0
C      1  0.5719260000000  0.5496910000000  0.4704270000000 1.0
C      1  0.5307880000000  0.4309960000000  0.5515860000000 1.0
C      1  0.5313060000000  0.5678700000000  0.4515650000000 1.0
C      1  0.4694070000000  0.4316570000000  0.4540640000000 1.0
C      1  0.4496120000000  0.5302240000000  0.5689300000000 1.0
C      1  0.4492610000000  0.4690490000000  0.4335510000000 1.0
C      1  0.5511900000000  0.5302730000000  0.4322400000000 1.0
C      1  0.4281390000000  0.4476260000000  0.4719490000000 1.0
C      1  0.4284620000000  0.5496260000000  0.5311480000000 1.0
C      1  0.5728410000000  0.4498580000000  0.5316900000000 1.0
C      1  0.4526970000000  0.4757920000000  0.5701620000000 1.0
C      1  0.4741860000000  0.5720670000000  0.4534340000000 1.0
C      1  0.5718650000000  0.4495120000000  0.4746560000000 1.0
C      1  0.5497240000000  0.5263220000000  0.5709320000000 1.0
C      1  0.4556750000000  0.5278560000000  0.4340680000000 1.0
C      1  0.5469100000000  0.4718510000000  0.4304700000000 1.0
C      1  0.5264240000000  0.4309080000000  0.4556490000000 1.0
C      1  0.4738540000000  0.4313860000000  0.5497980000000 1.0
C      1  0.5277830000000  0.5691280000000  0.5489540000000 1.0
C      1  0.4280790000000  0.5522470000000  0.4740500000000 1.0
C      1  0.5722350000000  0.5491080000000  0.5286000000000 1.0
C      1  0.4275500000000  0.4507790000000  0.5313300000000 1.0
C      1  0.4730770000000  0.4552810000000  0.5688910000000 1.0
C      1  0.5681670000000  0.4709050000000  0.4532120000000 1.0
C      1  0.4536860000000  0.5702950000000  0.4755380000000 1.0
C      1  0.5279890000000  0.5456620000000  0.5692820000000 1.0
C      1  0.5259660000000  0.4506380000000  0.4307550000000 1.0
C      1  0.4755310000000  0.5482490000000  0.4331560000000 1.0
C      1  0.4283500000000  0.5330180000000  0.4497350000000 1.0
C      1  0.4273640000000  0.4735680000000  0.5513700000000 1.0
C      1  0.5701130000000  0.5266120000000  0.5473300000000 1.0
C      1  0.5467550000000  0.4313870000000  0.4764430000000 1.0
C      1  0.5472030000000  0.5674560000000  0.5274940000000 1.0
C      1  0.4532530000000  0.4324490000000  0.5295470000000 1.0
C      1  0.4282470000000  0.5919130000000  0.4762280000000 1.0
C      1  0.5956830000000  0.4761710000000  0.4211040000000 1.0
C      1  0.4753020000000  0.4302660000000  0.5895750000000 1.0
C      1  0.5717000000000  0.4098670000000  0.4733080000000 1.0
C      1  0.4270810000000  0.4117210000000  0.5234990000000 1.0
C      1  0.5735570000000  0.5884640000000  0.5231910000000 1.0
C      1  0.4063670000000  0.5284740000000  0.4258940000000 1.0
C      1  0.5893390000000  0.5263450000000  0.5746930000000 1.0
C      1  0.4027370000000  0.4714710000000  0.5746610000000 1.0
C      1  0.5207160000000  0.5724240000000  0.5879900000000 1.0
C      1  0.4736500000000  0.5740180000000  0.4134870000000 1.0
C      1  0.5286260000000  0.4294560000000  0.4048050000000 1.0
C      1  0.5974940000000  0.4286320000000  0.4697780000000 1.0
C      1  0.4710420000000  0.5982130000000  0.4323120000000 1.0
C      1  0.4279830000000  0.4730380000000  0.5911810000000 1.0
C      1  0.4024100000000  0.5738530000000  0.4730730000000 1.0
C      1  0.4018560000000  0.4304530000000  0.5238900000000 1.0
C      1  0.5987990000000  0.5692690000000  0.5259110000000 1.0
C      1  0.5263950000000  0.4107750000000  0.4297390000000 1.0
C      1  0.5238890000000  0.5967490000000  0.5679670000000 1.0
C      1  0.4774110000000  0.4043650000000  0.5699190000000 1.0
C      1  0.5685880000000  0.5302530000000  0.5982280000000 1.0
C      1  0.5701220000000  0.4761490000000  0.4082860000000 1.0
C      1  0.4323570000000  0.5258540000000  0.4105080000000 1.0
C      1  0.4716850000000  0.5195710000000  0.5185080000000 1.0
C      1  0.5189960000000  0.4767350000000  0.5236100000000 1.0
C      1  0.5188760000000  0.5225200000000  0.4774290000000 1.0
C      1  0.4805630000000  0.4768780000000  0.4786170000000 1.0
END
