TITL C-2622967-6265-2 4.2504624233529e-06 125000 -197.607624275689 0 0 35 (C1) n - 1
REM
REM in /nfs/bkarasulu/CARBON/AIRSS/Generating-Clusters/AIREBO/with-SteepDescent/Higher-Symm/SD-CG/HFTN-CG
REM
REM
REM
REM
REM
REM ./C.cell (b20cbc046b6831c77cfcea5457e17084)
REM
REM compiler GCC version 9.2.1 20190827 (Red Hat 9.2.1-1)
REM options -cpp -mtune=generic -march=x86-64 -g -O0 -fpre-include=/usr/include/finclude/math-vector-fortran.h
REM seed 2019089805 -896120995 794664772 430199761 1292981235 363718468 1014788003 -924536286 813653314 -1877853250 -1920171225 199030704 -1853600518 2042769431 -1755385426 -1413650796 -1132205039 -1362153205 -208197019 -834848375 -1440344493 -216664836 1442155202 -1661817668 -2067123931 599074148 -1243804641 313806646 1111751372 1335863537 -1531176666 311323987 818444403
REM
CELL 1.54180   50.00000   50.00000   50.00000   90.00000   90.00000   90.00000
LATT -1
SFAC C  
C      1  0.4985120000000  0.4474110000000  0.4318340000000 1.0
C      1  0.5554260000000  0.5406760000000  0.5716620000000 1.0
C      1  0.4918190000000  0.4242610000000  0.6098890000000 1.0
C      1  0.4346610000000  0.5876880000000  0.4296320000000 1.0
C      1  0.5404560000000  0.5234490000000  0.5572280000000 1.0
C      1  0.5077160000000  0.4680090000000  0.4467080000000 1.0
C      1  0.4520740000000  0.5670390000000  0.4290230000000 1.0
C      1  0.4924970000000  0.4391530000000  0.5873640000000 1.0
C      1  0.5206340000000  0.5152930000000  0.4233140000000 1.0
C      1  0.5411990000000  0.4690910000000  0.5678060000000 1.0
C      1  0.4607130000000  0.4827680000000  0.5812960000000 1.0
C      1  0.4556290000000  0.5350840000000  0.3852490000000 1.0
C      1  0.4304310000000  0.5247790000000  0.5710770000000 1.0
C      1  0.4606320000000  0.5007680000000  0.3454540000000 1.0
C      1  0.5313830000000  0.5610500000000  0.3992940000000 1.0
C      1  0.5759170000000  0.4479980000000  0.6031420000000 1.0
C      1  0.5111610000000  0.4651770000000  0.4740890000000 1.0
C      1  0.5246600000000  0.5323970000000  0.5362450000000 1.0
C      1  0.5094430000000  0.4317780000000  0.5659520000000 1.0
C      1  0.4681630000000  0.5614750000000  0.4509260000000 1.0
C      1  0.5398390000000  0.4964340000000  0.5634650000000 1.0
C      1  0.5130440000000  0.4925710000000  0.4349600000000 1.0
C      1  0.4548290000000  0.5515500000000  0.4061710000000 1.0
C      1  0.4772380000000  0.4621780000000  0.5848150000000 1.0
C      1  0.4590460000000  0.5185420000000  0.3646520000000 1.0
C      1  0.4462570000000  0.5046890000000  0.5768190000000 1.0
C      1  0.5581220000000  0.4583490000000  0.5869200000000 1.0
C      1  0.5261430000000  0.5377420000000  0.4100760000000 1.0
C      1  0.5169790000000  0.4618100000000  0.4998620000000 1.0
C      1  0.5115610000000  0.5405000000000  0.5145200000000 1.0
C      1  0.5241310000000  0.4522150000000  0.5528190000000 1.0
C      1  0.4816970000000  0.5545030000000  0.4727780000000 1.0
C      1  0.4969980000000  0.5464120000000  0.4930190000000 1.0
C      1  0.5214400000000  0.4561990000000  0.5255150000000 1.0
C      1  0.5113180000000  0.4060680000000  0.5579020000000 1.0
END
