TITL C-2622967-6265-210 0.000980687913771496 125000 -795.934903301675 0 0 150 (C1) n - 1
REM
REM in /nfs/bkarasulu/CARBON/AIRSS/Generating-Clusters/AIREBO/with-SteepDescent/Higher-Symm/SD-CG/HFTN-CG
REM
REM
REM
REM
REM
REM ./C.cell (b20cbc046b6831c77cfcea5457e17084)
REM
REM compiler GCC version 9.2.1 20190827 (Red Hat 9.2.1-1)
REM options -cpp -mtune=generic -march=x86-64 -g -O0 -fpre-include=/usr/include/finclude/math-vector-fortran.h
REM seed 1851666328 -1811763288 1268634058 -1586235594 595417716 1399489569 -1159449850 -1460553387 58475678 -80938759 -993595420 -208394292 -1820144962 1914634476 -433309954 -344756791 1817501850 1819570490 -1817035152 -1256619129 -1765858647 -1050551403 -2138967892 609557099 -642568911 -1981548845 918543052 -704734576 1997061605 -2118259369 2011755606 790714961 49440901
REM
CELL 1.54180   50.00000   50.00000   50.00000   90.00000   90.00000   90.00000
LATT -1
SFAC C  
C      1  0.5269220000000  0.4828410000000  0.5782800000000 1.0
C      1  0.5820780000000  0.5246760000000  0.4819140000000 1.0
C      1  0.4804180000000  0.5806500000000  0.5261410000000 1.0
C      1  0.4719020000000  0.4821370000000  0.4144420000000 1.0
C      1  0.5323590000000  0.5286450000000  0.4124540000000 1.0
C      1  0.4756070000000  0.5106440000000  0.5776260000000 1.0
C      1  0.4096640000000  0.5314960000000  0.5289140000000 1.0
C      1  0.5814200000000  0.4750920000000  0.5105280000000 1.0
C      1  0.4077980000000  0.4634530000000  0.4889110000000 1.0
C      1  0.5115370000000  0.5797650000000  0.4775880000000 1.0
C      1  0.4774660000000  0.4223770000000  0.4680650000000 1.0
C      1  0.5266500000000  0.4123480000000  0.5296030000000 1.0
C      1  0.5259940000000  0.5307640000000  0.5865150000000 1.0
C      1  0.5800040000000  0.4697040000000  0.4780660000000 1.0
C      1  0.4755310000000  0.4176120000000  0.5223470000000 1.0
C      1  0.4774520000000  0.5142320000000  0.4231170000000 1.0
C      1  0.5220640000000  0.4790500000000  0.4202800000000 1.0
C      1  0.4714170000000  0.4781380000000  0.5781430000000 1.0
C      1  0.4193940000000  0.4758240000000  0.5183880000000 1.0
C      1  0.5895310000000  0.5264350000000  0.5307800000000 1.0
C      1  0.4171330000000  0.5188050000000  0.4801230000000 1.0
C      1  0.5104030000000  0.4211240000000  0.4764100000000 1.0
C      1  0.4794870000000  0.5800860000000  0.4705980000000 1.0
C      1  0.5302570000000  0.5851160000000  0.5285830000000 1.0
C      1  0.5484650000000  0.4835020000000  0.4355920000000 1.0
C      1  0.4339080000000  0.5463560000000  0.4818890000000 1.0
C      1  0.4829900000000  0.4344030000000  0.5480210000000 1.0
C      1  0.4492430000000  0.4892760000000  0.5462860000000 1.0
C      1  0.5604000000000  0.5233210000000  0.5425630000000 1.0
C      1  0.4434060000000  0.5117510000000  0.4646720000000 1.0
C      1  0.5399640000000  0.5567370000000  0.5193030000000 1.0
C      1  0.4581660000000  0.4450480000000  0.5188690000000 1.0
C      1  0.5478550000000  0.4491030000000  0.4891460000000 1.0
C      1  0.5196780000000  0.4577500000000  0.4450930000000 1.0
C      1  0.4900280000000  0.5472860000000  0.4503540000000 1.0
C      1  0.5175140000000  0.5407470000000  0.5587870000000 1.0
C      1  0.5578770000000  0.5104730000000  0.4513910000000 1.0
C      1  0.4512630000000  0.4481590000000  0.4882820000000 1.0
C      1  0.4849140000000  0.5487190000000  0.5533210000000 1.0
C      1  0.4365420000000  0.5202880000000  0.5405280000000 1.0
C      1  0.5529430000000  0.4921180000000  0.5493800000000 1.0
C      1  0.4407950000000  0.4824760000000  0.4525060000000 1.0
C      1  0.5425390000000  0.4368090000000  0.5204420000000 1.0
C      1  0.4482130000000  0.5576100000000  0.5094740000000 1.0
C      1  0.5502090000000  0.5535460000000  0.4873820000000 1.0
C      1  0.5214260000000  0.5414870000000  0.4386020000000 1.0
C      1  0.4878020000000  0.4490110000000  0.4496040000000 1.0
C      1  0.5104620000000  0.4526370000000  0.5563200000000 1.0
C      1  0.4223630000000  0.5660600000000  0.5461790000000 1.0
C      1  0.5477350000000  0.4281570000000  0.5684710000000 1.0
C      1  0.5685880000000  0.5475900000000  0.4249840000000 1.0
C      1  0.5741360000000  0.5536530000000  0.4556590000000 1.0
C      1  0.4297420000000  0.4372990000000  0.4432560000000 1.0
C      1  0.5708980000000  0.4391810000000  0.5484440000000 1.0
C      1  0.4589150000000  0.4312720000000  0.4285750000000 1.0
C      1  0.5501130000000  0.5691400000000  0.4407460000000 1.0
C      1  0.4528450000000  0.5722830000000  0.5536760000000 1.0
C      1  0.4375730000000  0.5485270000000  0.5687400000000 1.0
C      1  0.5575610000000  0.4584580000000  0.5703920000000 1.0
C      1  0.4415190000000  0.4573640000000  0.4214290000000 1.0
C      1  0.4319290000000  0.4365180000000  0.5599170000000 1.0
C      1  0.5457500000000  0.5741940000000  0.5662730000000 1.0
C      1  0.5713070000000  0.4536100000000  0.4228330000000 1.0
C      1  0.5700540000000  0.4407370000000  0.4526220000000 1.0
C      1  0.4246750000000  0.5728470000000  0.4536630000000 1.0
C      1  0.5687960000000  0.5687250000000  0.5453610000000 1.0
C      1  0.4543420000000  0.5722550000000  0.4407370000000 1.0
C      1  0.5477020000000  0.4309950000000  0.4322630000000 1.0
C      1  0.4583510000000  0.4281380000000  0.5785830000000 1.0
C      1  0.4381560000000  0.4539110000000  0.5861930000000 1.0
C      1  0.5665700000000  0.5504120000000  0.5713200000000 1.0
C      1  0.4348000000000  0.5493810000000  0.4313460000000 1.0
C      1  0.4397560000000  0.4843840000000  0.5785040000000 1.0
C      1  0.5788720000000  0.4361710000000  0.4835700000000 1.0
C      1  0.4859080000000  0.5787420000000  0.4376540000000 1.0
C      1  0.5726470000000  0.4842440000000  0.4140580000000 1.0
C      1  0.4458930000000  0.5217080000000  0.4333520000000 1.0
C      1  0.5543150000000  0.5218110000000  0.5760040000000 1.0
C      1  0.4327700000000  0.4493760000000  0.5350840000000 1.0
C      1  0.5738320000000  0.5528400000000  0.5192990000000 1.0
C      1  0.4136390000000  0.5721210000000  0.4826780000000 1.0
C      1  0.5159470000000  0.5737960000000  0.5555890000000 1.0
C      1  0.4878710000000  0.4169930000000  0.5750900000000 1.0
C      1  0.5183890000000  0.4242990000000  0.4435070000000 1.0
C      1  0.4427010000000  0.5179700000000  0.5731670000000 1.0
C      1  0.5831240000000  0.5582760000000  0.4870270000000 1.0
C      1  0.4873790000000  0.4216230000000  0.4294590000000 1.0
C      1  0.5620700000000  0.5166350000000  0.4182150000000 1.0
C      1  0.4410920000000  0.4898600000000  0.4211440000000 1.0
C      1  0.5600110000000  0.4887670000000  0.5817160000000 1.0
C      1  0.4157140000000  0.5601430000000  0.5146940000000 1.0
C      1  0.5753980000000  0.4422810000000  0.5170980000000 1.0
C      1  0.4250700000000  0.4415110000000  0.4699420000000 1.0
C      1  0.5183490000000  0.4201330000000  0.5596020000000 1.0
C      1  0.4839090000000  0.5818010000000  0.5599460000000 1.0
C      1  0.5190720000000  0.5739920000000  0.4449380000000 1.0
C      1  0.5226350000000  0.4640670000000  0.5163280000000 1.0
C      1  0.5178580000000  0.5218440000000  0.4661110000000 1.0
C      1  0.4630030000000  0.5155660000000  0.5195400000000 1.0
C      1  0.4838930000000  0.4482940000000  0.4888870000000 1.0
C      1  0.5181410000000  0.5488420000000  0.4867760000000 1.0
C      1  0.4764660000000  0.5471930000000  0.5209510000000 1.0
C      1  0.4847670000000  0.5155920000000  0.5456670000000 1.0
C      1  0.5205000000000  0.4830210000000  0.5448210000000 1.0
C      1  0.4884490000000  0.4821650000000  0.4441460000000 1.0
C      1  0.5482810000000  0.5203390000000  0.4818910000000 1.0
C      1  0.4378670000000  0.4768220000000  0.4830230000000 1.0
C      1  0.5513600000000  0.4820160000000  0.5183670000000 1.0
C      1  0.5092710000000  0.5418610000000  0.5151240000000 1.0
C      1  0.5176720000000  0.4881310000000  0.4604890000000 1.0
C      1  0.4520540000000  0.4840860000000  0.5128020000000 1.0
C      1  0.4669380000000  0.5508270000000  0.4750550000000 1.0
C      1  0.5160160000000  0.4536620000000  0.4846420000000 1.0
C      1  0.4886390000000  0.4612160000000  0.5191450000000 1.0
C      1  0.4744480000000  0.4665400000000  0.5483850000000 1.0
C      1  0.5170380000000  0.5154270000000  0.5350470000000 1.0
C      1  0.4863590000000  0.5139610000000  0.4560200000000 1.0
C      1  0.5483460000000  0.4749320000000  0.4670380000000 1.0
C      1  0.4641750000000  0.5208420000000  0.4862980000000 1.0
C      1  0.5440740000000  0.5122070000000  0.5146720000000 1.0
C      1  0.3934730000000  0.4849640000000  0.5378860000000 1.0
C      1  0.5296210000000  0.3940540000000  0.4833380000000 1.0
C      1  0.4847190000000  0.5331270000000  0.3964150000000 1.0
C      1  0.6030810000000  0.4842390000000  0.4640810000000 1.0
C      1  0.3921680000000  0.5050000000000  0.4676850000000 1.0
C      1  0.6091950000000  0.5034350000000  0.5417480000000 1.0
C      1  0.4589220000000  0.3973150000000  0.5053150000000 1.0
C      1  0.5411140000000  0.6070940000000  0.5076700000000 1.0
C      1  0.4656330000000  0.6031690000000  0.4852720000000 1.0
C      1  0.5037210000000  0.5398400000000  0.6078930000000 1.0
C      1  0.4867740000000  0.4681240000000  0.6028520000000 1.0
C      1  0.5114570000000  0.4659640000000  0.3945480000000 1.0
C      1  0.3876030000000  0.5098280000000  0.5387560000000 1.0
C      1  0.5350080000000  0.6035160000000  0.4831150000000 1.0
C      1  0.4863450000000  0.4683690000000  0.3915390000000 1.0
C      1  0.6025260000000  0.5095060000000  0.4633590000000 1.0
C      1  0.3865930000000  0.4811720000000  0.4746390000000 1.0
C      1  0.6047510000000  0.4792920000000  0.5347470000000 1.0
C      1  0.4631690000000  0.6017930000000  0.5103910000000 1.0
C      1  0.5331390000000  0.3888560000000  0.5081130000000 1.0
C      1  0.4606910000000  0.3996980000000  0.4800950000000 1.0
C      1  0.5119390000000  0.4681330000000  0.6021630000000 1.0
C      1  0.4796220000000  0.5331850000000  0.6027630000000 1.0
C      1  0.5094430000000  0.5356550000000  0.3903350000000 1.0
C      1  0.5075140000000  0.5053060000000  0.5881070000000 1.0
C      1  0.5105430000000  0.5069610000000  0.4202370000000 1.0
C      1  0.5912230000000  0.5072920000000  0.5056760000000 1.0
C      1  0.5051600000000  0.5886980000000  0.5097730000000 1.0
C      1  0.4162150000000  0.5081450000000  0.5083110000000 1.0
C      1  0.5025930000000  0.4146370000000  0.5088670000000 1.0
END
