TITL C-2622954-8726-67 0.00144004992858855 125000 -982.56055227525 0 0 174 (C1) n - 1
REM
REM in /nfs/bkarasulu/CARBON/AIRSS/Generating-Clusters/AIREBO/with-SteepDescent/Higher-Symm/SD-CG/HFTN-CG
REM
REM
REM
REM
REM
REM ./C.cell (b20cbc046b6831c77cfcea5457e17084)
REM
REM compiler GCC version 9.2.1 20190827 (Red Hat 9.2.1-1)
REM options -cpp -mtune=generic -march=x86-64 -g -O0 -fpre-include=/usr/include/finclude/math-vector-fortran.h
REM seed 644059243 -1004763105 1920755321 1657713958 1864801441 1727949072 -1271699799 -492399907 -1126295680 -1863462681 2105838482 1473420205 -1629636103 2098823728 1624888964 1709266881 1297778592 -2093639216 1442125931 -376126317 1341277004 839988599 1455368526 115397448 -1154030708 -272921205 -919580259 -518354195 -1906802031 -1817471778 -263363721 -1068713270 -729406326
REM
CELL 1.54180   50.00000   50.00000   50.00000   90.00000   90.00000   90.00000
LATT -1
SFAC C  
C      1  0.4609840000000  0.4499680000000  0.5098920000000 1.0
C      1  0.4717990000000  0.4808700000000  0.5506820000000 1.0
C      1  0.4708250000000  0.5322850000000  0.5351630000000 1.0
C      1  0.4765040000000  0.5484010000000  0.4825190000000 1.0
C      1  0.4703400000000  0.5115950000000  0.4431590000000 1.0
C      1  0.4706460000000  0.4659560000000  0.4659000000000 1.0
C      1  0.4638660000000  0.5479710000000  0.5084520000000 1.0
C      1  0.4829780000000  0.5121330000000  0.5488600000000 1.0
C      1  0.4559240000000  0.4598130000000  0.5411100000000 1.0
C      1  0.4807010000000  0.4626270000000  0.4933400000000 1.0
C      1  0.4874890000000  0.4852170000000  0.4509200000000 1.0
C      1  0.4619480000000  0.5384950000000  0.4557530000000 1.0
C      1  0.6060170000000  0.5540700000000  0.5623720000000 1.0
C      1  0.5741180000000  0.5937650000000  0.4812640000000 1.0
C      1  0.5721010000000  0.5366600000000  0.4118230000000 1.0
C      1  0.5770170000000  0.4477690000000  0.4383300000000 1.0
C      1  0.5701720000000  0.4056540000000  0.5174900000000 1.0
C      1  0.5790500000000  0.4480520000000  0.5946760000000 1.0
C      1  0.5931260000000  0.4396240000000  0.5753330000000 1.0
C      1  0.5669120000000  0.4033460000000  0.4870250000000 1.0
C      1  0.5777860000000  0.4721080000000  0.4245180000000 1.0
C      1  0.5730190000000  0.5620270000000  0.4280510000000 1.0
C      1  0.5610710000000  0.5948610000000  0.5080400000000 1.0
C      1  0.5898830000000  0.5338060000000  0.5784000000000 1.0
C      1  0.5857050000000  0.4434940000000  0.4680880000000 1.0
C      1  0.5937340000000  0.4304340000000  0.5208310000000 1.0
C      1  0.5917330000000  0.4843440000000  0.5480900000000 1.0
C      1  0.5944920000000  0.5462200000000  0.5321450000000 1.0
C      1  0.5934420000000  0.5725130000000  0.4786310000000 1.0
C      1  0.5905760000000  0.5267820000000  0.4337610000000 1.0
C      1  0.5894380000000  0.5523840000000  0.4563030000000 1.0
C      1  0.5937980000000  0.5597350000000  0.5040540000000 1.0
C      1  0.5982120000000  0.5171310000000  0.5498570000000 1.0
C      1  0.5903710000000  0.4506420000000  0.5460950000000 1.0
C      1  0.5880380000000  0.4249720000000  0.4877470000000 1.0
C      1  0.5874540000000  0.4997020000000  0.4381200000000 1.0
C      1  0.5414270000000  0.4197400000000  0.5251910000000 1.0
C      1  0.5548530000000  0.4668730000000  0.5901380000000 1.0
C      1  0.5415870000000  0.5585200000000  0.5602090000000 1.0
C      1  0.5423120000000  0.5886720000000  0.4734180000000 1.0
C      1  0.5430940000000  0.5228290000000  0.4142470000000 1.0
C      1  0.5455100000000  0.4415800000000  0.4499780000000 1.0
C      1  0.5353090000000  0.5758000000000  0.5159640000000 1.0
C      1  0.5572700000000  0.5357420000000  0.5793890000000 1.0
C      1  0.5349010000000  0.4548840000000  0.5651850000000 1.0
C      1  0.5387810000000  0.4145450000000  0.4784940000000 1.0
C      1  0.5460690000000  0.4843570000000  0.4241110000000 1.0
C      1  0.5427180000000  0.5664360000000  0.4403990000000 1.0
C      1  0.4728860000000  0.5081230000000  0.3820160000000 1.0
C      1  0.4732150000000  0.4071470000000  0.4291030000000 1.0
C      1  0.4637990000000  0.3938140000000  0.5507770000000 1.0
C      1  0.4681970000000  0.4733150000000  0.6188240000000 1.0
C      1  0.4642140000000  0.5912240000000  0.5628460000000 1.0
C      1  0.4610450000000  0.5987930000000  0.4510880000000 1.0
C      1  0.4709500000000  0.4830680000000  0.3807940000000 1.0
C      1  0.4722810000000  0.5951670000000  0.4265410000000 1.0
C      1  0.4586620000000  0.6070940000000  0.5445200000000 1.0
C      1  0.4703100000000  0.4979740000000  0.6216260000000 1.0
C      1  0.4673880000000  0.4043540000000  0.5729680000000 1.0
C      1  0.4701250000000  0.4084440000000  0.4594660000000 1.0
C      1  0.5579940000000  0.5423800000000  0.4589490000000 1.0
C      1  0.5595090000000  0.4899770000000  0.4548730000000 1.0
C      1  0.5518560000000  0.4419070000000  0.4893270000000 1.0
C      1  0.5588200000000  0.4625850000000  0.5422670000000 1.0
C      1  0.5652010000000  0.5129550000000  0.5554290000000 1.0
C      1  0.5617770000000  0.5550000000000  0.5111810000000 1.0
C      1  0.5597980000000  0.4654690000000  0.4695130000000 1.0
C      1  0.5526550000000  0.5185130000000  0.4434270000000 1.0
C      1  0.5485790000000  0.5592950000000  0.4825780000000 1.0
C      1  0.5617290000000  0.5427420000000  0.5405570000000 1.0
C      1  0.5614800000000  0.4845820000000  0.5652000000000 1.0
C      1  0.5629560000000  0.4445600000000  0.5177490000000 1.0
C      1  0.4772040000000  0.5327570000000  0.4030660000000 1.0
C      1  0.4762670000000  0.4403560000000  0.4218160000000 1.0
C      1  0.4720430000000  0.3995300000000  0.5204780000000 1.0
C      1  0.4598550000000  0.4537490000000  0.5942460000000 1.0
C      1  0.4778690000000  0.5618650000000  0.5610460000000 1.0
C      1  0.4531270000000  0.5989200000000  0.4835570000000 1.0
C      1  0.4636550000000  0.4639230000000  0.4075280000000 1.0
C      1  0.4735050000000  0.5626700000000  0.4188130000000 1.0
C      1  0.4627150000000  0.6084720000000  0.5120920000000 1.0
C      1  0.4762500000000  0.5216860000000  0.6007970000000 1.0
C      1  0.4803690000000  0.4297860000000  0.5855010000000 1.0
C      1  0.4641700000000  0.4006010000000  0.4889790000000 1.0
C      1  0.4112980000000  0.4228790000000  0.4454870000000 1.0
C      1  0.4044730000000  0.4041580000000  0.5415590000000 1.0
C      1  0.4190170000000  0.4876860000000  0.5998420000000 1.0
C      1  0.4276160000000  0.5752930000000  0.5650420000000 1.0
C      1  0.4079870000000  0.5894510000000  0.4571320000000 1.0
C      1  0.4246500000000  0.5159680000000  0.4030990000000 1.0
C      1  0.4138010000000  0.5783020000000  0.4353470000000 1.0
C      1  0.4222220000000  0.5907220000000  0.5459740000000 1.0
C      1  0.4237480000000  0.5120660000000  0.6002400000000 1.0
C      1  0.3996920000000  0.4190890000000  0.5642020000000 1.0
C      1  0.4155100000000  0.4100380000000  0.4664290000000 1.0
C      1  0.4203690000000  0.4918020000000  0.3991290000000 1.0
C      1  0.5121760000000  0.6021760000000  0.5424540000000 1.0
C      1  0.5331430000000  0.5955250000000  0.4324150000000 1.0
C      1  0.5356090000000  0.4904220000000  0.3923250000000 1.0
C      1  0.5202130000000  0.3914350000000  0.4618370000000 1.0
C      1  0.5269870000000  0.4020990000000  0.5771020000000 1.0
C      1  0.5237910000000  0.5037280000000  0.6083990000000 1.0
C      1  0.5242950000000  0.4051660000000  0.5486100000000 1.0
C      1  0.5336180000000  0.4129050000000  0.4391040000000 1.0
C      1  0.5381850000000  0.5224740000000  0.3807920000000 1.0
C      1  0.5289780000000  0.6146470000000  0.4558010000000 1.0
C      1  0.5221650000000  0.5860440000000  0.5650050000000 1.0
C      1  0.5304930000000  0.4758600000000  0.6064030000000 1.0
C      1  0.5128640000000  0.5200260000000  0.4408420000000 1.0
C      1  0.5210460000000  0.4629660000000  0.4600730000000 1.0
C      1  0.5231010000000  0.4465720000000  0.5165450000000 1.0
C      1  0.5049510000000  0.4800120000000  0.5568130000000 1.0
C      1  0.5177350000000  0.5304830000000  0.5299750000000 1.0
C      1  0.5061530000000  0.5516400000000  0.4814140000000 1.0
C      1  0.5206860000000  0.4907230000000  0.4458490000000 1.0
C      1  0.5183300000000  0.5459810000000  0.4523560000000 1.0
C      1  0.5205750000000  0.5471090000000  0.5077550000000 1.0
C      1  0.5150140000000  0.5101030000000  0.5564290000000 1.0
C      1  0.5173940000000  0.4602450000000  0.5374600000000 1.0
C      1  0.5093960000000  0.4528400000000  0.4903750000000 1.0
C      1  0.4482370000000  0.5513440000000  0.5647870000000 1.0
C      1  0.4219840000000  0.5870810000000  0.4858170000000 1.0
C      1  0.4473170000000  0.5327470000000  0.4182770000000 1.0
C      1  0.4232560000000  0.4481980000000  0.4374160000000 1.0
C      1  0.4185810000000  0.4117030000000  0.5204730000000 1.0
C      1  0.4323200000000  0.4629840000000  0.5838970000000 1.0
C      1  0.4139110000000  0.4407290000000  0.5698010000000 1.0
C      1  0.4346320000000  0.4123560000000  0.4923310000000 1.0
C      1  0.4339540000000  0.4665510000000  0.4126630000000 1.0
C      1  0.4411840000000  0.5624800000000  0.4295190000000 1.0
C      1  0.4345820000000  0.5900830000000  0.5175550000000 1.0
C      1  0.4475010000000  0.5302070000000  0.5887040000000 1.0
C      1  0.5082810000000  0.3985950000000  0.5188760000000 1.0
C      1  0.5098500000000  0.4569240000000  0.6024430000000 1.0
C      1  0.5138890000000  0.5622120000000  0.5881070000000 1.0
C      1  0.5107930000000  0.6106230000000  0.4842500000000 1.0
C      1  0.5238770000000  0.5508660000000  0.3933560000000 1.0
C      1  0.5269230000000  0.4363370000000  0.4153710000000 1.0
C      1  0.4953650000000  0.6109290000000  0.5131930000000 1.0
C      1  0.5056320000000  0.5322970000000  0.6021170000000 1.0
C      1  0.5111400000000  0.4231280000000  0.5987880000000 1.0
C      1  0.4981360000000  0.4001420000000  0.4868610000000 1.0
C      1  0.5318740000000  0.4571470000000  0.3985530000000 1.0
C      1  0.5213960000000  0.5749220000000  0.4079230000000 1.0
C      1  0.5095990000000  0.5239380000000  0.4084440000000 1.0
C      1  0.5054870000000  0.4408100000000  0.4392290000000 1.0
C      1  0.4976990000000  0.4229840000000  0.5400750000000 1.0
C      1  0.4885410000000  0.4688600000000  0.5847010000000 1.0
C      1  0.5092350000000  0.5493740000000  0.5569670000000 1.0
C      1  0.5097990000000  0.5818300000000  0.4661950000000 1.0
C      1  0.5061370000000  0.4904400000000  0.4058320000000 1.0
C      1  0.5025250000000  0.5704210000000  0.4347710000000 1.0
C      1  0.5037700000000  0.5811000000000  0.5194910000000 1.0
C      1  0.5287870000000  0.5208280000000  0.5808160000000 1.0
C      1  0.5088460000000  0.4364510000000  0.5681550000000 1.0
C      1  0.5083110000000  0.4272300000000  0.4702850000000 1.0
C      1  0.4344220000000  0.5141110000000  0.5617560000000 1.0
C      1  0.4341840000000  0.5577990000000  0.5099310000000 1.0
C      1  0.4295850000000  0.5424840000000  0.4544600000000 1.0
C      1  0.4268670000000  0.4842320000000  0.4408480000000 1.0
C      1  0.4296780000000  0.4453440000000  0.4855710000000 1.0
C      1  0.4232450000000  0.4597200000000  0.5452970000000 1.0
C      1  0.4302830000000  0.4885960000000  0.5615080000000 1.0
C      1  0.4287550000000  0.4425440000000  0.5178730000000 1.0
C      1  0.4387030000000  0.4626630000000  0.4634620000000 1.0
C      1  0.4364530000000  0.5112190000000  0.4422500000000 1.0
C      1  0.4202450000000  0.5539360000000  0.4806830000000 1.0
C      1  0.4375430000000  0.5361280000000  0.5360350000000 1.0
C      1  0.4792650000000  0.4890160000000  0.4193140000000 1.0
C      1  0.4783430000000  0.4996310000000  0.5789900000000 1.0
C      1  0.4842870000000  0.5625240000000  0.5290030000000 1.0
C      1  0.4687060000000  0.4297870000000  0.5340710000000 1.0
C      1  0.4594610000000  0.5705140000000  0.4670150000000 1.0
C      1  0.4684190000000  0.4380640000000  0.4532250000000 1.0
END
