TITL C-2622953-3516-772 -0.00591300965862977 125000 -652.27399802584 0 0 114 (C1) n - 1
REM
REM in /nfs/bkarasulu/CARBON/AIRSS/Generating-Clusters/AIREBO/with-SteepDescent/Higher-Symm/SD-CG/HFTN-CG
REM
REM
REM
REM
REM
REM ./C.cell (b20cbc046b6831c77cfcea5457e17084)
REM
REM compiler GCC version 9.2.1 20190827 (Red Hat 9.2.1-1)
REM options -cpp -mtune=generic -march=x86-64 -g -O0 -fpre-include=/usr/include/finclude/math-vector-fortran.h
REM seed 1924176591 -1354074348 -1833982920 -2079291316 1970426445 1861489563 256568304 1143364399 1918649366 1381818283 -1021903932 1258355117 2129584692 242718053 -2040158761 478219677 -2141128821 1757393176 27245426 292856940 2082892793 1445271064 119974006 921029730 1004344012 -1533629212 2095462498 1265131248 466518539 -1989869688 -1577558633 626936426 -1009658527
REM
CELL 1.54180   50.00000   50.00000   50.00000   90.00000   90.00000   90.00000
LATT -1
SFAC C  
C      1  0.4439280000000  0.5869290000000  0.4655570000000 1.0
C      1  0.5457940000000  0.5694370000000  0.5096120000000 1.0
C      1  0.4471060000000  0.4162830000000  0.5386780000000 1.0
C      1  0.5446390000000  0.4245100000000  0.4916280000000 1.0
C      1  0.4705080000000  0.5852190000000  0.4573830000000 1.0
C      1  0.5255540000000  0.5782950000000  0.5320040000000 1.0
C      1  0.5362800000000  0.4172630000000  0.4594170000000 1.0
C      1  0.4735680000000  0.4196610000000  0.5462700000000 1.0
C      1  0.4874360000000  0.5901940000000  0.5049810000000 1.0
C      1  0.5183110000000  0.5615100000000  0.4939880000000 1.0
C      1  0.4986640000000  0.4012360000000  0.5007190000000 1.0
C      1  0.5162890000000  0.4369330000000  0.5019260000000 1.0
C      1  0.4927750000000  0.5814590000000  0.4767900000000 1.0
C      1  0.4984410000000  0.5768820000000  0.5251010000000 1.0
C      1  0.5089220000000  0.4180270000000  0.4752660000000 1.0
C      1  0.4974330000000  0.4216780000000  0.5258020000000 1.0
C      1  0.5386040000000  0.4312860000000  0.5544800000000 1.0
C      1  0.4583140000000  0.4347300000000  0.4364670000000 1.0
C      1  0.5490140000000  0.5705450000000  0.4400320000000 1.0
C      1  0.4561600000000  0.5680620000000  0.5671500000000 1.0
C      1  0.5593680000000  0.4297070000000  0.5411100000000 1.0
C      1  0.4470820000000  0.4317100000000  0.4585170000000 1.0
C      1  0.4428480000000  0.5666250000000  0.5460510000000 1.0
C      1  0.5649600000000  0.5714500000000  0.4589460000000 1.0
C      1  0.5197010000000  0.4797240000000  0.4212470000000 1.0
C      1  0.4820450000000  0.4810400000000  0.5840280000000 1.0
C      1  0.5178150000000  0.5200410000000  0.5815890000000 1.0
C      1  0.4820790000000  0.5233990000000  0.4202810000000 1.0
C      1  0.4228090000000  0.4756080000000  0.5169960000000 1.0
C      1  0.5769920000000  0.4775410000000  0.4811030000000 1.0
C      1  0.5705370000000  0.5169760000000  0.5151690000000 1.0
C      1  0.4169380000000  0.5224170000000  0.4800150000000 1.0
C      1  0.5297570000000  0.4823370000000  0.5464850000000 1.0
C      1  0.4825030000000  0.4924170000000  0.4559580000000 1.0
C      1  0.5236710000000  0.5195760000000  0.4480970000000 1.0
C      1  0.4655240000000  0.5153790000000  0.5521630000000 1.0
C      1  0.5397430000000  0.4809710000000  0.5185290000000 1.0
C      1  0.4544640000000  0.4891890000000  0.4689550000000 1.0
C      1  0.4466220000000  0.5098260000000  0.5278220000000 1.0
C      1  0.5480180000000  0.5146530000000  0.4641920000000 1.0
C      1  0.4440510000000  0.5361680000000  0.4647400000000 1.0
C      1  0.5457670000000  0.5305370000000  0.5304290000000 1.0
C      1  0.4500060000000  0.4679600000000  0.5346900000000 1.0
C      1  0.5532780000000  0.4666030000000  0.4634580000000 1.0
C      1  0.4688730000000  0.5381730000000  0.4457510000000 1.0
C      1  0.5267120000000  0.5335440000000  0.5535790000000 1.0
C      1  0.5356420000000  0.4608680000000  0.4394870000000 1.0
C      1  0.4692210000000  0.4673830000000  0.5579660000000 1.0
C      1  0.5278370000000  0.5649130000000  0.5569690000000 1.0
C      1  0.4739810000000  0.5672440000000  0.4361820000000 1.0
C      1  0.5323810000000  0.4316110000000  0.4353190000000 1.0
C      1  0.4750430000000  0.4381720000000  0.5669160000000 1.0
C      1  0.5691450000000  0.5548450000000  0.5260890000000 1.0
C      1  0.4317960000000  0.5634170000000  0.4745250000000 1.0
C      1  0.4345330000000  0.4394160000000  0.5290980000000 1.0
C      1  0.5664220000000  0.4400410000000  0.4729400000000 1.0
C      1  0.5784890000000  0.4928880000000  0.5272280000000 1.0
C      1  0.4152310000000  0.4959150000000  0.4687560000000 1.0
C      1  0.5853760000000  0.5025350000000  0.4698310000000 1.0
C      1  0.4088800000000  0.4982680000000  0.5297960000000 1.0
C      1  0.5278420000000  0.4937380000000  0.5847180000000 1.0
C      1  0.4715210000000  0.4977090000000  0.4155970000000 1.0
C      1  0.4726670000000  0.5067030000000  0.5903690000000 1.0
C      1  0.5318090000000  0.5034800000000  0.4126460000000 1.0
C      1  0.4320200000000  0.4924080000000  0.4436180000000 1.0
C      1  0.5761400000000  0.4900700000000  0.5553420000000 1.0
C      1  0.4271450000000  0.5055710000000  0.5551010000000 1.0
C      1  0.5710670000000  0.5071060000000  0.4422210000000 1.0
C      1  0.4437490000000  0.4929850000000  0.4184570000000 1.0
C      1  0.5505460000000  0.4879960000000  0.5665630000000 1.0
C      1  0.5602040000000  0.5064800000000  0.4162360000000 1.0
C      1  0.4451360000000  0.5121760000000  0.5785240000000 1.0
C      1  0.4833130000000  0.5532640000000  0.5692580000000 1.0
C      1  0.5219770000000  0.5574390000000  0.4358670000000 1.0
C      1  0.4863070000000  0.4467750000000  0.4372490000000 1.0
C      1  0.5128450000000  0.4488290000000  0.5600100000000 1.0
C      1  0.5687420000000  0.5593650000000  0.4866200000000 1.0
C      1  0.4412340000000  0.5487120000000  0.5211560000000 1.0
C      1  0.4503420000000  0.4482840000000  0.4840740000000 1.0
C      1  0.5678310000000  0.4381740000000  0.5126520000000 1.0
C      1  0.4986840000000  0.5153200000000  0.5469970000000 1.0
C      1  0.4951140000000  0.5234800000000  0.4616380000000 1.0
C      1  0.5101630000000  0.4733830000000  0.4613290000000 1.0
C      1  0.4972700000000  0.4833610000000  0.5472190000000 1.0
C      1  0.5319870000000  0.5106470000000  0.5068180000000 1.0
C      1  0.4546050000000  0.5151220000000  0.4892920000000 1.0
C      1  0.4599560000000  0.4879370000000  0.5090210000000 1.0
C      1  0.5338610000000  0.4891030000000  0.4799810000000 1.0
C      1  0.4794020000000  0.4537060000000  0.5010090000000 1.0
C      1  0.5173680000000  0.4673170000000  0.5002280000000 1.0
C      1  0.4709340000000  0.5360350000000  0.5104840000000 1.0
C      1  0.5109040000000  0.5369350000000  0.5114690000000 1.0
C      1  0.4930990000000  0.4460950000000  0.4707250000000 1.0
C      1  0.4956850000000  0.4543900000000  0.5311070000000 1.0
C      1  0.5064450000000  0.5554160000000  0.4644420000000 1.0
C      1  0.4900540000000  0.5465150000000  0.5365800000000 1.0
C      1  0.4910150000000  0.5277750000000  0.5866490000000 1.0
C      1  0.5134380000000  0.5295270000000  0.4183640000000 1.0
C      1  0.4899500000000  0.4759090000000  0.4271820000000 1.0
C      1  0.5089480000000  0.4727550000000  0.5838900000000 1.0
C      1  0.5708300000000  0.5275870000000  0.4858700000000 1.0
C      1  0.4203370000000  0.5239860000000  0.5114140000000 1.0
C      1  0.4297230000000  0.4740120000000  0.4870400000000 1.0
C      1  0.5687080000000  0.4690190000000  0.5101430000000 1.0
C      1  0.5894320000000  0.4267620000000  0.4890000000000 1.0
C      1  0.4268940000000  0.4378180000000  0.5033160000000 1.0
C      1  0.5938080000000  0.5608990000000  0.5100040000000 1.0
C      1  0.4221210000000  0.5620670000000  0.4995230000000 1.0
C      1  0.4961800000000  0.4351450000000  0.5863030000000 1.0
C      1  0.5075620000000  0.4279180000000  0.4236550000000 1.0
C      1  0.5082160000000  0.5720490000000  0.5751190000000 1.0
C      1  0.4964290000000  0.5698640000000  0.4210140000000 1.0
C      1  0.4905340000000  0.4857740000000  0.4990390000000 1.0
C      1  0.4940270000000  0.5162580000000  0.4936040000000 1.0
END
