TITL C-2622961-1971-466 0.000962000740125651 125000 -211.314880189525 0 0 43 (C1) n - 1
REM
REM in /nfs/bkarasulu/CARBON/AIRSS/Generating-Clusters/AIREBO/with-SteepDescent/Higher-Symm/SD-CG/HFTN-CG
REM
REM
REM
REM
REM
REM ./C.cell (b20cbc046b6831c77cfcea5457e17084)
REM
REM compiler GCC version 9.2.1 20190827 (Red Hat 9.2.1-1)
REM options -cpp -mtune=generic -march=x86-64 -g -O0 -fpre-include=/usr/include/finclude/math-vector-fortran.h
REM seed 1074061735 -206381695 751320269 1972721636 2097147407 1532184180 732916478 -945795014 -1138705514 -1097367457 790674201 -1629291299 555918143 -986689158 858709604 1633119862 -1165309960 1430051799 2137602477 -1579949648 -1533960842 1483490204 -1155795984 -1972714781 -1600204261 1586460355 381626532 119655965 -199233771 -608114312 -542042178 486277898 907177362
REM
CELL 1.54180   50.00000   50.00000   50.00000   90.00000   90.00000   90.00000
LATT -1
SFAC C  
C      1  0.5290360000000  0.5501150000000  0.5100290000000 1.0
C      1  0.5295040000000  0.5393250000000  0.4812660000000 1.0
C      1  0.4994140000000  0.5336210000000  0.4660270000000 1.0
C      1  0.4673080000000  0.5347560000000  0.4751920000000 1.0
C      1  0.4623490000000  0.5311610000000  0.5065940000000 1.0
C      1  0.4803550000000  0.5454070000000  0.5272790000000 1.0
C      1  0.5093120000000  0.5353330000000  0.5287120000000 1.0
C      1  0.4571930000000  0.4571000000000  0.4967400000000 1.0
C      1  0.4715590000000  0.4478540000000  0.5253910000000 1.0
C      1  0.5045850000000  0.4478000000000  0.5244480000000 1.0
C      1  0.5360340000000  0.4426820000000  0.5204520000000 1.0
C      1  0.5410810000000  0.4456690000000  0.4870670000000 1.0
C      1  0.5090930000000  0.4515650000000  0.4799910000000 1.0
C      1  0.4779620000000  0.4555290000000  0.4704160000000 1.0
C      1  0.4777600000000  0.5110620000000  0.4313140000000 1.0
C      1  0.4298500000000  0.5210680000000  0.4723650000000 1.0
C      1  0.4516410000000  0.5193990000000  0.5507330000000 1.0
C      1  0.5049840000000  0.5098050000000  0.5683500000000 1.0
C      1  0.5487200000000  0.5207630000000  0.5422590000000 1.0
C      1  0.5679250000000  0.5127570000000  0.4916160000000 1.0
C      1  0.5390480000000  0.5208780000000  0.4471480000000 1.0
C      1  0.4866970000000  0.5022350000000  0.4629190000000 1.0
C      1  0.4527340000000  0.5025150000000  0.4646300000000 1.0
C      1  0.4660440000000  0.5026990000000  0.5248490000000 1.0
C      1  0.4919160000000  0.4936230000000  0.5441150000000 1.0
C      1  0.5216040000000  0.5036690000000  0.5308930000000 1.0
C      1  0.5430480000000  0.4959850000000  0.5056290000000 1.0
C      1  0.5319470000000  0.5058680000000  0.4756440000000 1.0
C      1  0.4892550000000  0.4642350000000  0.5489520000000 1.0
C      1  0.5268520000000  0.4707000000000  0.5373890000000 1.0
C      1  0.5542160000000  0.4681900000000  0.5084100000000 1.0
C      1  0.5325410000000  0.4747770000000  0.4709430000000 1.0
C      1  0.5022610000000  0.4741300000000  0.4554920000000 1.0
C      1  0.4497040000000  0.4730930000000  0.4690800000000 1.0
C      1  0.4502730000000  0.4744360000000  0.5236600000000 1.0
C      1  0.4325210000000  0.5335720000000  0.4946540000000 1.0
C      1  0.4651360000000  0.5443430000000  0.5508220000000 1.0
C      1  0.5148760000000  0.5318310000000  0.5601890000000 1.0
C      1  0.5500740000000  0.5458610000000  0.5295190000000 1.0
C      1  0.5609880000000  0.5331680000000  0.4781120000000 1.0
C      1  0.5204450000000  0.5383860000000  0.4423610000000 1.0
C      1  0.4665380000000  0.5332980000000  0.4432590000000 1.0
C      1  0.4822980000000  0.4952810000000  0.4959130000000 1.0
END
