TITL C-2622958-629-318 -0.00551898133443436 125000 -660.433108707086 0 0 125 (C1) n - 1
REM
REM in /nfs/bkarasulu/CARBON/AIRSS/Generating-Clusters/AIREBO/with-SteepDescent/Higher-Symm/SD-CG/HFTN-CG
REM
REM
REM
REM
REM
REM ./C.cell (b20cbc046b6831c77cfcea5457e17084)
REM
REM compiler GCC version 9.2.1 20190827 (Red Hat 9.2.1-1)
REM options -cpp -mtune=generic -march=x86-64 -g -O0 -fpre-include=/usr/include/finclude/math-vector-fortran.h
REM seed 100223656 -1057034286 1361352045 -1291323553 -1171932778 439517844 2058951454 626003582 237346857 -1184494421 -366063959 -1802472641 -2124192017 -499601185 2067920683 96480477 -66616407 986876983 -226961174 1799891610 -951415241 1577677638 28949199 965314178 749951334 -1190555689 -938773796 1859546816 -555986913 1979842551 -542839268 -1586737898 1936519285
REM
CELL 1.54180   50.00000   50.00000   50.00000   90.00000   90.00000   90.00000
LATT -1
SFAC C  
C      1  0.4108130000000  0.4852950000000  0.5797930000000 1.0
C      1  0.5275400000000  0.5788450000000  0.4764020000000 1.0
C      1  0.5163470000000  0.5329200000000  0.4345810000000 1.0
C      1  0.5264570000000  0.5288510000000  0.5555870000000 1.0
C      1  0.5108290000000  0.5544810000000  0.5673430000000 1.0
C      1  0.4368890000000  0.5509550000000  0.5438680000000 1.0
C      1  0.5131020000000  0.4298140000000  0.5517620000000 1.0
C      1  0.4957410000000  0.4384620000000  0.5294310000000 1.0
C      1  0.5451390000000  0.5842680000000  0.5487170000000 1.0
C      1  0.4587520000000  0.5987630000000  0.5173500000000 1.0
C      1  0.5331750000000  0.5351480000000  0.5942040000000 1.0
C      1  0.4169780000000  0.4022120000000  0.5081140000000 1.0
C      1  0.5514410000000  0.4855620000000  0.5200310000000 1.0
C      1  0.4484280000000  0.4625450000000  0.4379390000000 1.0
C      1  0.5015040000000  0.5208420000000  0.5209960000000 1.0
C      1  0.5604980000000  0.5287790000000  0.4156850000000 1.0
C      1  0.5463430000000  0.5374670000000  0.4990870000000 1.0
C      1  0.4033960000000  0.5746230000000  0.5103810000000 1.0
C      1  0.5387550000000  0.4183820000000  0.5488140000000 1.0
C      1  0.5359180000000  0.4362440000000  0.4993810000000 1.0
C      1  0.4354940000000  0.4411680000000  0.4824510000000 1.0
C      1  0.4427510000000  0.5408100000000  0.4421450000000 1.0
C      1  0.5349320000000  0.5235040000000  0.4589390000000 1.0
C      1  0.5004030000000  0.4407390000000  0.4816750000000 1.0
C      1  0.4631710000000  0.4124070000000  0.4578490000000 1.0
C      1  0.4740530000000  0.4206270000000  0.4890470000000 1.0
C      1  0.4144670000000  0.5180700000000  0.5227860000000 1.0
C      1  0.5766920000000  0.4555260000000  0.5373390000000 1.0
C      1  0.5060680000000  0.5846250000000  0.4571770000000 1.0
C      1  0.5306630000000  0.4759100000000  0.5464180000000 1.0
C      1  0.4787700000000  0.5247500000000  0.5815980000000 1.0
C      1  0.5624570000000  0.5769590000000  0.4570390000000 1.0
C      1  0.5920170000000  0.5227210000000  0.5034840000000 1.0
C      1  0.5549770000000  0.5818650000000  0.4875190000000 1.0
C      1  0.4285170000000  0.5500610000000  0.4605080000000 1.0
C      1  0.4359400000000  0.4198810000000  0.5046960000000 1.0
C      1  0.5038680000000  0.5600120000000  0.5285080000000 1.0
C      1  0.4787650000000  0.5390220000000  0.5378320000000 1.0
C      1  0.4858410000000  0.5442560000000  0.4444610000000 1.0
C      1  0.4643800000000  0.5940980000000  0.5438690000000 1.0
C      1  0.5255510000000  0.4594220000000  0.4767470000000 1.0
C      1  0.5630020000000  0.4738300000000  0.5563410000000 1.0
C      1  0.5231310000000  0.4736610000000  0.5855600000000 1.0
C      1  0.4146990000000  0.5139490000000  0.4700290000000 1.0
C      1  0.4450510000000  0.4677190000000  0.5713100000000 1.0
C      1  0.5869140000000  0.4831760000000  0.4416690000000 1.0
C      1  0.5142430000000  0.4784130000000  0.4561810000000 1.0
C      1  0.5160520000000  0.5468780000000  0.4748750000000 1.0
C      1  0.5210680000000  0.4547520000000  0.5215840000000 1.0
C      1  0.4920100000000  0.4638800000000  0.4067090000000 1.0
C      1  0.4312370000000  0.5360380000000  0.4899430000000 1.0
C      1  0.4592070000000  0.4242650000000  0.5259920000000 1.0
C      1  0.5793750000000  0.5254550000000  0.5529680000000 1.0
C      1  0.5754870000000  0.4685140000000  0.5083390000000 1.0
C      1  0.5659380000000  0.5604470000000  0.5415730000000 1.0
C      1  0.5367310000000  0.4505580000000  0.4381790000000 1.0
C      1  0.4575600000000  0.5185580000000  0.4987340000000 1.0
C      1  0.4718660000000  0.4490150000000  0.5076340000000 1.0
C      1  0.5338470000000  0.5209180000000  0.5260360000000 1.0
C      1  0.5332590000000  0.5079890000000  0.4883100000000 1.0
C      1  0.5336800000000  0.4902610000000  0.4367290000000 1.0
C      1  0.4289010000000  0.5037310000000  0.4472600000000 1.0
C      1  0.5498020000000  0.4153990000000  0.5190700000000 1.0
C      1  0.5027290000000  0.4056220000000  0.4994720000000 1.0
C      1  0.4842490000000  0.5525230000000  0.5748890000000 1.0
C      1  0.4224990000000  0.4652780000000  0.4969060000000 1.0
C      1  0.5540640000000  0.5021630000000  0.4121460000000 1.0
C      1  0.5603650000000  0.5022090000000  0.4514410000000 1.0
C      1  0.5133200000000  0.4305770000000  0.4519050000000 1.0
C      1  0.4557540000000  0.4531000000000  0.5437590000000 1.0
C      1  0.4827000000000  0.5362950000000  0.4972050000000 1.0
C      1  0.4480690000000  0.5056780000000  0.4183450000000 1.0
C      1  0.4863010000000  0.4949490000000  0.4159110000000 1.0
C      1  0.5179090000000  0.5767160000000  0.5493400000000 1.0
C      1  0.4261210000000  0.5291870000000  0.5673570000000 1.0
C      1  0.5079060000000  0.5196370000000  0.5894770000000 1.0
C      1  0.5197360000000  0.4992570000000  0.5673290000000 1.0
C      1  0.4424650000000  0.5156700000000  0.5258850000000 1.0
C      1  0.4598960000000  0.4743810000000  0.4117800000000 1.0
C      1  0.5273490000000  0.4122220000000  0.4768740000000 1.0
C      1  0.5220510000000  0.5624950000000  0.4216460000000 1.0
C      1  0.5191440000000  0.4855480000000  0.5093970000000 1.0
C      1  0.5572600000000  0.5055300000000  0.5454220000000 1.0
C      1  0.4298760000000  0.5588690000000  0.5117400000000 1.0
C      1  0.5879920000000  0.5393390000000  0.5264960000000 1.0
C      1  0.4664280000000  0.5165480000000  0.4448210000000 1.0
C      1  0.4795230000000  0.3766150000000  0.5366630000000 1.0
C      1  0.5618370000000  0.5643590000000  0.5095950000000 1.0
C      1  0.5639010000000  0.4504610000000  0.4862960000000 1.0
C      1  0.4984700000000  0.4621980000000  0.5914030000000 1.0
C      1  0.4802980000000  0.4395240000000  0.4547750000000 1.0
C      1  0.4837920000000  0.5673230000000  0.4598930000000 1.0
C      1  0.4674660000000  0.4871510000000  0.4960910000000 1.0
C      1  0.4556220000000  0.4869720000000  0.4577060000000 1.0
C      1  0.5514860000000  0.5522880000000  0.4356100000000 1.0
C      1  0.4986730000000  0.5421410000000  0.4070880000000 1.0
C      1  0.4756690000000  0.4643060000000  0.5763420000000 1.0
C      1  0.5598650000000  0.4715480000000  0.4257610000000 1.0
C      1  0.5884220000000  0.5011910000000  0.4700030000000 1.0
C      1  0.4955330000000  0.5006390000000  0.4449800000000 1.0
C      1  0.5882700000000  0.5333550000000  0.4744120000000 1.0
C      1  0.5177340000000  0.5542180000000  0.5061170000000 1.0
C      1  0.4633290000000  0.5649250000000  0.5535540000000 1.0
C      1  0.4030010000000  0.5091290000000  0.4981350000000 1.0
C      1  0.4534110000000  0.5765360000000  0.5009800000000 1.0
C      1  0.4986850000000  0.4887200000000  0.4827130000000 1.0
C      1  0.5141960000000  0.4493070000000  0.4127150000000 1.0
C      1  0.4619880000000  0.5140290000000  0.5536910000000 1.0
C      1  0.5935760000000  0.4914200000000  0.4997650000000 1.0
C      1  0.5599890000000  0.5447590000000  0.4676910000000 1.0
C      1  0.4804200000000  0.3996860000000  0.5220080000000 1.0
C      1  0.5690350000000  0.4288600000000  0.5403700000000 1.0
C      1  0.4354060000000  0.4421160000000  0.4503360000000 1.0
C      1  0.4978290000000  0.5195270000000  0.4731860000000 1.0
C      1  0.4057350000000  0.5372520000000  0.5435630000000 1.0
C      1  0.5491940000000  0.4657880000000  0.5841310000000 1.0
C      1  0.4762730000000  0.5230490000000  0.4061460000000 1.0
C      1  0.4724010000000  0.5633950000000  0.4855250000000 1.0
C      1  0.4349730000000  0.4989840000000  0.5678570000000 1.0
C      1  0.5514500000000  0.4324970000000  0.4629420000000 1.0
C      1  0.4386680000000  0.4787720000000  0.5109490000000 1.0
C      1  0.4733850000000  0.4825500000000  0.5477380000000 1.0
C      1  0.4882340000000  0.4907070000000  0.5227760000000 1.0
C      1  0.5537880000000  0.5419480000000  0.5679130000000 1.0
C      1  0.4634050000000  0.4596670000000  0.4764550000000 1.0
END
