TITL C-2622966-9038-586 -0.0030275972195316 125000 -338.558144899601 0 0 60 (C1) n - 1
REM
REM in /nfs/bkarasulu/CARBON/AIRSS/Generating-Clusters/AIREBO/with-SteepDescent/Higher-Symm/SD-CG/HFTN-CG
REM
REM
REM
REM
REM
REM ./C.cell (b20cbc046b6831c77cfcea5457e17084)
REM
REM compiler GCC version 9.2.1 20190827 (Red Hat 9.2.1-1)
REM options -cpp -mtune=generic -march=x86-64 -g -O0 -fpre-include=/usr/include/finclude/math-vector-fortran.h
REM seed 1965870420 2003044940 2015103051 -21374283 -1093051856 275082156 1327164137 457034998 -10209167 -1171961474 501739230 -1843006455 -1224119358 -951019584 -805830114 759708371 -202012890 1143480025 1978246451 -1676733754 537843533 -1435590165 -1805523299 -576479763 12640589 1489887005 1597443569 -1615560277 -832494128 1765497119 -1861457550 -2011581297 -923107603
REM
CELL 1.54180   50.00000   50.00000   50.00000   90.00000   90.00000   90.00000
LATT -1
SFAC C  
C      1  0.4705800000000  0.4981410000000  0.5086820000000 1.0
C      1  0.5130060000000  0.4965410000000  0.5309240000000 1.0
C      1  0.5244770000000  0.4947990000000  0.4801740000000 1.0
C      1  0.4772190000000  0.4809260000000  0.4654260000000 1.0
C      1  0.4314070000000  0.4923320000000  0.5042650000000 1.0
C      1  0.5081260000000  0.4916850000000  0.5703240000000 1.0
C      1  0.5686310000000  0.4961400000000  0.4890770000000 1.0
C      1  0.4920350000000  0.5017200000000  0.4318450000000 1.0
C      1  0.5511780000000  0.5022350000000  0.4664740000000 1.0
C      1  0.4626810000000  0.4968030000000  0.4465170000000 1.0
C      1  0.4465170000000  0.5023570000000  0.5308410000000 1.0
C      1  0.5339590000000  0.4813710000000  0.5507590000000 1.0
C      1  0.5206920000000  0.5212430000000  0.5007510000000 1.0
C      1  0.5084250000000  0.5362270000000  0.4753090000000 1.0
C      1  0.4818430000000  0.5258930000000  0.4939290000000 1.0
C      1  0.4961140000000  0.5248630000000  0.5239640000000 1.0
C      1  0.4346850000000  0.4625150000000  0.4973390000000 1.0
C      1  0.4829330000000  0.4731120000000  0.5656950000000 1.0
C      1  0.5609390000000  0.4710170000000  0.5012180000000 1.0
C      1  0.5116760000000  0.4740500000000  0.4294690000000 1.0
C      1  0.5328240000000  0.5487630000000  0.4586930000000 1.0
C      1  0.4696400000000  0.5430300000000  0.4686100000000 1.0
C      1  0.4772830000000  0.5381670000000  0.5439960000000 1.0
C      1  0.5370320000000  0.5348120000000  0.5267150000000 1.0
C      1  0.5459140000000  0.5205100000000  0.4466060000000 1.0
C      1  0.4364730000000  0.5019410000000  0.4547600000000 1.0
C      1  0.4587150000000  0.5123110000000  0.5540260000000 1.0
C      1  0.5515650000000  0.5058210000000  0.5356980000000 1.0
C      1  0.4835240000000  0.4876460000000  0.5348600000000 1.0
C      1  0.5291040000000  0.4820070000000  0.5088950000000 1.0
C      1  0.5063240000000  0.4800430000000  0.4622630000000 1.0
C      1  0.4650470000000  0.4753910000000  0.4908260000000 1.0
C      1  0.4674900000000  0.4361150000000  0.5289570000000 1.0
C      1  0.5220220000000  0.4531770000000  0.5356760000000 1.0
C      1  0.5285890000000  0.4355870000000  0.4780830000000 1.0
C      1  0.4873220000000  0.4319070000000  0.4565620000000 1.0
C      1  0.5328710000000  0.5552160000000  0.5486980000000 1.0
C      1  0.5666080000000  0.5824880000000  0.4731620000000 1.0
C      1  0.4720480000000  0.5715100000000  0.4685780000000 1.0
C      1  0.4582390000000  0.5583680000000  0.5302640000000 1.0
C      1  0.4871400000000  0.4157600000000  0.5361770000000 1.0
C      1  0.5115300000000  0.4237660000000  0.5234540000000 1.0
C      1  0.5082170000000  0.4232790000000  0.4956090000000 1.0
C      1  0.4824770000000  0.4265690000000  0.4833540000000 1.0
C      1  0.4896030000000  0.4555140000000  0.5392780000000 1.0
C      1  0.5368420000000  0.4494780000000  0.5052950000000 1.0
C      1  0.5143820000000  0.4498300000000  0.4532770000000 1.0
C      1  0.4622120000000  0.4426820000000  0.4996650000000 1.0
C      1  0.5569190000000  0.5435890000000  0.5008460000000 1.0
C      1  0.5073240000000  0.5501060000000  0.4362270000000 1.0
C      1  0.4440240000000  0.5363800000000  0.4864250000000 1.0
C      1  0.4935500000000  0.5420060000000  0.5720110000000 1.0
C      1  0.4421140000000  0.5531750000000  0.5088320000000 1.0
C      1  0.5170690000000  0.5564570000000  0.5707880000000 1.0
C      1  0.5524680000000  0.5597790000000  0.4789830000000 1.0
C      1  0.4828190000000  0.5323620000000  0.4434390000000 1.0
C      1  0.5675250000000  0.5159890000000  0.5097210000000 1.0
C      1  0.5194370000000  0.5212720000000  0.4330550000000 1.0
C      1  0.4328300000000  0.5110050000000  0.4818930000000 1.0
C      1  0.4857600000000  0.5122210000000  0.5727610000000 1.0
END
