TITL C-2622958-629-179 -0.00111015438512846 125000 -475.600451308006 0 0 85 (C1) n - 1
REM
REM in /nfs/bkarasulu/CARBON/AIRSS/Generating-Clusters/AIREBO/with-SteepDescent/Higher-Symm/SD-CG/HFTN-CG
REM
REM
REM
REM
REM
REM ./C.cell (b20cbc046b6831c77cfcea5457e17084)
REM
REM compiler GCC version 9.2.1 20190827 (Red Hat 9.2.1-1)
REM options -cpp -mtune=generic -march=x86-64 -g -O0 -fpre-include=/usr/include/finclude/math-vector-fortran.h
REM seed 1807819178 142151772 -677832743 -427339762 2045466337 539183941 -1520833040 -516428968 -2127329069 198064435 -1366319805 -900256765 -2058487351 -368294076 -1829069657 -1431968320 489976905 -54896282 918231432 -283455281 1481661098 1955017667 897656174 -1818254987 -2107831530 -339732735 794014767 -187545880 1767292164 211172970 1032886683 -1021667836 1261675603
REM
CELL 1.54180   50.00000   50.00000   50.00000   90.00000   90.00000   90.00000
LATT -1
SFAC C  
C      1  0.4887420000000  0.4082910000000  0.5041890000000 1.0
C      1  0.5144140000000  0.5880960000000  0.5092320000000 1.0
C      1  0.4853740000000  0.5795080000000  0.5043110000000 1.0
C      1  0.5161000000000  0.4211920000000  0.5014470000000 1.0
C      1  0.5290180000000  0.5645060000000  0.4300010000000 1.0
C      1  0.4671490000000  0.4449090000000  0.4341070000000 1.0
C      1  0.5235210000000  0.4504870000000  0.4307990000000 1.0
C      1  0.4747080000000  0.5632400000000  0.4345770000000 1.0
C      1  0.4830990000000  0.5161990000000  0.5482130000000 1.0
C      1  0.5286930000000  0.4800890000000  0.5510530000000 1.0
C      1  0.4665560000000  0.4723800000000  0.5550150000000 1.0
C      1  0.5167260000000  0.5113810000000  0.5452260000000 1.0
C      1  0.4434420000000  0.4857820000000  0.5408270000000 1.0
C      1  0.5507780000000  0.5122020000000  0.5422510000000 1.0
C      1  0.4507810000000  0.5124430000000  0.5382300000000 1.0
C      1  0.5595720000000  0.4836560000000  0.5427470000000 1.0
C      1  0.4835680000000  0.4542170000000  0.4811870000000 1.0
C      1  0.5219620000000  0.5494920000000  0.4729420000000 1.0
C      1  0.4909140000000  0.5554480000000  0.4809330000000 1.0
C      1  0.5126660000000  0.4519200000000  0.4908490000000 1.0
C      1  0.5127650000000  0.5453650000000  0.5763510000000 1.0
C      1  0.4864160000000  0.4573640000000  0.5767880000000 1.0
C      1  0.5166950000000  0.4628890000000  0.5758430000000 1.0
C      1  0.4837700000000  0.5442140000000  0.5767540000000 1.0
C      1  0.5296850000000  0.5870030000000  0.4851990000000 1.0
C      1  0.4708420000000  0.4160450000000  0.4836870000000 1.0
C      1  0.5315030000000  0.4224290000000  0.4718310000000 1.0
C      1  0.4700820000000  0.5888230000000  0.4752620000000 1.0
C      1  0.4715220000000  0.4871980000000  0.5843890000000 1.0
C      1  0.5236120000000  0.5173310000000  0.5774110000000 1.0
C      1  0.4746160000000  0.5150490000000  0.5785520000000 1.0
C      1  0.5272300000000  0.4924250000000  0.5890630000000 1.0
C      1  0.5386870000000  0.4681780000000  0.5005860000000 1.0
C      1  0.4651320000000  0.5378720000000  0.4930100000000 1.0
C      1  0.5400560000000  0.5418940000000  0.4966380000000 1.0
C      1  0.4618960000000  0.4592760000000  0.5043740000000 1.0
C      1  0.5316420000000  0.4231460000000  0.5297720000000 1.0
C      1  0.4748520000000  0.5664690000000  0.5330470000000 1.0
C      1  0.5244170000000  0.5720950000000  0.5319510000000 1.0
C      1  0.4775060000000  0.4080510000000  0.5338380000000 1.0
C      1  0.5155100000000  0.4322250000000  0.4511380000000 1.0
C      1  0.4849870000000  0.5824040000000  0.4520680000000 1.0
C      1  0.5148680000000  0.5785100000000  0.4569540000000 1.0
C      1  0.4833440000000  0.4313340000000  0.4569930000000 1.0
C      1  0.4829250000000  0.5095190000000  0.5148740000000 1.0
C      1  0.5133520000000  0.4784520000000  0.5208260000000 1.0
C      1  0.4796010000000  0.4799200000000  0.5247910000000 1.0
C      1  0.5177390000000  0.5111110000000  0.5112400000000 1.0
C      1  0.5566030000000  0.5091390000000  0.4592950000000 1.0
C      1  0.4385440000000  0.4874230000000  0.4590250000000 1.0
C      1  0.5658110000000  0.4786390000000  0.4588710000000 1.0
C      1  0.4404390000000  0.5173810000000  0.4533220000000 1.0
C      1  0.4486830000000  0.4301180000000  0.4937400000000 1.0
C      1  0.5517810000000  0.5707100000000  0.4889900000000 1.0
C      1  0.4525150000000  0.5674710000000  0.4851620000000 1.0
C      1  0.5499540000000  0.4382860000000  0.4887400000000 1.0
C      1  0.4432530000000  0.5154700000000  0.4869860000000 1.0
C      1  0.5630600000000  0.4857380000000  0.4908120000000 1.0
C      1  0.4404660000000  0.4821310000000  0.4910710000000 1.0
C      1  0.5590690000000  0.5177130000000  0.4918780000000 1.0
C      1  0.5362830000000  0.5127900000000  0.4322510000000 1.0
C      1  0.4551790000000  0.4709560000000  0.4438180000000 1.0
C      1  0.5377900000000  0.4793910000000  0.4405360000000 1.0
C      1  0.4633720000000  0.5318120000000  0.4408920000000 1.0
C      1  0.4792720000000  0.4400930000000  0.5264320000000 1.0
C      1  0.5197460000000  0.5434260000000  0.5216210000000 1.0
C      1  0.4879740000000  0.5416650000000  0.5179440000000 1.0
C      1  0.5083270000000  0.4476880000000  0.5302300000000 1.0
C      1  0.4825020000000  0.4741830000000  0.4564890000000 1.0
C      1  0.5196600000000  0.5239190000000  0.4567980000000 1.0
C      1  0.4872630000000  0.5298940000000  0.4606750000000 1.0
C      1  0.5150860000000  0.4712010000000  0.4637520000000 1.0
C      1  0.5247920000000  0.5671520000000  0.5609530000000 1.0
C      1  0.4753940000000  0.4319390000000  0.5581090000000 1.0
C      1  0.5285020000000  0.4403650000000  0.5557370000000 1.0
C      1  0.4706370000000  0.5631160000000  0.5594200000000 1.0
C      1  0.4373610000000  0.5254970000000  0.5185070000000 1.0
C      1  0.5726450000000  0.4749220000000  0.5205430000000 1.0
C      1  0.4290540000000  0.4754940000000  0.5203760000000 1.0
C      1  0.5647400000000  0.5265340000000  0.5236210000000 1.0
C      1  0.4911030000000  0.5387680000000  0.4214870000000 1.0
C      1  0.5078040000000  0.4493030000000  0.4072950000000 1.0
C      1  0.4804700000000  0.4441850000000  0.4091080000000 1.0
C      1  0.5193840000000  0.5399150000000  0.4204930000000 1.0
C      1  0.5004300000000  0.5001160000000  0.4619620000000 1.0
END
