TITL C-2622956-4641-624 -0.000185159370037201 125000 -830.224243699524 0 0 158 (C1) n - 1
REM
REM in /nfs/bkarasulu/CARBON/AIRSS/Generating-Clusters/AIREBO/with-SteepDescent/Higher-Symm/SD-CG/HFTN-CG
REM
REM
REM
REM
REM
REM ./C.cell (b20cbc046b6831c77cfcea5457e17084)
REM
REM compiler GCC version 9.2.1 20190827 (Red Hat 9.2.1-1)
REM options -cpp -mtune=generic -march=x86-64 -g -O0 -fpre-include=/usr/include/finclude/math-vector-fortran.h
REM seed -35682882 59327535 -126969247 403056266 1772286781 -1429022640 -2115784976 -1316622303 1636116478 -101758133 -2117143055 1682064557 599100073 1297526878 600719491 216205339 481957926 -1515759311 984279153 -988446782 1799510992 -2010028207 -1892103971 986044453 -473986659 -330498605 -635539447 -1023569393 -879868393 -431793083 -446805349 -1063061370 -1283057514
REM
CELL 1.54180   50.00000   50.00000   50.00000   90.00000   90.00000   90.00000
LATT -1
SFAC C  
C      1  0.4828360000000  0.6095570000000  0.4795250000000 1.0
C      1  0.5117740000000  0.6079390000000  0.4799770000000 1.0
C      1  0.5205540000000  0.6048850000000  0.5070150000000 1.0
C      1  0.4969470000000  0.6053200000000  0.5231190000000 1.0
C      1  0.4741290000000  0.6098020000000  0.5067690000000 1.0
C      1  0.5147280000000  0.3949240000000  0.4776970000000 1.0
C      1  0.4864220000000  0.3936380000000  0.4803720000000 1.0
C      1  0.4792840000000  0.3956300000000  0.5076330000000 1.0
C      1  0.5034130000000  0.3963800000000  0.5229830000000 1.0
C      1  0.5253290000000  0.3946230000000  0.5045990000000 1.0
C      1  0.4458430000000  0.5768530000000  0.4414890000000 1.0
C      1  0.5403820000000  0.5719450000000  0.4351190000000 1.0
C      1  0.5698080000000  0.5707730000000  0.5330200000000 1.0
C      1  0.5064860000000  0.5644130000000  0.5664350000000 1.0
C      1  0.4332980000000  0.5734890000000  0.5319850000000 1.0
C      1  0.5457660000000  0.4319380000000  0.4387360000000 1.0
C      1  0.4614670000000  0.4240310000000  0.4336340000000 1.0
C      1  0.4279580000000  0.4307130000000  0.5217070000000 1.0
C      1  0.4934230000000  0.4306760000000  0.5736960000000 1.0
C      1  0.5683520000000  0.4263790000000  0.5321570000000 1.0
C      1  0.4059790000000  0.5017390000000  0.5526620000000 1.0
C      1  0.4145900000000  0.4955800000000  0.4463890000000 1.0
C      1  0.5271440000000  0.4988490000000  0.3967000000000 1.0
C      1  0.6017700000000  0.4931770000000  0.4912480000000 1.0
C      1  0.5408130000000  0.4973670000000  0.6070120000000 1.0
C      1  0.5965870000000  0.5107650000000  0.5666100000000 1.0
C      1  0.5792450000000  0.5041340000000  0.4254030000000 1.0
C      1  0.4594620000000  0.5122970000000  0.3959620000000 1.0
C      1  0.3941200000000  0.5076960000000  0.4953080000000 1.0
C      1  0.4585590000000  0.5088770000000  0.6037780000000 1.0
C      1  0.4686260000000  0.5894320000000  0.4622550000000 1.0
C      1  0.5251770000000  0.5897150000000  0.4598060000000 1.0
C      1  0.5426840000000  0.5836510000000  0.5169960000000 1.0
C      1  0.4963830000000  0.5824140000000  0.5412110000000 1.0
C      1  0.4483430000000  0.5917740000000  0.5118670000000 1.0
C      1  0.5232730000000  0.4141220000000  0.4569750000000 1.0
C      1  0.4712350000000  0.4137240000000  0.4633680000000 1.0
C      1  0.4574930000000  0.4158110000000  0.5135900000000 1.0
C      1  0.5026890000000  0.4162420000000  0.5452050000000 1.0
C      1  0.5499670000000  0.4134360000000  0.5100980000000 1.0
C      1  0.4292630000000  0.5132550000000  0.4289590000000 1.0
C      1  0.5462150000000  0.5172660000000  0.4070860000000 1.0
C      1  0.6033870000000  0.5170040000000  0.5059050000000 1.0
C      1  0.5224180000000  0.5174670000000  0.6102780000000 1.0
C      1  0.4108620000000  0.5233520000000  0.5402120000000 1.0
C      1  0.5644710000000  0.4841880000000  0.4201840000000 1.0
C      1  0.4518620000000  0.4892490000000  0.4022770000000 1.0
C      1  0.3951910000000  0.4834380000000  0.5075900000000 1.0
C      1  0.4711640000000  0.4850630000000  0.6095630000000 1.0
C      1  0.6002720000000  0.4872860000000  0.5578780000000 1.0
C      1  0.4332390000000  0.4408360000000  0.4375150000000 1.0
C      1  0.5409990000000  0.4466850000000  0.4132780000000 1.0
C      1  0.5926700000000  0.4437710000000  0.5194620000000 1.0
C      1  0.5067460000000  0.4530150000000  0.5894260000000 1.0
C      1  0.4183460000000  0.4579370000000  0.5400980000000 1.0
C      1  0.5612140000000  0.5457730000000  0.4380160000000 1.0
C      1  0.4528690000000  0.5520490000000  0.4287390000000 1.0
C      1  0.4147140000000  0.5560570000000  0.5205560000000 1.0
C      1  0.4850470000000  0.5581890000000  0.5895840000000 1.0
C      1  0.5751640000000  0.5432180000000  0.5381690000000 1.0
C      1  0.5054980000000  0.5357250000000  0.5478630000000 1.0
C      1  0.4619240000000  0.5407320000000  0.5035630000000 1.0
C      1  0.4802510000000  0.5397120000000  0.4627760000000 1.0
C      1  0.5286860000000  0.5405110000000  0.4659270000000 1.0
C      1  0.5392090000000  0.5371780000000  0.5153510000000 1.0
C      1  0.4937400000000  0.4649440000000  0.5512460000000 1.0
C      1  0.5547340000000  0.4556750000000  0.5235070000000 1.0
C      1  0.5231550000000  0.4486830000000  0.4578300000000 1.0
C      1  0.4725920000000  0.4513320000000  0.4503230000000 1.0
C      1  0.4548830000000  0.4600030000000  0.5252170000000 1.0
C      1  0.5103010000000  0.4870190000000  0.5428530000000 1.0
C      1  0.4644860000000  0.4790920000000  0.5006780000000 1.0
C      1  0.4893500000000  0.4780980000000  0.4528880000000 1.0
C      1  0.5256890000000  0.4806630000000  0.4818930000000 1.0
C      1  0.5371670000000  0.4806870000000  0.5262090000000 1.0
C      1  0.4975270000000  0.5121220000000  0.5336420000000 1.0
C      1  0.5327970000000  0.5083800000000  0.5091570000000 1.0
C      1  0.5232270000000  0.5102000000000  0.4635560000000 1.0
C      1  0.4828450000000  0.5076350000000  0.4684240000000 1.0
C      1  0.4736660000000  0.5098930000000  0.5117800000000 1.0
C      1  0.4834330000000  0.5871010000000  0.4330680000000 1.0
C      1  0.5578570000000  0.5897920000000  0.4656690000000 1.0
C      1  0.5494540000000  0.5855490000000  0.5507500000000 1.0
C      1  0.4702200000000  0.5810530000000  0.5606270000000 1.0
C      1  0.4271230000000  0.5952180000000  0.4886960000000 1.0
C      1  0.5107000000000  0.4166940000000  0.4263220000000 1.0
C      1  0.4394500000000  0.4107320000000  0.4716130000000 1.0
C      1  0.4458690000000  0.4150740000000  0.5447220000000 1.0
C      1  0.5303720000000  0.4215980000000  0.5623200000000 1.0
C      1  0.5679710000000  0.4158070000000  0.4840160000000 1.0
C      1  0.5048490000000  0.5630370000000  0.4654390000000 1.0
C      1  0.5341190000000  0.5614940000000  0.4926470000000 1.0
C      1  0.5144010000000  0.5572520000000  0.5271230000000 1.0
C      1  0.4729650000000  0.5700560000000  0.5097700000000 1.0
C      1  0.4583560000000  0.5591210000000  0.4750550000000 1.0
C      1  0.4938930000000  0.4379360000000  0.4714950000000 1.0
C      1  0.4658120000000  0.4450560000000  0.4986630000000 1.0
C      1  0.4816560000000  0.4411610000000  0.5350790000000 1.0
C      1  0.5259330000000  0.4344610000000  0.5062680000000 1.0
C      1  0.5428500000000  0.4566310000000  0.4916410000000 1.0
C      1  0.4380870000000  0.4715100000000  0.4513720000000 1.0
C      1  0.5227360000000  0.4745540000000  0.4200810000000 1.0
C      1  0.5870270000000  0.4742160000000  0.5100410000000 1.0
C      1  0.5304490000000  0.4713200000000  0.5888160000000 1.0
C      1  0.4329550000000  0.4826960000000  0.5583090000000 1.0
C      1  0.5740860000000  0.5194500000000  0.4553170000000 1.0
C      1  0.4728240000000  0.5304020000000  0.4176780000000 1.0
C      1  0.4211950000000  0.5283590000000  0.5019080000000 1.0
C      1  0.4759110000000  0.5266940000000  0.5805930000000 1.0
C      1  0.5652050000000  0.5236390000000  0.5642600000000 1.0
C      1  0.4751870000000  0.4981390000000  0.5634360000000 1.0
C      1  0.4379780000000  0.4999960000000  0.4969260000000 1.0
C      1  0.4834900000000  0.5059640000000  0.4342970000000 1.0
C      1  0.5519260000000  0.4965310000000  0.4671880000000 1.0
C      1  0.5463020000000  0.5029180000000  0.5475890000000 1.0
C      1  0.5237120000000  0.4968760000000  0.5701600000000 1.0
C      1  0.5627230000000  0.4954980000000  0.4994140000000 1.0
C      1  0.5142620000000  0.5036180000000  0.4350960000000 1.0
C      1  0.4508480000000  0.4979470000000  0.4685290000000 1.0
C      1  0.4557560000000  0.4976610000000  0.5379770000000 1.0
C      1  0.5454230000000  0.4713390000000  0.4452570000000 1.0
C      1  0.5773390000000  0.4726010000000  0.5424580000000 1.0
C      1  0.4789920000000  0.4700170000000  0.5814610000000 1.0
C      1  0.4265020000000  0.4708410000000  0.5097120000000 1.0
C      1  0.4608120000000  0.4720490000000  0.4260580000000 1.0
C      1  0.4497440000000  0.5276360000000  0.4519890000000 1.0
C      1  0.4424050000000  0.5283580000000  0.5285130000000 1.0
C      1  0.5099360000000  0.5262550000000  0.5802160000000 1.0
C      1  0.5712820000000  0.5277060000000  0.5091800000000 1.0
C      1  0.5300150000000  0.5336080000000  0.4321290000000 1.0
C      1  0.5027020000000  0.5413520000000  0.4134030000000 1.0
C      1  0.5769740000000  0.5414300000000  0.4803480000000 1.0
C      1  0.5396290000000  0.5423210000000  0.5761090000000 1.0
C      1  0.4495780000000  0.5363800000000  0.5607770000000 1.0
C      1  0.4237580000000  0.5400460000000  0.4700820000000 1.0
C      1  0.4916910000000  0.4609670000000  0.4169110000000 1.0
C      1  0.4288530000000  0.4561870000000  0.4804280000000 1.0
C      1  0.4493890000000  0.4583010000000  0.5744210000000 1.0
C      1  0.5562810000000  0.4663250000000  0.5676990000000 1.0
C      1  0.5773370000000  0.4676740000000  0.4564850000000 1.0
C      1  0.5639080000000  0.5661920000000  0.4791360000000 1.0
C      1  0.5368010000000  0.5712580000000  0.5705690000000 1.0
C      1  0.4482410000000  0.5663330000000  0.5542760000000 1.0
C      1  0.4280680000000  0.5717550000000  0.4683630000000 1.0
C      1  0.5077220000000  0.5667660000000  0.4315500000000 1.0
C      1  0.4289930000000  0.4290110000000  0.4888850000000 1.0
C      1  0.4631050000000  0.4328320000000  0.5623360000000 1.0
C      1  0.5536100000000  0.4357880000000  0.5581810000000 1.0
C      1  0.5612130000000  0.4420140000000  0.4673040000000 1.0
C      1  0.4895230000000  0.4322690000000  0.4195830000000 1.0
C      1  0.5054100000000  0.5162350000000  0.3908300000000 1.0
C      1  0.5915760000000  0.4920110000000  0.4652170000000 1.0
C      1  0.4400970000000  0.5090360000000  0.5786250000000 1.0
C      1  0.4065250000000  0.5117070000000  0.4686760000000 1.0
C      1  0.5612440000000  0.4961360000000  0.5838940000000 1.0
C      1  0.5012140000000  0.5663800000000  0.4990840000000 1.0
C      1  0.4972670000000  0.4398140000000  0.5048910000000 1.0
C      1  0.5023110000000  0.5012710000000  0.4955930000000 1.0
END
