TITL C-2622962-9663-851 0.000941742409929415 125000 -205.259964156859 0 0 41 (C1) n - 1
REM
REM in /nfs/bkarasulu/CARBON/AIRSS/Generating-Clusters/AIREBO/with-SteepDescent/Higher-Symm/SD-CG/HFTN-CG
REM
REM
REM
REM
REM
REM ./C.cell (b20cbc046b6831c77cfcea5457e17084)
REM
REM compiler GCC version 9.2.1 20190827 (Red Hat 9.2.1-1)
REM options -cpp -mtune=generic -march=x86-64 -g -O0 -fpre-include=/usr/include/finclude/math-vector-fortran.h
REM seed 895416168 44503341 1705231100 602504132 1058424758 -614519045 -1997406155 413453602 -358018752 1591301412 745368633 1550387453 -342892844 -832360925 -19391554 -1846127395 256756878 1275493385 -1848388815 1996375695 1679252876 -1924715933 -135286967 -1697384354 -666657202 -497670239 1760152449 1314341144 -484153276 -1016880755 -924540577 -2024546729 953281274
REM
CELL 1.54180   50.00000   50.00000   50.00000   90.00000   90.00000   90.00000
LATT -1
SFAC C  
C      1  0.5574610000000  0.4686300000000  0.4994660000000 1.0
C      1  0.4815540000000  0.5478340000000  0.4712600000000 1.0
C      1  0.4764520000000  0.5008090000000  0.5584330000000 1.0
C      1  0.5460160000000  0.5295300000000  0.5105680000000 1.0
C      1  0.4423740000000  0.5334300000000  0.5001470000000 1.0
C      1  0.4529300000000  0.4745030000000  0.5089570000000 1.0
C      1  0.4985410000000  0.4344840000000  0.5284230000000 1.0
C      1  0.5174710000000  0.4497650000000  0.4695410000000 1.0
C      1  0.5016060000000  0.5675600000000  0.5292560000000 1.0
C      1  0.4497450000000  0.5014250000000  0.4438360000000 1.0
C      1  0.5249380000000  0.5009640000000  0.5578740000000 1.0
C      1  0.5417300000000  0.5010240000000  0.4603490000000 1.0
C      1  0.5609440000000  0.4856860000000  0.4725370000000 1.0
C      1  0.4919260000000  0.4793080000000  0.5516870000000 1.0
C      1  0.4771930000000  0.5521000000000  0.4958260000000 1.0
C      1  0.5606330000000  0.5080450000000  0.5297730000000 1.0
C      1  0.4395710000000  0.4934410000000  0.5320700000000 1.0
C      1  0.4433710000000  0.5155890000000  0.4733410000000 1.0
C      1  0.5041780000000  0.5375110000000  0.4239440000000 1.0
C      1  0.4973570000000  0.4625110000000  0.4267070000000 1.0
C      1  0.5093100000000  0.5227010000000  0.5523590000000 1.0
C      1  0.4678740000000  0.4535210000000  0.4878440000000 1.0
C      1  0.5309180000000  0.5458240000000  0.4861180000000 1.0
C      1  0.5237340000000  0.4479330000000  0.4961490000000 1.0
C      1  0.5027320000000  0.4648650000000  0.5256550000000 1.0
C      1  0.5119930000000  0.4967980000000  0.4595680000000 1.0
C      1  0.4949770000000  0.5279080000000  0.4494590000000 1.0
C      1  0.4564540000000  0.5123100000000  0.5421720000000 1.0
C      1  0.5333310000000  0.4705610000000  0.5196610000000 1.0
C      1  0.4657610000000  0.5318490000000  0.5206830000000 1.0
C      1  0.5441900000000  0.4894180000000  0.5406810000000 1.0
C      1  0.4744320000000  0.5089820000000  0.4652500000000 1.0
C      1  0.4857020000000  0.4770370000000  0.5034690000000 1.0
C      1  0.5130580000000  0.5240450000000  0.5041950000000 1.0
C      1  0.4969990000000  0.5372210000000  0.5270380000000 1.0
C      1  0.5067710000000  0.4685790000000  0.4511760000000 1.0
C      1  0.4208070000000  0.4715950000000  0.5201410000000 1.0
C      1  0.4178780000000  0.5372110000000  0.4811630000000 1.0
C      1  0.5836340000000  0.4642420000000  0.4810780000000 1.0
C      1  0.5777800000000  0.5330660000000  0.5227010000000 1.0
C      1  0.4969470000000  0.5015560000000  0.4882750000000 1.0
END
