TITL C-2622967-6265-809 -0.00161443774079784 125000 -361.95742224501 0 0 66 (C1) n - 1
REM
REM in /nfs/bkarasulu/CARBON/AIRSS/Generating-Clusters/AIREBO/with-SteepDescent/Higher-Symm/SD-CG/HFTN-CG
REM
REM
REM
REM
REM
REM ./C.cell (b20cbc046b6831c77cfcea5457e17084)
REM
REM compiler GCC version 9.2.1 20190827 (Red Hat 9.2.1-1)
REM options -cpp -mtune=generic -march=x86-64 -g -O0 -fpre-include=/usr/include/finclude/math-vector-fortran.h
REM seed 1207074525 1852406247 -1019081023 278128206 390560025 -1101729346 -323140245 -392296232 797027364 -1512015101 1976784470 -909868857 415580899 430407630 2127412131 1074964617 1756556392 -726799407 -944285797 1506350854 840429783 -774659584 306423098 813471385 -458066247 783588685 -869371214 1319955664 -1242173403 388149346 483505302 -475251562 223674490
REM
CELL 1.54180   50.00000   50.00000   50.00000   90.00000   90.00000   90.00000
LATT -1
SFAC C  
C      1  0.5282150000000  0.5112080000000  0.4890310000000 1.0
C      1  0.5270150000000  0.4790710000000  0.5000700000000 1.0
C      1  0.5001830000000  0.4630660000000  0.4953550000000 1.0
C      1  0.4713410000000  0.4806630000000  0.4914990000000 1.0
C      1  0.4593570000000  0.5110000000000  0.5010990000000 1.0
C      1  0.4801460000000  0.5279680000000  0.4865020000000 1.0
C      1  0.5074180000000  0.5343550000000  0.5031780000000 1.0
C      1  0.5403740000000  0.5039560000000  0.5535580000000 1.0
C      1  0.5305370000000  0.4713760000000  0.5582300000000 1.0
C      1  0.4975830000000  0.4634970000000  0.5523560000000 1.0
C      1  0.4671430000000  0.4778250000000  0.5474000000000 1.0
C      1  0.4620750000000  0.5046230000000  0.5548860000000 1.0
C      1  0.4823120000000  0.5279590000000  0.5537140000000 1.0
C      1  0.5149400000000  0.5254200000000  0.5537160000000 1.0
C      1  0.5561080000000  0.4918670000000  0.4493660000000 1.0
C      1  0.5332060000000  0.4497320000000  0.4531260000000 1.0
C      1  0.4812790000000  0.4549180000000  0.4502520000000 1.0
C      1  0.4349380000000  0.4617020000000  0.4412060000000 1.0
C      1  0.4562500000000  0.5219940000000  0.4550950000000 1.0
C      1  0.5459140000000  0.5476670000000  0.4256990000000 1.0
C      1  0.5361370000000  0.5383550000000  0.4479460000000 1.0
C      1  0.4842190000000  0.5584030000000  0.5118960000000 1.0
C      1  0.5417100000000  0.5548520000000  0.5031410000000 1.0
C      1  0.5767570000000  0.5057690000000  0.5028960000000 1.0
C      1  0.5480050000000  0.4522740000000  0.5045850000000 1.0
C      1  0.4846580000000  0.4265890000000  0.5048780000000 1.0
C      1  0.4287650000000  0.4605430000000  0.5065360000000 1.0
C      1  0.4303150000000  0.5289430000000  0.5047550000000 1.0
C      1  0.5329740000000  0.4252110000000  0.5016640000000 1.0
C      1  0.4592310000000  0.4241650000000  0.4925520000000 1.0
C      1  0.4121180000000  0.4818150000000  0.4981480000000 1.0
C      1  0.4360620000000  0.5577760000000  0.4936490000000 1.0
C      1  0.5033200000000  0.5807120000000  0.5003520000000 1.0
C      1  0.5679060000000  0.5513580000000  0.4936320000000 1.0
C      1  0.5863130000000  0.4805880000000  0.4939290000000 1.0
C      1  0.5555960000000  0.5051940000000  0.5242000000000 1.0
C      1  0.5441050000000  0.4735400000000  0.5289380000000 1.0
C      1  0.4856030000000  0.4515910000000  0.5238510000000 1.0
C      1  0.4562540000000  0.4677900000000  0.5192700000000 1.0
C      1  0.4502540000000  0.5232980000000  0.5305520000000 1.0
C      1  0.4702650000000  0.5493770000000  0.5364520000000 1.0
C      1  0.5327290000000  0.5304000000000  0.5249970000000 1.0
C      1  0.4232390000000  0.5046690000000  0.4855270000000 1.0
C      1  0.4628690000000  0.5637600000000  0.4879880000000 1.0
C      1  0.5224940000000  0.5672480000000  0.4862910000000 1.0
C      1  0.5720470000000  0.5254900000000  0.4836820000000 1.0
C      1  0.5681240000000  0.4613770000000  0.4837790000000 1.0
C      1  0.5082010000000  0.4244250000000  0.4897750000000 1.0
C      1  0.4425990000000  0.4458840000000  0.4853320000000 1.0
C      1  0.4426340000000  0.5008120000000  0.4654590000000 1.0
C      1  0.4765150000000  0.5484070000000  0.4620110000000 1.0
C      1  0.5105410000000  0.5500480000000  0.4625220000000 1.0
C      1  0.5487010000000  0.5171160000000  0.4656040000000 1.0
C      1  0.5556790000000  0.4655740000000  0.4589350000000 1.0
C      1  0.5058590000000  0.4462710000000  0.4670930000000 1.0
C      1  0.4546750000000  0.4690280000000  0.4642260000000 1.0
C      1  0.5016240000000  0.5187730000000  0.4525900000000 1.0
C      1  0.5007830000000  0.5046200000000  0.6259620000000 1.0
C      1  0.4902440000000  0.4913980000000  0.3793530000000 1.0
C      1  0.4980630000000  0.4992430000000  0.5146620000000 1.0
C      1  0.4971700000000  0.5001370000000  0.4806790000000 1.0
C      1  0.5108750000000  0.4922350000000  0.5765340000000 1.0
C      1  0.5027330000000  0.4953220000000  0.5436590000000 1.0
C      1  0.4941460000000  0.5017380000000  0.4031150000000 1.0
C      1  0.4991740000000  0.5099690000000  0.4279380000000 1.0
C      1  0.5050680000000  0.4973850000000  0.6011390000000 1.0
END
