TITL C-2622965-4321-571 -0.00280740429917418 125000 -453.954708436221 0 0 84 (C1) n - 1
REM
REM in /nfs/bkarasulu/CARBON/AIRSS/Generating-Clusters/AIREBO/with-SteepDescent/Higher-Symm/SD-CG/HFTN-CG
REM
REM
REM
REM
REM
REM ./C.cell (b20cbc046b6831c77cfcea5457e17084)
REM
REM compiler GCC version 9.2.1 20190827 (Red Hat 9.2.1-1)
REM options -cpp -mtune=generic -march=x86-64 -g -O0 -fpre-include=/usr/include/finclude/math-vector-fortran.h
REM seed 1835565241 -1226002658 219700420 -1098574961 -966823226 1836549288 -1761576066 -732934553 1934403072 1044652446 1515325803 1173561065 -1188051366 1006260227 633311409 -789103081 1563469477 -1990456634 17447286 -1096491997 -1609607595 -749451457 2030287107 1653432897 -744733378 -1612701056 1147123999 -747770441 -1914961474 1928798734 192793542 303170551 1606701619
REM
CELL 1.54180   50.00000   50.00000   50.00000   90.00000   90.00000   90.00000
LATT -1
SFAC C  
C      1  0.4597500000000  0.5196470000000  0.5772570000000 1.0
C      1  0.5118420000000  0.4903400000000  0.5754440000000 1.0
C      1  0.4615310000000  0.4692770000000  0.4725630000000 1.0
C      1  0.5218830000000  0.5529290000000  0.5399410000000 1.0
C      1  0.4851230000000  0.4539020000000  0.5009010000000 1.0
C      1  0.5166000000000  0.5090580000000  0.4206270000000 1.0
C      1  0.5589020000000  0.4879700000000  0.4943780000000 1.0
C      1  0.4242550000000  0.5259050000000  0.5128560000000 1.0
C      1  0.5786010000000  0.5020690000000  0.5446570000000 1.0
C      1  0.5548900000000  0.5074040000000  0.5208780000000 1.0
C      1  0.4870270000000  0.4570080000000  0.4611970000000 1.0
C      1  0.5306270000000  0.4690400000000  0.4939900000000 1.0
C      1  0.4625920000000  0.5713060000000  0.4895650000000 1.0
C      1  0.4611480000000  0.5081630000000  0.4361110000000 1.0
C      1  0.5040300000000  0.5719020000000  0.5508440000000 1.0
C      1  0.4260060000000  0.4732820000000  0.5132800000000 1.0
C      1  0.4927890000000  0.5205560000000  0.4933410000000 1.0
C      1  0.5346960000000  0.3917130000000  0.4615720000000 1.0
C      1  0.5295500000000  0.5232070000000  0.4778450000000 1.0
C      1  0.5404760000000  0.4751850000000  0.5651170000000 1.0
C      1  0.5357530000000  0.5533320000000  0.4373570000000 1.0
C      1  0.4611930000000  0.5246430000000  0.4983530000000 1.0
C      1  0.4852380000000  0.5435020000000  0.5273850000000 1.0
C      1  0.4896910000000  0.5474700000000  0.4577940000000 1.0
C      1  0.5663130000000  0.4645740000000  0.5179240000000 1.0
C      1  0.5016570000000  0.4339850000000  0.5192280000000 1.0
C      1  0.5362430000000  0.5335580000000  0.5532740000000 1.0
C      1  0.4766370000000  0.5711980000000  0.5702240000000 1.0
C      1  0.4426450000000  0.4980180000000  0.5065190000000 1.0
C      1  0.5047440000000  0.4793950000000  0.4498770000000 1.0
C      1  0.4707250000000  0.4992180000000  0.4780740000000 1.0
C      1  0.4615510000000  0.4383820000000  0.5811420000000 1.0
C      1  0.5171470000000  0.5659780000000  0.4847840000000 1.0
C      1  0.4690410000000  0.4767080000000  0.5479620000000 1.0
C      1  0.4438240000000  0.4955500000000  0.5592790000000 1.0
C      1  0.4675890000000  0.5275640000000  0.4593260000000 1.0
C      1  0.5825620000000  0.5691830000000  0.5216970000000 1.0
C      1  0.4749030000000  0.5801150000000  0.5388330000000 1.0
C      1  0.4272780000000  0.4712730000000  0.5447880000000 1.0
C      1  0.5134310000000  0.5429390000000  0.5085460000000 1.0
C      1  0.5636220000000  0.4562390000000  0.4706150000000 1.0
C      1  0.4690090000000  0.4454140000000  0.5551080000000 1.0
C      1  0.5101990000000  0.4984870000000  0.4748620000000 1.0
C      1  0.4579880000000  0.5713840000000  0.5181270000000 1.0
C      1  0.5683130000000  0.5532300000000  0.5055790000000 1.0
C      1  0.4931340000000  0.4301650000000  0.5443960000000 1.0
C      1  0.5416140000000  0.5635200000000  0.4668740000000 1.0
C      1  0.5606100000000  0.5079300000000  0.4425450000000 1.0
C      1  0.4825140000000  0.4971910000000  0.5692360000000 1.0
C      1  0.5614350000000  0.4438290000000  0.4965920000000 1.0
C      1  0.4387930000000  0.4698180000000  0.4527680000000 1.0
C      1  0.5442400000000  0.5313530000000  0.5075640000000 1.0
C      1  0.4778730000000  0.5149510000000  0.5404060000000 1.0
C      1  0.4391810000000  0.5522610000000  0.5259290000000 1.0
C      1  0.4472830000000  0.5464540000000  0.4782810000000 1.0
C      1  0.5291170000000  0.4354360000000  0.4991230000000 1.0
C      1  0.5028920000000  0.4748160000000  0.4055170000000 1.0
C      1  0.5260380000000  0.4126970000000  0.4727490000000 1.0
C      1  0.5351460000000  0.4690430000000  0.4611240000000 1.0
C      1  0.5011000000000  0.4828560000000  0.5036560000000 1.0
C      1  0.5146070000000  0.5372610000000  0.4544100000000 1.0
C      1  0.5344820000000  0.5019110000000  0.5449500000000 1.0
C      1  0.4882570000000  0.5702850000000  0.4761920000000 1.0
C      1  0.5380810000000  0.4109760000000  0.5188760000000 1.0
C      1  0.4459440000000  0.4474770000000  0.5338920000000 1.0
C      1  0.4214620000000  0.5276200000000  0.4797350000000 1.0
C      1  0.4866210000000  0.4947240000000  0.4264880000000 1.0
C      1  0.5281100000000  0.4725540000000  0.4091240000000 1.0
C      1  0.5836810000000  0.4775290000000  0.4735340000000 1.0
C      1  0.4711300000000  0.4907770000000  0.5179240000000 1.0
C      1  0.5647690000000  0.4758960000000  0.5433200000000 1.0
C      1  0.5023630000000  0.4357420000000  0.4781250000000 1.0
C      1  0.4445700000000  0.5218480000000  0.5401430000000 1.0
C      1  0.4359150000000  0.4961170000000  0.4428130000000 1.0
C      1  0.5407360000000  0.5243520000000  0.4272150000000 1.0
C      1  0.5634880000000  0.5476530000000  0.4769770000000 1.0
C      1  0.4172620000000  0.5130790000000  0.4571620000000 1.0
C      1  0.4528900000000  0.4560240000000  0.5015900000000 1.0
C      1  0.5448530000000  0.4533370000000  0.5822480000000 1.0
C      1  0.5409790000000  0.4849600000000  0.4341090000000 1.0
C      1  0.5599760000000  0.5141100000000  0.4726150000000 1.0
C      1  0.5072630000000  0.4997840000000  0.5324900000000 1.0
C      1  0.4243490000000  0.4477550000000  0.4459210000000 1.0
C      1  0.4676280000000  0.5447070000000  0.5743680000000 1.0
END
