TITL C-2622966-9038-135 -0.000403545009903953 125000 -395.53088707245 0 0 74 (C1) n - 1
REM
REM in /nfs/bkarasulu/CARBON/AIRSS/Generating-Clusters/AIREBO/with-SteepDescent/Higher-Symm/SD-CG/HFTN-CG
REM
REM
REM
REM
REM
REM ./C.cell (b20cbc046b6831c77cfcea5457e17084)
REM
REM compiler GCC version 9.2.1 20190827 (Red Hat 9.2.1-1)
REM options -cpp -mtune=generic -march=x86-64 -g -O0 -fpre-include=/usr/include/finclude/math-vector-fortran.h
REM seed 2050482310 -1692587343 -179517950 534602123 -2099468637 -1061647159 -1769877066 1086664561 -1581991221 -303652458 -762232889 1364146426 179976033 -1848769722 80810349 1246372592 943069237 -1603562299 -1571912800 -1249944282 1647176603 -1726758066 156909873 -687277841 -119125267 452562868 -55913362 1042921281 -1531212781 140479157 -1406704805 1369043443 -1983374362
REM
CELL 1.54180   50.00000   50.00000   50.00000   90.00000   90.00000   90.00000
LATT -1
SFAC C  
C      1  0.4979950000000  0.4436170000000  0.4641770000000 1.0
C      1  0.5011570000000  0.4431200000000  0.5344770000000 1.0
C      1  0.4208780000000  0.5093400000000  0.4383910000000 1.0
C      1  0.5652700000000  0.5122690000000  0.5590720000000 1.0
C      1  0.4855650000000  0.5095280000000  0.5288700000000 1.0
C      1  0.5189130000000  0.5100180000000  0.4722070000000 1.0
C      1  0.5079300000000  0.4855020000000  0.4885970000000 1.0
C      1  0.4932690000000  0.4855100000000  0.5101760000000 1.0
C      1  0.5269680000000  0.4983690000000  0.5919490000000 1.0
C      1  0.4822590000000  0.4785450000000  0.3925580000000 1.0
C      1  0.5394950000000  0.5048340000000  0.5670930000000 1.0
C      1  0.4442310000000  0.5183170000000  0.4273290000000 1.0
C      1  0.5646460000000  0.4883220000000  0.4413760000000 1.0
C      1  0.4370380000000  0.4908110000000  0.5579410000000 1.0
C      1  0.4656990000000  0.5068270000000  0.5499740000000 1.0
C      1  0.5372580000000  0.5063510000000  0.4503680000000 1.0
C      1  0.4754140000000  0.5270460000000  0.5041510000000 1.0
C      1  0.5299880000000  0.5266290000000  0.4967020000000 1.0
C      1  0.5559640000000  0.5089110000000  0.4891400000000 1.0
C      1  0.4486620000000  0.5107020000000  0.5136750000000 1.0
C      1  0.5488100000000  0.5092580000000  0.4197360000000 1.0
C      1  0.4537310000000  0.5092650000000  0.5811480000000 1.0
C      1  0.4703180000000  0.5126640000000  0.4313290000000 1.0
C      1  0.5037100000000  0.5255800000000  0.5647040000000 1.0
C      1  0.5197650000000  0.4570680000000  0.4815520000000 1.0
C      1  0.4799960000000  0.4576060000000  0.5172210000000 1.0
C      1  0.5259180000000  0.4606660000000  0.5417340000000 1.0
C      1  0.4733540000000  0.4615210000000  0.4574970000000 1.0
C      1  0.5148690000000  0.5010830000000  0.5439330000000 1.0
C      1  0.4888730000000  0.5029420000000  0.4579360000000 1.0
C      1  0.5731610000000  0.5216760000000  0.5123310000000 1.0
C      1  0.4114510000000  0.5226150000000  0.4832360000000 1.0
C      1  0.4541400000000  0.4781350000000  0.5090480000000 1.0
C      1  0.5466270000000  0.4761340000000  0.4900330000000 1.0
C      1  0.4719390000000  0.5578680000000  0.4654860000000 1.0
C      1  0.5297390000000  0.5586360000000  0.5337570000000 1.0
C      1  0.5257310000000  0.4967250000000  0.4034400000000 1.0
C      1  0.4766200000000  0.4958370000000  0.5976770000000 1.0
C      1  0.5719330000000  0.5202970000000  0.4640860000000 1.0
C      1  0.4323150000000  0.5249070000000  0.5377530000000 1.0
C      1  0.4768470000000  0.5296710000000  0.4731730000000 1.0
C      1  0.5243630000000  0.5293500000000  0.5283650000000 1.0
C      1  0.4031280000000  0.5448770000000  0.5035470000000 1.0
C      1  0.5990090000000  0.5624570000000  0.5093230000000 1.0
C      1  0.4181460000000  0.5027670000000  0.4657000000000 1.0
C      1  0.5755270000000  0.5039940000000  0.5339260000000 1.0
C      1  0.5509020000000  0.5639730000000  0.5106320000000 1.0
C      1  0.4557860000000  0.5599820000000  0.4930110000000 1.0
C      1  0.4340060000000  0.4820150000000  0.4747040000000 1.0
C      1  0.5653870000000  0.4783490000000  0.5272280000000 1.0
C      1  0.5495220000000  0.4511910000000  0.5188430000000 1.0
C      1  0.4491950000000  0.4536980000000  0.4801070000000 1.0
C      1  0.5811830000000  0.5491360000000  0.4261950000000 1.0
C      1  0.4232160000000  0.5507140000000  0.5777930000000 1.0
C      1  0.4587420000000  0.4389920000000  0.5030270000000 1.0
C      1  0.5398380000000  0.4372490000000  0.4957070000000 1.0
C      1  0.4502210000000  0.4158470000000  0.5123180000000 1.0
C      1  0.5474430000000  0.4138780000000  0.4861510000000 1.0
C      1  0.5009310000000  0.4874080000000  0.5884860000000 1.0
C      1  0.5023850000000  0.4844820000000  0.4102240000000 1.0
C      1  0.5329960000000  0.4854950000000  0.5197540000000 1.0
C      1  0.4673880000000  0.4871440000000  0.4790350000000 1.0
C      1  0.4891150000000  0.5577180000000  0.4985870000000 1.0
C      1  0.5181050000000  0.5581930000000  0.5018080000000 1.0
C      1  0.5687630000000  0.5279220000000  0.4383230000000 1.0
C      1  0.4352250000000  0.5302710000000  0.5640500000000 1.0
C      1  0.4727270000000  0.4602870000000  0.5562960000000 1.0
C      1  0.5269920000000  0.4602160000000  0.4425450000000 1.0
C      1  0.5006540000000  0.4742810000000  0.5599740000000 1.0
C      1  0.4988070000000  0.4754880000000  0.4400680000000 1.0
C      1  0.5750920000000  0.5500910000000  0.5105340000000 1.0
C      1  0.4364000000000  0.5386060000000  0.4997360000000 1.0
C      1  0.4515580000000  0.4704260000000  0.5420720000000 1.0
C      1  0.5487980000000  0.4687800000000  0.4568980000000 1.0
END
