TITL C-2622956-4641-201 0.0017100497628147 125000 -841.07030134506 0 0 158 (C1) n - 1
REM
REM in /nfs/bkarasulu/CARBON/AIRSS/Generating-Clusters/AIREBO/with-SteepDescent/Higher-Symm/SD-CG/HFTN-CG
REM
REM
REM
REM
REM
REM ./C.cell (b20cbc046b6831c77cfcea5457e17084)
REM
REM compiler GCC version 9.2.1 20190827 (Red Hat 9.2.1-1)
REM options -cpp -mtune=generic -march=x86-64 -g -O0 -fpre-include=/usr/include/finclude/math-vector-fortran.h
REM seed -2147015055 -795135893 1696712848 -1022279205 -112988718 -1580122020 543403444 1787545529 -1360672660 -1842965671 -1155217428 -304982660 763286662 -892791000 36722079 -7336821 -1362914991 -86633773 -389333484 -49959822 1745860846 -2131652610 -1530382342 -346086054 -1305573398 998840997 371000764 1989029189 2020961370 -1727757141 -1060162784 1348566501 1804353298
REM
CELL 1.54180   50.00000   50.00000   50.00000   90.00000   90.00000   90.00000
LATT -1
SFAC C  
C      1  0.5972280000000  0.5292610000000  0.5572980000000 1.0
C      1  0.4496070000000  0.5838440000000  0.5289790000000 1.0
C      1  0.4714500000000  0.4008570000000  0.5345710000000 1.0
C      1  0.5989270000000  0.5058820000000  0.4636280000000 1.0
C      1  0.4485270000000  0.5776320000000  0.4685360000000 1.0
C      1  0.4500540000000  0.4135560000000  0.4457930000000 1.0
C      1  0.5983450000000  0.5044100000000  0.5556480000000 1.0
C      1  0.4441580000000  0.4002220000000  0.5318700000000 1.0
C      1  0.4763120000000  0.5966210000000  0.5405640000000 1.0
C      1  0.6009580000000  0.4818580000000  0.4549410000000 1.0
C      1  0.4305510000000  0.4305490000000  0.4630060000000 1.0
C      1  0.4777410000000  0.5759860000000  0.4617700000000 1.0
C      1  0.5148260000000  0.5563660000000  0.5225510000000 1.0
C      1  0.4322270000000  0.4935950000000  0.5209280000000 1.0
C      1  0.5498640000000  0.4588380000000  0.5208950000000 1.0
C      1  0.5238330000000  0.5625080000000  0.4776220000000 1.0
C      1  0.4446090000000  0.4677990000000  0.4853560000000 1.0
C      1  0.5351670000000  0.4511730000000  0.4784990000000 1.0
C      1  0.5277520000000  0.4350020000000  0.5274320000000 1.0
C      1  0.4382930000000  0.5269170000000  0.5240580000000 1.0
C      1  0.5426810000000  0.5376040000000  0.5196920000000 1.0
C      1  0.5093930000000  0.4352750000000  0.4886860000000 1.0
C      1  0.4405400000000  0.5253680000000  0.4734160000000 1.0
C      1  0.5491460000000  0.5429480000000  0.4807870000000 1.0
C      1  0.4490900000000  0.4465170000000  0.5484450000000 1.0
C      1  0.5747860000000  0.4808040000000  0.5490190000000 1.0
C      1  0.4759130000000  0.5655250000000  0.5527760000000 1.0
C      1  0.4648810000000  0.4567960000000  0.4460520000000 1.0
C      1  0.5613250000000  0.4848770000000  0.4511470000000 1.0
C      1  0.4631090000000  0.5554240000000  0.4389010000000 1.0
C      1  0.4566990000000  0.5448670000000  0.5697450000000 1.0
C      1  0.5581710000000  0.5099480000000  0.5434740000000 1.0
C      1  0.4825410000000  0.4397890000000  0.5497800000000 1.0
C      1  0.4317170000000  0.5423270000000  0.4385610000000 1.0
C      1  0.5609160000000  0.5190120000000  0.4471370000000 1.0
C      1  0.4805400000000  0.4275910000000  0.4501820000000 1.0
C      1  0.4761730000000  0.5098640000000  0.4432550000000 1.0
C      1  0.5050860000000  0.4684330000000  0.4394810000000 1.0
C      1  0.5277680000000  0.5151990000000  0.4405840000000 1.0
C      1  0.4787600000000  0.5257790000000  0.5556440000000 1.0
C      1  0.4955160000000  0.4708640000000  0.5460410000000 1.0
C      1  0.5253820000000  0.5077470000000  0.5523070000000 1.0
C      1  0.4814580000000  0.4795510000000  0.4576050000000 1.0
C      1  0.4899400000000  0.5394570000000  0.4513530000000 1.0
C      1  0.5273940000000  0.4855560000000  0.4490410000000 1.0
C      1  0.4751740000000  0.4925100000000  0.5495200000000 1.0
C      1  0.5083240000000  0.5313090000000  0.5639990000000 1.0
C      1  0.5203770000000  0.4795500000000  0.5617280000000 1.0
C      1  0.4174820000000  0.4803540000000  0.4863320000000 1.0
C      1  0.5631960000000  0.4336800000000  0.4844380000000 1.0
C      1  0.5309920000000  0.5942800000000  0.4874030000000 1.0
C      1  0.4079160000000  0.4706670000000  0.5146320000000 1.0
C      1  0.5659240000000  0.4301300000000  0.5166570000000 1.0
C      1  0.5342110000000  0.5839090000000  0.5178730000000 1.0
C      1  0.4135840000000  0.5116250000000  0.4828420000000 1.0
C      1  0.5744290000000  0.5649090000000  0.4867650000000 1.0
C      1  0.5298600000000  0.4094730000000  0.4819440000000 1.0
C      1  0.4077490000000  0.5227050000000  0.5093280000000 1.0
C      1  0.5609120000000  0.5661420000000  0.5179390000000 1.0
C      1  0.5317250000000  0.4068250000000  0.5138780000000 1.0
C      1  0.5617020000000  0.4151920000000  0.5455030000000 1.0
C      1  0.5424770000000  0.5929310000000  0.5493630000000 1.0
C      1  0.4000570000000  0.4841800000000  0.5424870000000 1.0
C      1  0.5742650000000  0.4195340000000  0.4569410000000 1.0
C      1  0.5419950000000  0.5916600000000  0.4575000000000 1.0
C      1  0.3938210000000  0.4842960000000  0.4622070000000 1.0
C      1  0.5674760000000  0.5866420000000  0.5580460000000 1.0
C      1  0.5366900000000  0.3978980000000  0.5460330000000 1.0
C      1  0.3931010000000  0.5103770000000  0.5370830000000 1.0
C      1  0.5639670000000  0.5735040000000  0.4588860000000 1.0
C      1  0.5447740000000  0.4110820000000  0.4540610000000 1.0
C      1  0.3908190000000  0.5142100000000  0.4578190000000 1.0
C      1  0.5434560000000  0.4803010000000  0.3999190000000 1.0
C      1  0.4975710000000  0.5430780000000  0.3984450000000 1.0
C      1  0.4643390000000  0.4817790000000  0.4079070000000 1.0
C      1  0.5274960000000  0.4753320000000  0.5944300000000 1.0
C      1  0.4974160000000  0.5398020000000  0.5948190000000 1.0
C      1  0.4691580000000  0.4965860000000  0.5827390000000 1.0
C      1  0.5227610000000  0.5247110000000  0.4083240000000 1.0
C      1  0.4936160000000  0.4709960000000  0.4091420000000 1.0
C      1  0.4624060000000  0.5077200000000  0.4172430000000 1.0
C      1  0.5378210000000  0.5076660000000  0.5923490000000 1.0
C      1  0.4936310000000  0.4755240000000  0.5910140000000 1.0
C      1  0.4740200000000  0.5185570000000  0.6064170000000 1.0
C      1  0.5519000000000  0.5506610000000  0.5654910000000 1.0
C      1  0.4349470000000  0.5274620000000  0.5574430000000 1.0
C      1  0.5141270000000  0.4290930000000  0.5564890000000 1.0
C      1  0.5348470000000  0.5513350000000  0.4257260000000 1.0
C      1  0.4286290000000  0.5092610000000  0.4459100000000 1.0
C      1  0.5239200000000  0.4436290000000  0.4409490000000 1.0
C      1  0.5393060000000  0.4513060000000  0.5618650000000 1.0
C      1  0.4394410000000  0.4984130000000  0.5662970000000 1.0
C      1  0.5225570000000  0.5588120000000  0.5555700000000 1.0
C      1  0.5528260000000  0.4519590000000  0.4507000000000 1.0
C      1  0.4251930000000  0.4808970000000  0.4379880000000 1.0
C      1  0.5137070000000  0.5592510000000  0.4466590000000 1.0
C      1  0.5115680000000  0.4139960000000  0.4471850000000 1.0
C      1  0.5633970000000  0.5524550000000  0.4414980000000 1.0
C      1  0.4048200000000  0.5410140000000  0.4572420000000 1.0
C      1  0.5031350000000  0.4009510000000  0.5408820000000 1.0
C      1  0.5807010000000  0.5574030000000  0.5515510000000 1.0
C      1  0.4064840000000  0.5375600000000  0.5458400000000 1.0
C      1  0.5074220000000  0.5914340000000  0.4556710000000 1.0
C      1  0.5857730000000  0.4542380000000  0.4588080000000 1.0
C      1  0.4095570000000  0.4562990000000  0.4555090000000 1.0
C      1  0.5086850000000  0.5893930000000  0.5480940000000 1.0
C      1  0.5718200000000  0.4470480000000  0.5519750000000 1.0
C      1  0.4206810000000  0.4658110000000  0.5521280000000 1.0
C      1  0.4433250000000  0.4675280000000  0.5745560000000 1.0
C      1  0.5569180000000  0.4759430000000  0.5775400000000 1.0
C      1  0.4906140000000  0.5638420000000  0.5790600000000 1.0
C      1  0.4478960000000  0.4669760000000  0.4260650000000 1.0
C      1  0.5646880000000  0.4811980000000  0.4175100000000 1.0
C      1  0.4809290000000  0.5566240000000  0.4112770000000 1.0
C      1  0.4577330000000  0.5428400000000  0.5983060000000 1.0
C      1  0.5543910000000  0.5225000000000  0.5748840000000 1.0
C      1  0.4828280000000  0.4500200000000  0.5820690000000 1.0
C      1  0.4445990000000  0.5272700000000  0.4125270000000 1.0
C      1  0.5569260000000  0.5257330000000  0.4140380000000 1.0
C      1  0.4881760000000  0.4388710000000  0.4190070000000 1.0
C      1  0.4994670000000  0.5282040000000  0.5110950000000 1.0
C      1  0.4624430000000  0.4931790000000  0.5195300000000 1.0
C      1  0.5307700000000  0.4847260000000  0.5107130000000 1.0
C      1  0.4984320000000  0.5254720000000  0.4811780000000 1.0
C      1  0.4712190000000  0.4856490000000  0.4894520000000 1.0
C      1  0.5329800000000  0.4850200000000  0.4808960000000 1.0
C      1  0.5104230000000  0.4627400000000  0.5203910000000 1.0
C      1  0.4729420000000  0.5232170000000  0.5243670000000 1.0
C      1  0.5246160000000  0.5110420000000  0.5219180000000 1.0
C      1  0.4919610000000  0.4623010000000  0.4959570000000 1.0
C      1  0.4686450000000  0.5147930000000  0.4744450000000 1.0
C      1  0.5276690000000  0.5177910000000  0.4724640000000 1.0
C      1  0.5704670000000  0.5215700000000  0.5133440000000 1.0
C      1  0.4415040000000  0.5599480000000  0.5166230000000 1.0
C      1  0.4828860000000  0.4281050000000  0.5177560000000 1.0
C      1  0.5709760000000  0.5168970000000  0.4795860000000 1.0
C      1  0.4351450000000  0.5550360000000  0.4849400000000 1.0
C      1  0.4772550000000  0.4274890000000  0.4842010000000 1.0
C      1  0.5703830000000  0.4819470000000  0.5153160000000 1.0
C      1  0.4354180000000  0.4288760000000  0.5229900000000 1.0
C      1  0.4863490000000  0.5709440000000  0.5206640000000 1.0
C      1  0.5726950000000  0.4831250000000  0.4832170000000 1.0
C      1  0.4467950000000  0.4373620000000  0.4920720000000 1.0
C      1  0.4955190000000  0.5764900000000  0.4907480000000 1.0
C      1  0.5006870000000  0.6095200000000  0.4850710000000 1.0
C      1  0.4044350000000  0.4350740000000  0.4816920000000 1.0
C      1  0.5872760000000  0.4539290000000  0.4927770000000 1.0
C      1  0.5078980000000  0.6054450000000  0.5180840000000 1.0
C      1  0.4094630000000  0.4412600000000  0.5101260000000 1.0
C      1  0.5922920000000  0.4500760000000  0.5249510000000 1.0
C      1  0.4996060000000  0.3961870000000  0.4737250000000 1.0
C      1  0.4022540000000  0.5565600000000  0.4831210000000 1.0
C      1  0.6060220000000  0.5576590000000  0.4971280000000 1.0
C      1  0.4997420000000  0.4008510000000  0.5063930000000 1.0
C      1  0.4100210000000  0.5540870000000  0.5161840000000 1.0
C      1  0.5881810000000  0.5475060000000  0.5199480000000 1.0
C      1  0.5182310000000  0.4917550000000  0.4011200000000 1.0
C      1  0.5050440000000  0.5077400000000  0.5960600000000 1.0
END
