TITL C-2622954-8726-668 -8.00965290177068e-05 125000 -312.638011523664 0 0 56 (C5) n - 1
REM
REM in /nfs/bkarasulu/CARBON/AIRSS/Generating-Clusters/AIREBO/with-SteepDescent/Higher-Symm/SD-CG/HFTN-CG
REM
REM
REM
REM
REM
REM ./C.cell (b20cbc046b6831c77cfcea5457e17084)
REM
REM compiler GCC version 9.2.1 20190827 (Red Hat 9.2.1-1)
REM options -cpp -mtune=generic -march=x86-64 -g -O0 -fpre-include=/usr/include/finclude/math-vector-fortran.h
REM seed -838205034 794830511 107599109 -1891824336 -397623091 1182102692 1883004043 -609720096 1959770562 1704215103 1249416482 -787557790 1881689519 905446608 -1528854557 -182259330 1438548535 701037457 -516792743 -1254183432 170463177 1528209236 1772483846 -1596532453 1812771524 412994526 282671499 30138123 -1750080995 -1115535366 -1287795844 -948410610 1739584002
REM
CELL 1.54180   50.00000   50.00000   50.00000   90.00000   90.00000   90.00000
LATT -1
SFAC C  
C      1  0.4968480000000  0.5203620000000  0.5594690000000 1.0
C      1  0.4968410000000  0.4493220000000  0.5381540000000 1.0
C      1  0.4968550000000  0.4476470000000  0.4640020000000 1.0
C      1  0.4968680000000  0.5176490000000  0.4394920000000 1.0
C      1  0.4968640000000  0.5625920000000  0.4984950000000 1.0
C      1  0.4756210000000  0.4365380000000  0.4882490000000 1.0
C      1  0.4756360000000  0.4911550000000  0.4364140000000 1.0
C      1  0.4756380000000  0.5573300000000  0.4723400000000 1.0
C      1  0.4756250000000  0.5436090000000  0.5463780000000 1.0
C      1  0.4756120000000  0.4689550000000  0.5562110000000 1.0
C      1  0.5406060000000  0.5464490000000  0.5422890000000 1.0
C      1  0.5405930000000  0.4737270000000  0.5576640000000 1.0
C      1  0.5405990000000  0.4366340000000  0.4932520000000 1.0
C      1  0.5406150000000  0.4864310000000  0.4380690000000 1.0
C      1  0.5406190000000  0.5543010000000  0.4683760000000 1.0
C      1  0.5127860000000  0.5071030000000  0.4745180000000 1.0
C      1  0.5127840000000  0.5260220000000  0.4992930000000 1.0
C      1  0.5127800000000  0.5083050000000  0.5249410000000 1.0
C      1  0.5127750000000  0.4784360000000  0.5160190000000 1.0
C      1  0.5127820000000  0.4776950000000  0.4848560000000 1.0
C      1  0.5280320000000  0.5129690000000  0.4473240000000 1.0
C      1  0.5280290000000  0.5536990000000  0.4964720000000 1.0
C      1  0.5280160000000  0.5195420000000  0.5503960000000 1.0
C      1  0.5280100000000  0.4577010000000  0.5345760000000 1.0
C      1  0.5280210000000  0.4536400000000  0.4708730000000 1.0
C      1  0.4803690000000  0.4743030000000  0.4772240000000 1.0
C      1  0.4803740000000  0.5133120000000  0.4689250000000 1.0
C      1  0.4803700000000  0.5332580000000  0.5034610000000 1.0
C      1  0.4803640000000  0.5065740000000  0.5331000000000 1.0
C      1  0.4803600000000  0.4701370000000  0.5168870000000 1.0
C      1  0.4536630000000  0.5244800000000  0.5351510000000 1.0
C      1  0.4536540000000  0.4737190000000  0.5345430000000 1.0
C      1  0.4536620000000  0.4586150000000  0.4860790000000 1.0
C      1  0.4536720000000  0.5000390000000  0.4567350000000 1.0
C      1  0.4536720000000  0.5407470000000  0.4870640000000 1.0
C      1  0.5456470000000  0.5370980000000  0.4482950000000 1.0
C      1  0.5456370000000  0.5602330000000  0.5197250000000 1.0
C      1  0.5456220000000  0.4994470000000  0.5638000000000 1.0
C      1  0.5456210000000  0.4387450000000  0.5196100000000 1.0
C      1  0.5456370000000  0.4620160000000  0.4482240000000 1.0
C      1  0.5631860000000  0.5811560000000  0.5176470000000 1.0
C      1  0.5631660000000  0.5078910000000  0.5830610000000 1.0
C      1  0.5631620000000  0.4230370000000  0.5335970000000 1.0
C      1  0.5631830000000  0.4438610000000  0.4376130000000 1.0
C      1  0.5631970000000  0.5415820000000  0.4277540000000 1.0
C      1  0.4321800000000  0.4847250000000  0.5202130000000 1.0
C      1  0.4321850000000  0.4756420000000  0.4921110000000 1.0
C      1  0.4321900000000  0.4995610000000  0.4747890000000 1.0
C      1  0.4321900000000  0.5234280000000  0.4921840000000 1.0
C      1  0.4321850000000  0.5142580000000  0.5202580000000 1.0
C      1  0.4844070000000  0.5473640000000  0.4484470000000 1.0
C      1  0.4843950000000  0.5632560000000  0.5295190000000 1.0
C      1  0.4843780000000  0.4910620000000  0.5696850000000 1.0
C      1  0.4843800000000  0.4305500000000  0.5134390000000 1.0
C      1  0.4843980000000  0.4653490000000  0.4385100000000 1.0
C      1  0.4828450000000  0.4995160000000  0.4999210000000 1.0
END
