TITL C-2622958-629-33 0.00124623096233783 125000 -753.12130749744 0 0 136 (C1) n - 1
REM
REM in /nfs/bkarasulu/CARBON/AIRSS/Generating-Clusters/AIREBO/with-SteepDescent/Higher-Symm/SD-CG/HFTN-CG
REM
REM
REM
REM
REM
REM ./C.cell (b20cbc046b6831c77cfcea5457e17084)
REM
REM compiler GCC version 9.2.1 20190827 (Red Hat 9.2.1-1)
REM options -cpp -mtune=generic -march=x86-64 -g -O0 -fpre-include=/usr/include/finclude/math-vector-fortran.h
REM seed -1858184853 1503327216 -1209800112 1291524682 712049713 998748029 1023693014 2112252091 172240719 -676721939 970386608 -1218412845 1785081947 -2091275707 -553198245 -1917504314 -864496881 1490426728 -1657848349 -1530310502 432591310 -514703615 -1803839730 -937309942 675471687 -1286989272 -833788945 208108241 -763096905 1946254676 -2073253066 -1522600618 -2024911475
REM
CELL 1.54180   50.00000   50.00000   50.00000   90.00000   90.00000   90.00000
LATT -1
SFAC C  
C      1  0.5691670000000  0.4657710000000  0.4864550000000 1.0
C      1  0.4870490000000  0.5676650000000  0.4610370000000 1.0
C      1  0.4642200000000  0.4886210000000  0.5617640000000 1.0
C      1  0.4270320000000  0.5392490000000  0.4808680000000 1.0
C      1  0.4339250000000  0.4662740000000  0.5167910000000 1.0
C      1  0.5564430000000  0.5478880000000  0.5072780000000 1.0
C      1  0.5174630000000  0.4422100000000  0.4579870000000 1.0
C      1  0.5181600000000  0.5689070000000  0.5339560000000 1.0
C      1  0.4756800000000  0.4369810000000  0.5449690000000 1.0
C      1  0.5469650000000  0.5178450000000  0.5757960000000 1.0
C      1  0.5463710000000  0.4835040000000  0.4442250000000 1.0
C      1  0.4609390000000  0.5127070000000  0.4415570000000 1.0
C      1  0.4703570000000  0.5762220000000  0.4895010000000 1.0
C      1  0.5703300000000  0.4909740000000  0.4660000000000 1.0
C      1  0.4870820000000  0.4634640000000  0.5624110000000 1.0
C      1  0.5427550000000  0.4471900000000  0.4755120000000 1.0
C      1  0.4748360000000  0.4277670000000  0.5162150000000 1.0
C      1  0.5418010000000  0.5737460000000  0.5142050000000 1.0
C      1  0.4377130000000  0.5121770000000  0.4669890000000 1.0
C      1  0.5626140000000  0.5068350000000  0.5512340000000 1.0
C      1  0.4231310000000  0.4925810000000  0.5270270000000 1.0
C      1  0.5162900000000  0.5256550000000  0.5682200000000 1.0
C      1  0.4765410000000  0.5425700000000  0.4400530000000 1.0
C      1  0.5186010000000  0.4665130000000  0.4343790000000 1.0
C      1  0.4031950000000  0.5432750000000  0.4998150000000 1.0
C      1  0.4771800000000  0.4095010000000  0.5612350000000 1.0
C      1  0.5479310000000  0.4798120000000  0.3980440000000 1.0
C      1  0.5975640000000  0.4477440000000  0.4814570000000 1.0
C      1  0.5947480000000  0.5480160000000  0.5157200000000 1.0
C      1  0.4161440000000  0.4309880000000  0.5196820000000 1.0
C      1  0.5238750000000  0.6196350000000  0.5353220000000 1.0
C      1  0.5124220000000  0.4116190000000  0.4566360000000 1.0
C      1  0.4834810000000  0.5976280000000  0.4453550000000 1.0
C      1  0.4584930000000  0.5092940000000  0.3896210000000 1.0
C      1  0.4462710000000  0.4784950000000  0.5959550000000 1.0
C      1  0.5394310000000  0.4980460000000  0.5990550000000 1.0
C      1  0.5525030000000  0.4085010000000  0.4781150000000 1.0
C      1  0.3905050000000  0.4908790000000  0.5369940000000 1.0
C      1  0.4855890000000  0.5397480000000  0.4076460000000 1.0
C      1  0.4444320000000  0.5848000000000  0.4795840000000 1.0
C      1  0.5446550000000  0.5950530000000  0.4983850000000 1.0
C      1  0.4573440000000  0.4001700000000  0.5129640000000 1.0
C      1  0.5838260000000  0.4904850000000  0.5491740000000 1.0
C      1  0.4133720000000  0.4929520000000  0.4638020000000 1.0
C      1  0.6016540000000  0.4970940000000  0.4542680000000 1.0
C      1  0.5243310000000  0.4448380000000  0.4095310000000 1.0
C      1  0.4783240000000  0.4496510000000  0.5922260000000 1.0
C      1  0.5118470000000  0.5557420000000  0.5840270000000 1.0
C      1  0.5335240000000  0.5942120000000  0.4729270000000 1.0
C      1  0.4897610000000  0.5299990000000  0.5864000000000 1.0
C      1  0.5843530000000  0.4646130000000  0.5396830000000 1.0
C      1  0.4790380000000  0.4089630000000  0.4888290000000 1.0
C      1  0.4893490000000  0.5989960000000  0.5033120000000 1.0
C      1  0.5311240000000  0.4022920000000  0.4975420000000 1.0
C      1  0.4934430000000  0.4802560000000  0.5912960000000 1.0
C      1  0.5111350000000  0.5338170000000  0.3995150000000 1.0
C      1  0.5008720000000  0.4863320000000  0.4131900000000 1.0
C      1  0.4090120000000  0.5175030000000  0.5452890000000 1.0
C      1  0.4158540000000  0.4656520000000  0.4643060000000 1.0
C      1  0.5806110000000  0.5231600000000  0.4621360000000 1.0
C      1  0.5798570000000  0.5480650000000  0.4849280000000 1.0
C      1  0.5224910000000  0.4767290000000  0.5994350000000 1.0
C      1  0.5115430000000  0.5986080000000  0.5260820000000 1.0
C      1  0.4201520000000  0.4482440000000  0.4914390000000 1.0
C      1  0.5812530000000  0.4463210000000  0.5115990000000 1.0
C      1  0.4042070000000  0.5437000000000  0.5262990000000 1.0
C      1  0.4687140000000  0.5038530000000  0.5918300000000 1.0
C      1  0.5275500000000  0.5050030000000  0.4031740000000 1.0
C      1  0.4680530000000  0.4953390000000  0.4153920000000 1.0
C      1  0.4985090000000  0.3936430000000  0.5588280000000 1.0
C      1  0.5070320000000  0.4016170000000  0.4821270000000 1.0
C      1  0.5034450000000  0.5948620000000  0.4732040000000 1.0
C      1  0.5668260000000  0.5598970000000  0.4564930000000 1.0
C      1  0.4687720000000  0.5739070000000  0.5610740000000 1.0
C      1  0.5322050000000  0.4529170000000  0.5890050000000 1.0
C      1  0.4388530000000  0.4334470000000  0.4674820000000 1.0
C      1  0.4242430000000  0.5542230000000  0.5454420000000 1.0
C      1  0.5616530000000  0.4233370000000  0.5275360000000 1.0
C      1  0.5236760000000  0.4053970000000  0.5515240000000 1.0
C      1  0.5367580000000  0.5823240000000  0.4259840000000 1.0
C      1  0.4802360000000  0.4339090000000  0.4405370000000 1.0
C      1  0.4500000000000  0.5310530000000  0.5823930000000 1.0
C      1  0.4523850000000  0.4663560000000  0.4175700000000 1.0
C      1  0.5466630000000  0.5301140000000  0.4165700000000 1.0
C      1  0.5484760000000  0.5810370000000  0.4531290000000 1.0
C      1  0.5627000000000  0.4460210000000  0.5466950000000 1.0
C      1  0.4689650000000  0.5550440000000  0.5806600000000 1.0
C      1  0.4648440000000  0.4219960000000  0.4648860000000 1.0
C      1  0.5379850000000  0.4076590000000  0.5255440000000 1.0
C      1  0.4740490000000  0.5883930000000  0.5313380000000 1.0
C      1  0.4271600000000  0.5334620000000  0.5677920000000 1.0
C      1  0.5649800000000  0.5359990000000  0.4366420000000 1.0
C      1  0.4352800000000  0.4551400000000  0.4420030000000 1.0
C      1  0.5307610000000  0.4254890000000  0.5704210000000 1.0
C      1  0.4824910000000  0.4583380000000  0.4192610000000 1.0
C      1  0.5318130000000  0.5570680000000  0.4063410000000 1.0
C      1  0.5203080000000  0.5022210000000  0.4567260000000 1.0
C      1  0.4528750000000  0.5298280000000  0.4994130000000 1.0
C      1  0.5093110000000  0.4613720000000  0.5161860000000 1.0
C      1  0.4710220000000  0.4911590000000  0.4612060000000 1.0
C      1  0.4679640000000  0.5089450000000  0.5411990000000 1.0
C      1  0.5166760000000  0.4994120000000  0.5404430000000 1.0
C      1  0.5513600000000  0.4853660000000  0.5077640000000 1.0
C      1  0.5394690000000  0.5234910000000  0.5037400000000 1.0
C      1  0.4607580000000  0.4733180000000  0.5045210000000 1.0
C      1  0.4974560000000  0.5465370000000  0.5222410000000 1.0
C      1  0.4909240000000  0.4521900000000  0.4742570000000 1.0
C      1  0.5129320000000  0.5502170000000  0.4714830000000 1.0
C      1  0.5057700000000  0.5275020000000  0.4487370000000 1.0
C      1  0.5323750000000  0.4617540000000  0.5014210000000 1.0
C      1  0.4483160000000  0.5112620000000  0.5243270000000 1.0
C      1  0.4997130000000  0.4799500000000  0.4593040000000 1.0
C      1  0.5124110000000  0.4704060000000  0.5445110000000 1.0
C      1  0.4951020000000  0.5224740000000  0.5418050000000 1.0
C      1  0.4680370000000  0.5543480000000  0.5112830000000 1.0
C      1  0.5133460000000  0.5376980000000  0.4979570000000 1.0
C      1  0.4837420000000  0.4536560000000  0.5031440000000 1.0
C      1  0.5429160000000  0.5059680000000  0.5288570000000 1.0
C      1  0.4602450000000  0.4984720000000  0.4885260000000 1.0
C      1  0.5434100000000  0.5060790000000  0.4788570000000 1.0
C      1  0.4185780000000  0.5685500000000  0.4320660000000 1.0
C      1  0.5561750000000  0.4660350000000  0.4207110000000 1.0
C      1  0.5538620000000  0.5454090000000  0.5589930000000 1.0
C      1  0.4424580000000  0.4634650000000  0.5688250000000 1.0
C      1  0.5641010000000  0.4403750000000  0.4303320000000 1.0
C      1  0.4473370000000  0.5557750000000  0.4356850000000 1.0
C      1  0.4510600000000  0.4306030000000  0.5672060000000 1.0
C      1  0.4330020000000  0.4443910000000  0.5422290000000 1.0
C      1  0.5307370000000  0.5620400000000  0.5605170000000 1.0
C      1  0.5716150000000  0.5473350000000  0.5373190000000 1.0
C      1  0.5587990000000  0.4278960000000  0.4550840000000 1.0
C      1  0.4309330000000  0.5628050000000  0.4633370000000 1.0
C      1  0.5358080000000  0.4550280000000  0.5571510000000 1.0
C      1  0.4493820000000  0.5661870000000  0.5357100000000 1.0
C      1  0.5225360000000  0.5541420000000  0.4389240000000 1.0
C      1  0.4650550000000  0.4607050000000  0.4549470000000 1.0
END
