TITL C-2622968-4806-316 0.000182263287461888 125000 -364.899269371212 0 0 76 (C1) n - 1
REM
REM in /nfs/bkarasulu/CARBON/AIRSS/Generating-Clusters/AIREBO/with-SteepDescent/Higher-Symm/SD-CG/HFTN-CG
REM
REM
REM
REM
REM
REM ./C.cell (b20cbc046b6831c77cfcea5457e17084)
REM
REM compiler GCC version 9.2.1 20190827 (Red Hat 9.2.1-1)
REM options -cpp -mtune=generic -march=x86-64 -g -O0 -fpre-include=/usr/include/finclude/math-vector-fortran.h
REM seed -1332622435 1616415344 -1578380698 -154964474 -1972431833 383563081 -951133196 279330 -1307468903 -1191487234 1255642456 -895544167 -744910134 300888452 -1108191129 580891884 -704959223 932085686 1652687017 -1200166391 1373397494 1169458154 372842817 849142324 -1939962636 -329315514 420997541 109603698 1440404838 -345687277 -1484186590 345210675 1889955477
REM
CELL 1.54180   50.00000   50.00000   50.00000   90.00000   90.00000   90.00000
LATT -1
SFAC C  
C      1  0.5559010000000  0.4976380000000  0.5437540000000 1.0
C      1  0.5361670000000  0.5383310000000  0.5419300000000 1.0
C      1  0.4975480000000  0.5480030000000  0.5454090000000 1.0
C      1  0.4532570000000  0.5313180000000  0.5439140000000 1.0
C      1  0.4480460000000  0.4793650000000  0.5488630000000 1.0
C      1  0.4827690000000  0.4500210000000  0.5459920000000 1.0
C      1  0.5283730000000  0.4611300000000  0.5428830000000 1.0
C      1  0.5508740000000  0.4374540000000  0.4757390000000 1.0
C      1  0.5722960000000  0.5016680000000  0.4664400000000 1.0
C      1  0.5472770000000  0.5473000000000  0.4686970000000 1.0
C      1  0.4868840000000  0.5617240000000  0.4715790000000 1.0
C      1  0.4336250000000  0.5299540000000  0.4703290000000 1.0
C      1  0.4393080000000  0.4666910000000  0.4698030000000 1.0
C      1  0.4873350000000  0.4405440000000  0.4694630000000 1.0
C      1  0.5636780000000  0.5387310000000  0.5219540000000 1.0
C      1  0.5063730000000  0.5696880000000  0.5207490000000 1.0
C      1  0.4463590000000  0.5566100000000  0.5234580000000 1.0
C      1  0.4263990000000  0.4941120000000  0.5267720000000 1.0
C      1  0.4575900000000  0.4363360000000  0.5276880000000 1.0
C      1  0.5225820000000  0.4340140000000  0.5272550000000 1.0
C      1  0.5715050000000  0.4739170000000  0.5250430000000 1.0
C      1  0.5278380000000  0.5243190000000  0.5664750000000 1.0
C      1  0.4964670000000  0.5302220000000  0.5722600000000 1.0
C      1  0.4633720000000  0.5236030000000  0.5699880000000 1.0
C      1  0.4627930000000  0.4897130000000  0.5732870000000 1.0
C      1  0.4902120000000  0.4669660000000  0.5700000000000 1.0
C      1  0.5233560000000  0.4736410000000  0.5678180000000 1.0
C      1  0.5393780000000  0.4973430000000  0.5694580000000 1.0
C      1  0.4680500000000  0.5580060000000  0.4972980000000 1.0
C      1  0.4319980000000  0.5110330000000  0.4977980000000 1.0
C      1  0.4484350000000  0.4507320000000  0.4983770000000 1.0
C      1  0.5043970000000  0.4367650000000  0.4986470000000 1.0
C      1  0.5575060000000  0.4642640000000  0.4955790000000 1.0
C      1  0.5620240000000  0.5198400000000  0.4937090000000 1.0
C      1  0.5206690000000  0.5572830000000  0.4924760000000 1.0
C      1  0.4893970000000  0.4232950000000  0.5260390000000 1.0
C      1  0.5552950000000  0.4431760000000  0.5221760000000 1.0
C      1  0.5787000000000  0.5071680000000  0.5205010000000 1.0
C      1  0.5406620000000  0.5638510000000  0.5191950000000 1.0
C      1  0.4735350000000  0.5780280000000  0.5242390000000 1.0
C      1  0.4254250000000  0.5292930000000  0.5257210000000 1.0
C      1  0.4327820000000  0.4607630000000  0.5248420000000 1.0
C      1  0.4845050000000  0.5359980000000  0.5173290000000 1.0
C      1  0.4608930000000  0.5141900000000  0.5155480000000 1.0
C      1  0.4648500000000  0.4843840000000  0.5219580000000 1.0
C      1  0.4856070000000  0.4610330000000  0.5139470000000 1.0
C      1  0.5329140000000  0.4769140000000  0.5153730000000 1.0
C      1  0.5390800000000  0.5080200000000  0.5160880000000 1.0
C      1  0.5173440000000  0.5318920000000  0.5148590000000 1.0
C      1  0.5843780000000  0.4755980000000  0.4780940000000 1.0
C      1  0.5756300000000  0.5486500000000  0.4815010000000 1.0
C      1  0.5105580000000  0.5843310000000  0.4746480000000 1.0
C      1  0.4403250000000  0.5559150000000  0.4781610000000 1.0
C      1  0.4167390000000  0.4860520000000  0.4799960000000 1.0
C      1  0.4605010000000  0.4336950000000  0.4759820000000 1.0
C      1  0.5313120000000  0.4205530000000  0.4859370000000 1.0
C      1  0.4707910000000  0.5457360000000  0.4475780000000 1.0
C      1  0.4539100000000  0.5161530000000  0.4483070000000 1.0
C      1  0.4624250000000  0.4826230000000  0.4501110000000 1.0
C      1  0.4897690000000  0.4665100000000  0.4462360000000 1.0
C      1  0.5210070000000  0.4761050000000  0.4341520000000 1.0
C      1  0.5444690000000  0.4986330000000  0.4445300000000 1.0
C      1  0.5444460000000  0.5293530000000  0.4423600000000 1.0
C      1  0.5017770000000  0.5328690000000  0.4781580000000 1.0
C      1  0.4791240000000  0.5133320000000  0.4694190000000 1.0
C      1  0.4559120000000  0.4939970000000  0.4814100000000 1.0
C      1  0.5119270000000  0.4638530000000  0.4706900000000 1.0
C      1  0.5403690000000  0.4611930000000  0.4578060000000 1.0
C      1  0.5425610000000  0.4891050000000  0.4771210000000 1.0
C      1  0.5313120000000  0.5211360000000  0.4791640000000 1.0
C      1  0.4934410000000  0.4992550000000  0.5625780000000 1.0
C      1  0.5039310000000  0.4844630000000  0.5038960000000 1.0
C      1  0.5032230000000  0.5223110000000  0.4222900000000 1.0
C      1  0.5016950000000  0.4899520000000  0.5359900000000 1.0
C      1  0.5032290000000  0.4935100000000  0.4724720000000 1.0
C      1  0.5039760000000  0.5033180000000  0.4399050000000 1.0
END
