TITL C-2622967-6265-772 0.000875858120214188 125000 -904.430993526415 0 0 167 (C1) n - 1
REM
REM in /nfs/bkarasulu/CARBON/AIRSS/Generating-Clusters/AIREBO/with-SteepDescent/Higher-Symm/SD-CG/HFTN-CG
REM
REM
REM
REM
REM
REM ./C.cell (b20cbc046b6831c77cfcea5457e17084)
REM
REM compiler GCC version 9.2.1 20190827 (Red Hat 9.2.1-1)
REM options -cpp -mtune=generic -march=x86-64 -g -O0 -fpre-include=/usr/include/finclude/math-vector-fortran.h
REM seed -1104566832 -1600820619 -1574604145 50842534 -1925870401 -2101382033 137852612 -1451758609 -561188361 1647120974 -1085458831 -367849606 1109112259 1637714381 40455512 -163104013 793241917 768169876 486885996 -372209619 -140875574 1076889259 -1468233519 -1267492149 -927297837 -632904404 -1883511225 637183438 646390770 -1205542039 1167715977 1789605713 -147516538
REM
CELL 1.54180   50.00000   50.00000   50.00000   90.00000   90.00000   90.00000
LATT -1
SFAC C  
C      1  0.4523930000000  0.5184410000000  0.5112170000000 1.0
C      1  0.5467030000000  0.4913450000000  0.4913240000000 1.0
C      1  0.4425840000000  0.4767980000000  0.4854180000000 1.0
C      1  0.5473230000000  0.5313030000000  0.4921380000000 1.0
C      1  0.4729450000000  0.4678480000000  0.6113220000000 1.0
C      1  0.5331210000000  0.5477170000000  0.6206580000000 1.0
C      1  0.4934600000000  0.5391460000000  0.4049260000000 1.0
C      1  0.5368440000000  0.4534070000000  0.3847540000000 1.0
C      1  0.4288560000000  0.5433750000000  0.4389670000000 1.0
C      1  0.5818540000000  0.4494350000000  0.4240090000000 1.0
C      1  0.4232280000000  0.4647950000000  0.5667580000000 1.0
C      1  0.5780730000000  0.5386390000000  0.5740010000000 1.0
C      1  0.5100110000000  0.5762310000000  0.5695740000000 1.0
C      1  0.4841200000000  0.4173270000000  0.5691270000000 1.0
C      1  0.5075300000000  0.4259560000000  0.4441220000000 1.0
C      1  0.4954000000000  0.5883970000000  0.4325270000000 1.0
C      1  0.5936580000000  0.5391090000000  0.5318280000000 1.0
C      1  0.4183650000000  0.4490230000000  0.5298000000000 1.0
C      1  0.5916910000000  0.4549640000000  0.4679830000000 1.0
C      1  0.4064670000000  0.5385620000000  0.4607970000000 1.0
C      1  0.4297560000000  0.5143310000000  0.4890900000000 1.0
C      1  0.5720500000000  0.4887370000000  0.4759450000000 1.0
C      1  0.4265700000000  0.4880830000000  0.5104710000000 1.0
C      1  0.5653810000000  0.5155820000000  0.5167240000000 1.0
C      1  0.4878420000000  0.4596220000000  0.4817180000000 1.0
C      1  0.5215230000000  0.5500310000000  0.4803000000000 1.0
C      1  0.4774420000000  0.5405860000000  0.5113510000000 1.0
C      1  0.5071640000000  0.4494090000000  0.5281220000000 1.0
C      1  0.5183560000000  0.4567890000000  0.5736830000000 1.0
C      1  0.4759430000000  0.5465930000000  0.5687080000000 1.0
C      1  0.5372790000000  0.5488710000000  0.4247130000000 1.0
C      1  0.4757510000000  0.4486240000000  0.4311200000000 1.0
C      1  0.4034770000000  0.4493550000000  0.4654130000000 1.0
C      1  0.5843860000000  0.5374440000000  0.4416110000000 1.0
C      1  0.4092390000000  0.5424240000000  0.5345890000000 1.0
C      1  0.5791240000000  0.4694680000000  0.5383270000000 1.0
C      1  0.4712030000000  0.5811370000000  0.4814220000000 1.0
C      1  0.5238670000000  0.4255950000000  0.4811820000000 1.0
C      1  0.4647580000000  0.4085710000000  0.5202570000000 1.0
C      1  0.5299250000000  0.5739480000000  0.5257680000000 1.0
C      1  0.4432500000000  0.4888680000000  0.4442800000000 1.0
C      1  0.5490460000000  0.5126450000000  0.4368020000000 1.0
C      1  0.4502300000000  0.5051900000000  0.5492610000000 1.0
C      1  0.5481100000000  0.4957900000000  0.5484890000000 1.0
C      1  0.4655790000000  0.5908410000000  0.4432420000000 1.0
C      1  0.5346980000000  0.4135930000000  0.4477750000000 1.0
C      1  0.4552090000000  0.4096790000000  0.5660010000000 1.0
C      1  0.5356760000000  0.5866410000000  0.5632160000000 1.0
C      1  0.4848860000000  0.4644460000000  0.5113710000000 1.0
C      1  0.5241540000000  0.5451150000000  0.5347460000000 1.0
C      1  0.4921630000000  0.5362130000000  0.4846900000000 1.0
C      1  0.5187060000000  0.4574120000000  0.4676270000000 1.0
C      1  0.4394810000000  0.4160450000000  0.5375370000000 1.0
C      1  0.5595410000000  0.5798450000000  0.5382070000000 1.0
C      1  0.4415390000000  0.5852750000000  0.4676940000000 1.0
C      1  0.5565150000000  0.4239260000000  0.4717980000000 1.0
C      1  0.4364400000000  0.4506120000000  0.4733620000000 1.0
C      1  0.5627920000000  0.5259010000000  0.4652020000000 1.0
C      1  0.4418330000000  0.5426060000000  0.5290650000000 1.0
C      1  0.5514050000000  0.4772770000000  0.5201420000000 1.0
C      1  0.5285100000000  0.4688390000000  0.4041980000000 1.0
C      1  0.4661720000000  0.5312690000000  0.4202710000000 1.0
C      1  0.5285040000000  0.5362570000000  0.5981280000000 1.0
C      1  0.4724700000000  0.4665770000000  0.5840690000000 1.0
C      1  0.4142470000000  0.4790570000000  0.4563540000000 1.0
C      1  0.5805140000000  0.5039690000000  0.4370150000000 1.0
C      1  0.4204330000000  0.5115510000000  0.5422580000000 1.0
C      1  0.5856490000000  0.4869110000000  0.5588280000000 1.0
C      1  0.4846120000000  0.4930760000000  0.6201870000000 1.0
C      1  0.5161940000000  0.4921730000000  0.6189320000000 1.0
C      1  0.4927680000000  0.4917500000000  0.3913590000000 1.0
C      1  0.5111860000000  0.5103530000000  0.3837520000000 1.0
C      1  0.4188860000000  0.4199410000000  0.5131110000000 1.0
C      1  0.5770650000000  0.5655880000000  0.5194700000000 1.0
C      1  0.4215460000000  0.5744000000000  0.4887080000000 1.0
C      1  0.5726480000000  0.4395700000000  0.4909960000000 1.0
C      1  0.3925280000000  0.4399920000000  0.5133970000000 1.0
C      1  0.5998520000000  0.5507190000000  0.5005860000000 1.0
C      1  0.4032720000000  0.5534870000000  0.4841040000000 1.0
C      1  0.6023900000000  0.4500730000000  0.4979360000000 1.0
C      1  0.5088150000000  0.4563550000000  0.4289450000000 1.0
C      1  0.4844930000000  0.5590820000000  0.4280910000000 1.0
C      1  0.5086910000000  0.5440500000000  0.5716060000000 1.0
C      1  0.4867670000000  0.4471260000000  0.5655930000000 1.0
C      1  0.3938730000000  0.5399180000000  0.5068010000000 1.0
C      1  0.6022580000000  0.4676370000000  0.5191070000000 1.0
C      1  0.3866000000000  0.4558190000000  0.4915900000000 1.0
C      1  0.5918720000000  0.5334510000000  0.4798810000000 1.0
C      1  0.5717660000000  0.4725860000000  0.4467960000000 1.0
C      1  0.4310230000000  0.5155160000000  0.4556830000000 1.0
C      1  0.5746980000000  0.5170050000000  0.5494030000000 1.0
C      1  0.4380740000000  0.4754640000000  0.5380760000000 1.0
C      1  0.4993200000000  0.3926800000000  0.5087860000000 1.0
C      1  0.5023710000000  0.6110950000000  0.5136980000000 1.0
C      1  0.4945610000000  0.6019900000000  0.4901190000000 1.0
C      1  0.5148710000000  0.3943050000000  0.4888660000000 1.0
C      1  0.4861130000000  0.5145170000000  0.4592020000000 1.0
C      1  0.5037300000000  0.4855230000000  0.4557220000000 1.0
C      1  0.4936200000000  0.4911830000000  0.5434140000000 1.0
C      1  0.5060740000000  0.5194360000000  0.5295840000000 1.0
C      1  0.4910950000000  0.4292170000000  0.4728710000000 1.0
C      1  0.5029130000000  0.5765100000000  0.4698480000000 1.0
C      1  0.5083210000000  0.5933070000000  0.5334650000000 1.0
C      1  0.4936760000000  0.4181490000000  0.5304310000000 1.0
C      1  0.5953160000000  0.5045860000000  0.4797230000000 1.0
C      1  0.4049200000000  0.4957230000000  0.4777930000000 1.0
C      1  0.5952470000000  0.5003970000000  0.5193750000000 1.0
C      1  0.3999670000000  0.5087370000000  0.5151770000000 1.0
C      1  0.4331950000000  0.4194240000000  0.4865120000000 1.0
C      1  0.5667860000000  0.5637130000000  0.4870890000000 1.0
C      1  0.4342150000000  0.5728800000000  0.5155720000000 1.0
C      1  0.5561720000000  0.4461080000000  0.5155830000000 1.0
C      1  0.4581360000000  0.4041090000000  0.4933930000000 1.0
C      1  0.5376900000000  0.5758020000000  0.4954870000000 1.0
C      1  0.4657370000000  0.5690050000000  0.5092770000000 1.0
C      1  0.5293110000000  0.4298050000000  0.5144830000000 1.0
C      1  0.5329490000000  0.4296090000000  0.5616360000000 1.0
C      1  0.4563710000000  0.5646240000000  0.5512620000000 1.0
C      1  0.5473400000000  0.5718550000000  0.4411080000000 1.0
C      1  0.4516270000000  0.4324590000000  0.4489000000000 1.0
C      1  0.4629940000000  0.4548760000000  0.4033960000000 1.0
C      1  0.5492140000000  0.5427150000000  0.3933990000000 1.0
C      1  0.4650560000000  0.5369510000000  0.5959850000000 1.0
C      1  0.5457510000000  0.4646110000000  0.5922500000000 1.0
C      1  0.5379880000000  0.4968870000000  0.4098520000000 1.0
C      1  0.4627810000000  0.5011590000000  0.4221100000000 1.0
C      1  0.5422510000000  0.5124890000000  0.5776520000000 1.0
C      1  0.4733010000000  0.4955450000000  0.5703320000000 1.0
C      1  0.5389010000000  0.4625300000000  0.4436100000000 1.0
C      1  0.4758670000000  0.5451600000000  0.4564940000000 1.0
C      1  0.5406480000000  0.5406600000000  0.5604900000000 1.0
C      1  0.4682540000000  0.4592350000000  0.5397330000000 1.0
C      1  0.4770640000000  0.4122330000000  0.4476060000000 1.0
C      1  0.5240130000000  0.5909090000000  0.4485290000000 1.0
C      1  0.4833010000000  0.5851860000000  0.5550180000000 1.0
C      1  0.5111770000000  0.4064400000000  0.5571300000000 1.0
C      1  0.4756520000000  0.5267760000000  0.5424070000000 1.0
C      1  0.5213910000000  0.4747630000000  0.5462130000000 1.0
C      1  0.4677110000000  0.4681730000000  0.4556790000000 1.0
C      1  0.5257910000000  0.5316360000000  0.4520220000000 1.0
C      1  0.5222050000000  0.5059960000000  0.4741270000000 1.0
C      1  0.4678370000000  0.4937080000000  0.4768920000000 1.0
C      1  0.5316990000000  0.5118210000000  0.5139480000000 1.0
C      1  0.4756960000000  0.4968250000000  0.5160220000000 1.0
C      1  0.4924800000000  0.4859180000000  0.4249470000000 1.0
C      1  0.5193700000000  0.5251370000000  0.4132560000000 1.0
C      1  0.5023700000000  0.5121980000000  0.5761440000000 1.0
C      1  0.5074430000000  0.4854530000000  0.5883650000000 1.0
C      1  0.4199550000000  0.4212710000000  0.4552430000000 1.0
C      1  0.5698400000000  0.5639960000000  0.4562470000000 1.0
C      1  0.4230620000000  0.5706320000000  0.5476150000000 1.0
C      1  0.5546910000000  0.4329610000000  0.5452300000000 1.0
C      1  0.5441250000000  0.4909620000000  0.6023140000000 1.0
C      1  0.4706590000000  0.5108490000000  0.6005870000000 1.0
C      1  0.5432740000000  0.5171830000000  0.3828080000000 1.0
C      1  0.4649430000000  0.4810440000000  0.3964760000000 1.0
C      1  0.4714500000000  0.3931410000000  0.4727170000000 1.0
C      1  0.5332140000000  0.6005710000000  0.4791690000000 1.0
C      1  0.4691090000000  0.5931040000000  0.5267130000000 1.0
C      1  0.5310710000000  0.4047010000000  0.5298550000000 1.0
C      1  0.5583930000000  0.4356220000000  0.4399280000000 1.0
C      1  0.4497950000000  0.5614280000000  0.4471810000000 1.0
C      1  0.5608950000000  0.5653580000000  0.5686750000000 1.0
C      1  0.4456070000000  0.4415660000000  0.5578320000000 1.0
C      1  0.6184910000000  0.4968640000000  0.4973160000000 1.0
C      1  0.3866020000000  0.4835360000000  0.4965370000000 1.0
C      1  0.4975690000000  0.4975160000000  0.4929420000000 1.0
END
