TITL C-2622966-9038-280 0.00213157604834861 125000 -875.425703637252 0 0 160 (C1) n - 1
REM
REM in /nfs/bkarasulu/CARBON/AIRSS/Generating-Clusters/AIREBO/with-SteepDescent/Higher-Symm/SD-CG/HFTN-CG
REM
REM
REM
REM
REM
REM ./C.cell (b20cbc046b6831c77cfcea5457e17084)
REM
REM compiler GCC version 9.2.1 20190827 (Red Hat 9.2.1-1)
REM options -cpp -mtune=generic -march=x86-64 -g -O0 -fpre-include=/usr/include/finclude/math-vector-fortran.h
REM seed -800784095 -710243073 188358219 1376173285 1452696754 286775199 -1391081258 1957503719 556808132 -982866035 1708655260 746237561 -1584598091 -1822827605 1052734999 13966485 1947040440 1362323066 -538032353 1114782507 -596192875 -78470468 -864825964 -856053228 1008146500 1203564608 -1687218978 -979665751 110413195 -732642654 -1197871549 1932853283 -65761529
REM
CELL 1.54180   50.00000   50.00000   50.00000   90.00000   90.00000   90.00000
LATT -1
SFAC C  
C      1  0.4891650000000  0.5457610000000  0.5905830000000 1.0
C      1  0.4047120000000  0.5481460000000  0.4490250000000 1.0
C      1  0.4554150000000  0.6102720000000  0.4857200000000 1.0
C      1  0.4396150000000  0.4124990000000  0.4753290000000 1.0
C      1  0.5395350000000  0.4715850000000  0.4391390000000 1.0
C      1  0.3924230000000  0.5300950000000  0.4976470000000 1.0
C      1  0.5428950000000  0.5659020000000  0.4571130000000 1.0
C      1  0.4900700000000  0.5527880000000  0.4497020000000 1.0
C      1  0.4715820000000  0.4687470000000  0.6022180000000 1.0
C      1  0.4440560000000  0.4712010000000  0.5070120000000 1.0
C      1  0.5088530000000  0.4708120000000  0.3991940000000 1.0
C      1  0.5533890000000  0.5156690000000  0.5967590000000 1.0
C      1  0.4289690000000  0.4528070000000  0.4433180000000 1.0
C      1  0.5780190000000  0.4480280000000  0.5544220000000 1.0
C      1  0.4224140000000  0.5299710000000  0.4265150000000 1.0
C      1  0.4908550000000  0.5888810000000  0.5480110000000 1.0
C      1  0.5417250000000  0.4378030000000  0.4358940000000 1.0
C      1  0.5323430000000  0.3990260000000  0.5392420000000 1.0
C      1  0.4773840000000  0.4743610000000  0.5451190000000 1.0
C      1  0.4109590000000  0.5517170000000  0.4813540000000 1.0
C      1  0.5746010000000  0.5584200000000  0.4606220000000 1.0
C      1  0.4705240000000  0.5117950000000  0.5812780000000 1.0
C      1  0.5519930000000  0.4222660000000  0.4711190000000 1.0
C      1  0.4685300000000  0.4440700000000  0.5577830000000 1.0
C      1  0.4669460000000  0.5316940000000  0.5303930000000 1.0
C      1  0.5463480000000  0.3949610000000  0.4892360000000 1.0
C      1  0.5154580000000  0.4330430000000  0.5272660000000 1.0
C      1  0.4558590000000  0.4898120000000  0.5958870000000 1.0
C      1  0.5620700000000  0.4475960000000  0.5298530000000 1.0
C      1  0.4556250000000  0.5986950000000  0.4600670000000 1.0
C      1  0.4726920000000  0.5237700000000  0.4531630000000 1.0
C      1  0.4761780000000  0.4233260000000  0.4453870000000 1.0
C      1  0.5285250000000  0.4262140000000  0.5579390000000 1.0
C      1  0.5730160000000  0.5693340000000  0.4909220000000 1.0
C      1  0.5735370000000  0.4322460000000  0.4870300000000 1.0
C      1  0.5363480000000  0.4756460000000  0.4055300000000 1.0
C      1  0.5677320000000  0.4261760000000  0.5137200000000 1.0
C      1  0.5265210000000  0.5855750000000  0.4785500000000 1.0
C      1  0.4697250000000  0.4488760000000  0.5068450000000 1.0
C      1  0.5061500000000  0.5057960000000  0.5544120000000 1.0
C      1  0.5238960000000  0.5367720000000  0.4969370000000 1.0
C      1  0.4456070000000  0.4264130000000  0.4471170000000 1.0
C      1  0.4014550000000  0.5448860000000  0.5336040000000 1.0
C      1  0.5652130000000  0.5229230000000  0.5732200000000 1.0
C      1  0.4634350000000  0.4003010000000  0.5275870000000 1.0
C      1  0.5320790000000  0.4626900000000  0.5284170000000 1.0
C      1  0.4890620000000  0.5722310000000  0.4757920000000 1.0
C      1  0.6126070000000  0.5157230000000  0.4729780000000 1.0
C      1  0.5226660000000  0.4178710000000  0.4976840000000 1.0
C      1  0.4391340000000  0.5699120000000  0.5261490000000 1.0
C      1  0.4872520000000  0.4872380000000  0.3878620000000 1.0
C      1  0.5727740000000  0.5015130000000  0.5299490000000 1.0
C      1  0.5418150000000  0.4723230000000  0.5727670000000 1.0
C      1  0.4618210000000  0.4933700000000  0.4594780000000 1.0
C      1  0.4113210000000  0.4801510000000  0.5091740000000 1.0
C      1  0.4810020000000  0.5246110000000  0.4201270000000 1.0
C      1  0.4069570000000  0.5118710000000  0.5117270000000 1.0
C      1  0.5793130000000  0.5484050000000  0.4287040000000 1.0
C      1  0.4352780000000  0.5296480000000  0.4898850000000 1.0
C      1  0.5531220000000  0.4449160000000  0.5686600000000 1.0
C      1  0.5522720000000  0.4021740000000  0.5194980000000 1.0
C      1  0.4587360000000  0.5660130000000  0.4505060000000 1.0
C      1  0.4377240000000  0.4418450000000  0.5720260000000 1.0
C      1  0.6014820000000  0.5046280000000  0.5023020000000 1.0
C      1  0.4846580000000  0.4264140000000  0.5224490000000 1.0
C      1  0.5844940000000  0.4581580000000  0.4772480000000 1.0
C      1  0.4363980000000  0.5225710000000  0.5209140000000 1.0
C      1  0.4009310000000  0.5529220000000  0.5623630000000 1.0
C      1  0.5446680000000  0.5548180000000  0.5552840000000 1.0
C      1  0.5097000000000  0.4752860000000  0.4560200000000 1.0
C      1  0.4330110000000  0.4861310000000  0.4436360000000 1.0
C      1  0.5456450000000  0.4891580000000  0.5449110000000 1.0
C      1  0.4371060000000  0.4206340000000  0.5065800000000 1.0
C      1  0.4619180000000  0.4941770000000  0.4933560000000 1.0
C      1  0.4951620000000  0.4574510000000  0.4198490000000 1.0
C      1  0.5424950000000  0.5213370000000  0.5493420000000 1.0
C      1  0.5173350000000  0.4433790000000  0.5851020000000 1.0
C      1  0.4654290000000  0.5331160000000  0.4851740000000 1.0
C      1  0.5063390000000  0.3955120000000  0.4533570000000 1.0
C      1  0.5270650000000  0.4710970000000  0.6025000000000 1.0
C      1  0.4728820000000  0.5609640000000  0.4937840000000 1.0
C      1  0.4220680000000  0.4913910000000  0.5577010000000 1.0
C      1  0.5085130000000  0.3858640000000  0.5321330000000 1.0
C      1  0.6036980000000  0.4706260000000  0.4962180000000 1.0
C      1  0.5431010000000  0.5837750000000  0.5441740000000 1.0
C      1  0.5103200000000  0.4775320000000  0.5673310000000 1.0
C      1  0.5568920000000  0.5391460000000  0.4906770000000 1.0
C      1  0.4474880000000  0.4269630000000  0.5370390000000 1.0
C      1  0.5018010000000  0.5929690000000  0.4579530000000 1.0
C      1  0.5040110000000  0.4427330000000  0.4480160000000 1.0
C      1  0.4827120000000  0.5142330000000  0.5058380000000 1.0
C      1  0.4266370000000  0.5135420000000  0.4627280000000 1.0
C      1  0.5560510000000  0.5925910000000  0.4902700000000 1.0
C      1  0.4945300000000  0.5510380000000  0.5256960000000 1.0
C      1  0.5650150000000  0.5172970000000  0.4680530000000 1.0
C      1  0.5036100000000  0.5807910000000  0.5781890000000 1.0
C      1  0.5164490000000  0.3880610000000  0.4813170000000 1.0
C      1  0.4715830000000  0.5738530000000  0.4212250000000 1.0
C      1  0.5123680000000  0.5224670000000  0.4171500000000 1.0
C      1  0.5601210000000  0.4778890000000  0.4654740000000 1.0
C      1  0.5137490000000  0.5078000000000  0.5053000000000 1.0
C      1  0.4823040000000  0.4069300000000  0.4745480000000 1.0
C      1  0.5117390000000  0.5350720000000  0.5446990000000 1.0
C      1  0.4339860000000  0.5053570000000  0.4186280000000 1.0
C      1  0.6052140000000  0.5296380000000  0.5206220000000 1.0
C      1  0.5037030000000  0.5149020000000  0.5870790000000 1.0
C      1  0.5052300000000  0.4841930000000  0.5282540000000 1.0
C      1  0.5549040000000  0.5473840000000  0.4147100000000 1.0
C      1  0.4708640000000  0.4707590000000  0.4277580000000 1.0
C      1  0.5215450000000  0.5003410000000  0.4366210000000 1.0
C      1  0.5426100000000  0.5229290000000  0.4077910000000 1.0
C      1  0.5185800000000  0.5467220000000  0.4672220000000 1.0
C      1  0.4643720000000  0.4350620000000  0.4811670000000 1.0
C      1  0.4916310000000  0.4690530000000  0.5023780000000 1.0
C      1  0.4647690000000  0.4989040000000  0.4106110000000 1.0
C      1  0.4306700000000  0.5432300000000  0.5711250000000 1.0
C      1  0.4204130000000  0.4414260000000  0.4949380000000 1.0
C      1  0.5807670000000  0.5305730000000  0.5439190000000 1.0
C      1  0.5282180000000  0.5018640000000  0.6006420000000 1.0
C      1  0.5494930000000  0.5477240000000  0.5227380000000 1.0
C      1  0.5824780000000  0.5529070000000  0.5179130000000 1.0
C      1  0.5089030000000  0.5529800000000  0.4239620000000 1.0
C      1  0.4559500000000  0.5388310000000  0.5883740000000 1.0
C      1  0.4664970000000  0.5059890000000  0.5516830000000 1.0
C      1  0.4092140000000  0.4918900000000  0.4773260000000 1.0
C      1  0.4880430000000  0.4568050000000  0.5793500000000 1.0
C      1  0.4649620000000  0.4595260000000  0.4582030000000 1.0
C      1  0.4968210000000  0.6149810000000  0.5183300000000 1.0
C      1  0.4795240000000  0.5983220000000  0.4397440000000 1.0
C      1  0.4715800000000  0.5760150000000  0.5231100000000 1.0
C      1  0.5675100000000  0.5013350000000  0.4970210000000 1.0
C      1  0.4720490000000  0.6060860000000  0.5081710000000 1.0
C      1  0.4749870000000  0.5666250000000  0.5671530000000 1.0
C      1  0.5373090000000  0.4925610000000  0.4859850000000 1.0
C      1  0.5167860000000  0.5905660000000  0.5285090000000 1.0
C      1  0.5975500000000  0.4594970000000  0.4484260000000 1.0
C      1  0.5155150000000  0.5686290000000  0.5054010000000 1.0
C      1  0.4163480000000  0.5585940000000  0.5142330000000 1.0
C      1  0.4102240000000  0.4684290000000  0.5391960000000 1.0
C      1  0.4906900000000  0.4847540000000  0.4752460000000 1.0
C      1  0.4357000000000  0.4620300000000  0.4753450000000 1.0
C      1  0.4298560000000  0.4872910000000  0.5875590000000 1.0
C      1  0.4382390000000  0.5440530000000  0.4528340000000 1.0
C      1  0.5240570000000  0.4411560000000  0.4754510000000 1.0
C      1  0.4889240000000  0.3967810000000  0.5063320000000 1.0
C      1  0.4537260000000  0.5543400000000  0.5515760000000 1.0
C      1  0.4734310000000  0.5520540000000  0.4055670000000 1.0
C      1  0.5918340000000  0.5299720000000  0.4541740000000 1.0
C      1  0.5696090000000  0.4984010000000  0.4400630000000 1.0
C      1  0.4472080000000  0.4832380000000  0.5373000000000 1.0
C      1  0.6013830000000  0.4630780000000  0.5513650000000 1.0
C      1  0.4196180000000  0.4433030000000  0.5476810000000 1.0
C      1  0.5352560000000  0.5640290000000  0.4273370000000 1.0
C      1  0.5540850000000  0.4986760000000  0.4136240000000 1.0
C      1  0.5163210000000  0.5508580000000  0.5715200000000 1.0
C      1  0.5240680000000  0.4656640000000  0.4955020000000 1.0
C      1  0.5961290000000  0.4816820000000  0.4363540000000 1.0
C      1  0.5996680000000  0.4823030000000  0.5278960000000 1.0
C      1  0.5234010000000  0.4162100000000  0.4439490000000 1.0
C      1  0.4188050000000  0.5200000000000  0.5489690000000 1.0
END
