TITL C-2622967-6265-537 -0.000172759004869531 125000 -269.715315697839 0 0 51 (C1) n - 1
REM
REM in /nfs/bkarasulu/CARBON/AIRSS/Generating-Clusters/AIREBO/with-SteepDescent/Higher-Symm/SD-CG/HFTN-CG
REM
REM
REM
REM
REM
REM ./C.cell (b20cbc046b6831c77cfcea5457e17084)
REM
REM compiler GCC version 9.2.1 20190827 (Red Hat 9.2.1-1)
REM options -cpp -mtune=generic -march=x86-64 -g -O0 -fpre-include=/usr/include/finclude/math-vector-fortran.h
REM seed -1779017003 -33465824 283721626 -1140015461 1892165151 -95025397 -1875014422 910126076 1005880754 1237303803 -427115378 1802459067 -1749973609 1746368938 362089623 2030911759 -1008139436 2126437080 244042042 -1365893622 1443514033 -1548822650 936541606 847887720 -403480181 1985785902 -1921782894 -954394652 -512296044 -2119165589 1993980145 233283644 -1387800226
REM
CELL 1.54180   50.00000   50.00000   50.00000   90.00000   90.00000   90.00000
LATT -1
SFAC C  
C      1  0.5557000000000  0.4772410000000  0.5159720000000 1.0
C      1  0.4521400000000  0.4666590000000  0.5142790000000 1.0
C      1  0.4953910000000  0.5605620000000  0.5137760000000 1.0
C      1  0.5557240000000  0.4770280000000  0.4881310000000 1.0
C      1  0.4524630000000  0.4663470000000  0.4865970000000 1.0
C      1  0.4962450000000  0.5608870000000  0.4862230000000 1.0
C      1  0.5457210000000  0.5253460000000  0.5455600000000 1.0
C      1  0.5004780000000  0.4465360000000  0.5272810000000 1.0
C      1  0.4548310000000  0.5291800000000  0.5355410000000 1.0
C      1  0.5464430000000  0.5284040000000  0.4628410000000 1.0
C      1  0.5016320000000  0.4439280000000  0.4745160000000 1.0
C      1  0.4523050000000  0.5307040000000  0.4729370000000 1.0
C      1  0.5139070000000  0.5201630000000  0.4843490000000 1.0
C      1  0.5108310000000  0.4805180000000  0.4875860000000 1.0
C      1  0.4781640000000  0.5027710000000  0.4837130000000 1.0
C      1  0.5191620000000  0.5216260000000  0.5159240000000 1.0
C      1  0.5100280000000  0.4827710000000  0.5134320000000 1.0
C      1  0.4765010000000  0.5044630000000  0.5136630000000 1.0
C      1  0.5170640000000  0.5030020000000  0.4243990000000 1.0
C      1  0.4938800000000  0.4773530000000  0.4277950000000 1.0
C      1  0.4834940000000  0.5098870000000  0.4217860000000 1.0
C      1  0.5169030000000  0.5036050000000  0.5795920000000 1.0
C      1  0.4942660000000  0.4774230000000  0.5800300000000 1.0
C      1  0.4830040000000  0.5099890000000  0.5819770000000 1.0
C      1  0.4335800000000  0.4834650000000  0.5293920000000 1.0
C      1  0.5162740000000  0.5660540000000  0.5345490000000 1.0
C      1  0.5500830000000  0.4520280000000  0.5299360000000 1.0
C      1  0.4327980000000  0.4827990000000  0.4733210000000 1.0
C      1  0.5173210000000  0.5679910000000  0.4669020000000 1.0
C      1  0.5514600000000  0.4516310000000  0.4744540000000 1.0
C      1  0.5017120000000  0.5282550000000  0.5617630000000 1.0
C      1  0.5207190000000  0.4775700000000  0.5587520000000 1.0
C      1  0.4714750000000  0.4885540000000  0.5582340000000 1.0
C      1  0.5030010000000  0.5293960000000  0.4405800000000 1.0
C      1  0.5225700000000  0.4775760000000  0.4456770000000 1.0
C      1  0.4694530000000  0.4912390000000  0.4465060000000 1.0
C      1  0.4897200000000  0.5312090000000  0.5299820000000 1.0
C      1  0.5334800000000  0.4961060000000  0.5332430000000 1.0
C      1  0.4808580000000  0.4742780000000  0.5287020000000 1.0
C      1  0.4861230000000  0.5328250000000  0.4699470000000 1.0
C      1  0.5349300000000  0.4973140000000  0.4704630000000 1.0
C      1  0.4823320000000  0.4717310000000  0.4712270000000 1.0
C      1  0.5255090000000  0.5442380000000  0.5501850000000 1.0
C      1  0.5242840000000  0.4518010000000  0.5420170000000 1.0
C      1  0.4472520000000  0.5030600000000  0.5454930000000 1.0
C      1  0.5269230000000  0.5458740000000  0.4512620000000 1.0
C      1  0.5262370000000  0.4507190000000  0.4610160000000 1.0
C      1  0.4452140000000  0.5051790000000  0.4600030000000 1.0
C      1  0.5449300000000  0.5294660000000  0.4951650000000 1.0
C      1  0.4997410000000  0.4339440000000  0.5014620000000 1.0
C      1  0.4557440000000  0.5293090000000  0.5032530000000 1.0
END
