TITL C-2622959-7779-12 0.0012775483797265 125000 -524.202176128212 0 0 103 (C1) n - 1
REM
REM in /nfs/bkarasulu/CARBON/AIRSS/Generating-Clusters/AIREBO/with-SteepDescent/Higher-Symm/SD-CG/HFTN-CG
REM
REM
REM
REM
REM
REM ./C.cell (b20cbc046b6831c77cfcea5457e17084)
REM
REM compiler GCC version 9.2.1 20190827 (Red Hat 9.2.1-1)
REM options -cpp -mtune=generic -march=x86-64 -g -O0 -fpre-include=/usr/include/finclude/math-vector-fortran.h
REM seed 6640068 -1895029741 773290923 -2118199109 -869000617 2018986341 2060509147 989330641 -624132020 -56268473 7442250 -1649128681 1019179545 -1349592323 1601359367 1545985010 -661092226 -838426055 845364506 663021845 -262579318 -1222030460 -1096821524 349414863 133678063 -2077819801 -89919712 -549971582 788344677 -1041351969 -120547242 227006838 -1069585771
REM
CELL 1.54180   50.00000   50.00000   50.00000   90.00000   90.00000   90.00000
LATT -1
SFAC C  
C      1  0.4577000000000  0.4730580000000  0.5375760000000 1.0
C      1  0.4375400000000  0.5338570000000  0.4767710000000 1.0
C      1  0.4833310000000  0.4673910000000  0.4268870000000 1.0
C      1  0.5422500000000  0.5345520000000  0.4645820000000 1.0
C      1  0.5436350000000  0.4697120000000  0.5131970000000 1.0
C      1  0.5103880000000  0.5401180000000  0.5621910000000 1.0
C      1  0.4420270000000  0.5100010000000  0.5698610000000 1.0
C      1  0.4152860000000  0.4941400000000  0.4944340000000 1.0
C      1  0.4653890000000  0.5141490000000  0.4116830000000 1.0
C      1  0.5604920000000  0.4920230000000  0.4376370000000 1.0
C      1  0.5828770000000  0.5059280000000  0.5183400000000 1.0
C      1  0.5241490000000  0.4944230000000  0.5847410000000 1.0
C      1  0.4915190000000  0.5164320000000  0.5776540000000 1.0
C      1  0.4414700000000  0.4882760000000  0.5136380000000 1.0
C      1  0.4367990000000  0.5126170000000  0.4526550000000 1.0
C      1  0.5148150000000  0.4779470000000  0.4273830000000 1.0
C      1  0.5698000000000  0.5151910000000  0.4697180000000 1.0
C      1  0.5501900000000  0.4811780000000  0.5424620000000 1.0
C      1  0.4469480000000  0.5289550000000  0.4284820000000 1.0
C      1  0.5468070000000  0.4647820000000  0.4326660000000 1.0
C      1  0.5826350000000  0.5269000000000  0.4957650000000 1.0
C      1  0.5397660000000  0.4744080000000  0.5728140000000 1.0
C      1  0.4633370000000  0.5306710000000  0.5725380000000 1.0
C      1  0.4206990000000  0.4617620000000  0.4888810000000 1.0
C      1  0.4722720000000  0.4123280000000  0.4940870000000 1.0
C      1  0.5021690000000  0.5743100000000  0.4714460000000 1.0
C      1  0.5261390000000  0.4228420000000  0.4754490000000 1.0
C      1  0.5241590000000  0.5775800000000  0.5219070000000 1.0
C      1  0.5111000000000  0.4185400000000  0.5385990000000 1.0
C      1  0.4683830000000  0.5795880000000  0.5166890000000 1.0
C      1  0.4808370000000  0.4652220000000  0.5690720000000 1.0
C      1  0.4303260000000  0.5345050000000  0.5270810000000 1.0
C      1  0.4526390000000  0.4626640000000  0.4573470000000 1.0
C      1  0.5207530000000  0.5356280000000  0.4268200000000 1.0
C      1  0.5666880000000  0.4638550000000  0.4812960000000 1.0
C      1  0.5511060000000  0.5322880000000  0.5530110000000 1.0
C      1  0.5502160000000  0.4422970000000  0.4607860000000 1.0
C      1  0.5490510000000  0.5615010000000  0.5388190000000 1.0
C      1  0.5035720000000  0.4402850000000  0.5647260000000 1.0
C      1  0.4399070000000  0.5658500000000  0.5296140000000 1.0
C      1  0.4526540000000  0.4342170000000  0.4760940000000 1.0
C      1  0.5112260000000  0.5631340000000  0.4423160000000 1.0
C      1  0.5163630000000  0.4794680000000  0.4998740000000 1.0
C      1  0.5100760000000  0.5234190000000  0.5330380000000 1.0
C      1  0.4809590000000  0.4804530000000  0.5179940000000 1.0
C      1  0.4678380000000  0.5280070000000  0.4870880000000 1.0
C      1  0.4904120000000  0.4775700000000  0.4585540000000 1.0
C      1  0.5158000000000  0.5215990000000  0.4815770000000 1.0
C      1  0.4504780000000  0.5616550000000  0.4670940000000 1.0
C      1  0.4774630000000  0.4413420000000  0.4479320000000 1.0
C      1  0.5495160000000  0.5620710000000  0.4781020000000 1.0
C      1  0.5569840000000  0.4402170000000  0.5037410000000 1.0
C      1  0.4960500000000  0.5668990000000  0.5598500000000 1.0
C      1  0.4649110000000  0.4421610000000  0.5497990000000 1.0
C      1  0.5547430000000  0.4377930000000  0.5352200000000 1.0
C      1  0.4688900000000  0.5644460000000  0.5725210000000 1.0
C      1  0.4426780000000  0.4374430000000  0.5281340000000 1.0
C      1  0.4595640000000  0.5524420000000  0.4405560000000 1.0
C      1  0.5033060000000  0.4308480000000  0.4307670000000 1.0
C      1  0.5766940000000  0.5606410000000  0.4913880000000 1.0
C      1  0.5198450000000  0.4524390000000  0.4493260000000 1.0
C      1  0.5569200000000  0.5421550000000  0.5119740000000 1.0
C      1  0.5281670000000  0.4553270000000  0.5471560000000 1.0
C      1  0.4652700000000  0.5476880000000  0.5431430000000 1.0
C      1  0.4514210000000  0.4565180000000  0.5017310000000 1.0
C      1  0.4865400000000  0.5455350000000  0.4449590000000 1.0
C      1  0.4771970000000  0.5162680000000  0.5379960000000 1.0
C      1  0.4728770000000  0.4788480000000  0.4876640000000 1.0
C      1  0.4882700000000  0.5173090000000  0.4620640000000 1.0
C      1  0.5202700000000  0.4805190000000  0.4685140000000 1.0
C      1  0.5425570000000  0.5133840000000  0.5009020000000 1.0
C      1  0.5113270000000  0.4814890000000  0.5334400000000 1.0
C      1  0.4968680000000  0.5811670000000  0.5352170000000 1.0
C      1  0.4787150000000  0.4201120000000  0.5276930000000 1.0
C      1  0.4704860000000  0.5758250000000  0.4829180000000 1.0
C      1  0.4927380000000  0.4171840000000  0.4668180000000 1.0
C      1  0.5287720000000  0.5783310000000  0.4889550000000 1.0
C      1  0.5301350000000  0.4200670000000  0.5091820000000 1.0
C      1  0.4249930000000  0.4825390000000  0.4632370000000 1.0
C      1  0.4924100000000  0.5230770000000  0.4124660000000 1.0
C      1  0.5815380000000  0.4852080000000  0.4587940000000 1.0
C      1  0.5784560000000  0.5161080000000  0.5432950000000 1.0
C      1  0.4957480000000  0.4852210000000  0.5922050000000 1.0
C      1  0.4217150000000  0.5196260000000  0.5537950000000 1.0
C      1  0.4625860000000  0.4951660000000  0.4591280000000 1.0
C      1  0.5077930000000  0.5060930000000  0.4365760000000 1.0
C      1  0.5470180000000  0.4913220000000  0.4774160000000 1.0
C      1  0.5406530000000  0.5085500000000  0.5328270000000 1.0
C      1  0.4925380000000  0.4932350000000  0.5537450000000 1.0
C      1  0.4549490000000  0.5157930000000  0.5156830000000 1.0
C      1  0.4516080000000  0.4832940000000  0.5682750000000 1.0
C      1  0.4194380000000  0.5246540000000  0.4987220000000 1.0
C      1  0.4642700000000  0.4854040000000  0.4095740000000 1.0
C      1  0.5472400000000  0.5167480000000  0.4367850000000 1.0
C      1  0.5757610000000  0.4803500000000  0.5098950000000 1.0
C      1  0.5317800000000  0.5210980000000  0.5786910000000 1.0
C      1  0.5030600000000  0.4460810000000  0.4782140000000 1.0
C      1  0.5231850000000  0.5463740000000  0.5125520000000 1.0
C      1  0.5117820000000  0.4449460000000  0.5192180000000 1.0
C      1  0.4771860000000  0.5485350000000  0.5112910000000 1.0
C      1  0.4827440000000  0.4433650000000  0.5032160000000 1.0
C      1  0.5009970000000  0.5498550000000  0.4913210000000 1.0
C      1  0.4986020000000  0.5067860000000  0.5056920000000 1.0
END
