TITL C-2622967-6265-767 -0.00312497692247845 125000 -464.44903066146 0 0 80 (C1) n - 1
REM
REM in /nfs/bkarasulu/CARBON/AIRSS/Generating-Clusters/AIREBO/with-SteepDescent/Higher-Symm/SD-CG/HFTN-CG
REM
REM
REM
REM
REM
REM ./C.cell (b20cbc046b6831c77cfcea5457e17084)
REM
REM compiler GCC version 9.2.1 20190827 (Red Hat 9.2.1-1)
REM options -cpp -mtune=generic -march=x86-64 -g -O0 -fpre-include=/usr/include/finclude/math-vector-fortran.h
REM seed 296231839 -258150721 294665923 -1081799107 -422506828 -318609148 1971396365 -791290672 -987916847 2114077356 -1680008673 377128791 1096774416 738526569 908020526 591992863 1638894568 -449470074 420812546 181691117 1450786929 1725227312 530601389 -400956181 -1035725539 -368790128 -1837394056 1033720653 2085586791 -1264105559 -1034445337 772868041 1405987045
REM
CELL 1.54180   50.00000   50.00000   50.00000   90.00000   90.00000   90.00000
LATT -1
SFAC C  
C      1  0.4592950000000  0.5202870000000  0.4854010000000 1.0
C      1  0.4630830000000  0.4777140000000  0.5184910000000 1.0
C      1  0.4649990000000  0.4709590000000  0.4694360000000 1.0
C      1  0.4631990000000  0.5099400000000  0.5120890000000 1.0
C      1  0.4346110000000  0.5426330000000  0.4844640000000 1.0
C      1  0.4356850000000  0.4603360000000  0.5171630000000 1.0
C      1  0.4376330000000  0.4574130000000  0.4843890000000 1.0
C      1  0.4371850000000  0.5395360000000  0.5182970000000 1.0
C      1  0.5664660000000  0.5298680000000  0.4719670000000 1.0
C      1  0.5620010000000  0.4648830000000  0.5282380000000 1.0
C      1  0.5626660000000  0.4636220000000  0.4681060000000 1.0
C      1  0.5559070000000  0.5235300000000  0.5286250000000 1.0
C      1  0.5144600000000  0.4506550000000  0.5243060000000 1.0
C      1  0.5227340000000  0.5485350000000  0.4700770000000 1.0
C      1  0.5242550000000  0.5591800000000  0.5279470000000 1.0
C      1  0.5157030000000  0.4585280000000  0.4742190000000 1.0
C      1  0.4586400000000  0.4389820000000  0.5272660000000 1.0
C      1  0.4532830000000  0.5470160000000  0.4563680000000 1.0
C      1  0.4523820000000  0.5462320000000  0.5443710000000 1.0
C      1  0.4584370000000  0.4322810000000  0.4741730000000 1.0
C      1  0.4340010000000  0.4818030000000  0.4606310000000 1.0
C      1  0.4347560000000  0.5108130000000  0.5295500000000 1.0
C      1  0.4310240000000  0.5112410000000  0.4709600000000 1.0
C      1  0.4313600000000  0.4837100000000  0.5415320000000 1.0
C      1  0.4742760000000  0.5742350000000  0.5130260000000 1.0
C      1  0.4971290000000  0.4069480000000  0.4920940000000 1.0
C      1  0.5018360000000  0.4200420000000  0.5164770000000 1.0
C      1  0.4754780000000  0.5817290000000  0.4841460000000 1.0
C      1  0.5578350000000  0.5238830000000  0.5602010000000 1.0
C      1  0.5546170000000  0.4699780000000  0.4415390000000 1.0
C      1  0.5545580000000  0.4707830000000  0.5554580000000 1.0
C      1  0.5591190000000  0.5246340000000  0.4449090000000 1.0
C      1  0.4860290000000  0.4902400000000  0.5377730000000 1.0
C      1  0.4862760000000  0.5287020000000  0.4733270000000 1.0
C      1  0.4927690000000  0.5199010000000  0.5226630000000 1.0
C      1  0.4821920000000  0.4966500000000  0.4628620000000 1.0
C      1  0.5350230000000  0.5130870000000  0.5710150000000 1.0
C      1  0.5333580000000  0.4855840000000  0.4301530000000 1.0
C      1  0.5338900000000  0.4849140000000  0.5703830000000 1.0
C      1  0.5362620000000  0.5134400000000  0.4324140000000 1.0
C      1  0.5467150000000  0.5488730000000  0.5144020000000 1.0
C      1  0.5428790000000  0.4523020000000  0.4843990000000 1.0
C      1  0.5437030000000  0.4504090000000  0.5124160000000 1.0
C      1  0.5486270000000  0.5473140000000  0.4860830000000 1.0
C      1  0.4975510000000  0.4230950000000  0.4458200000000 1.0
C      1  0.5083810000000  0.5793170000000  0.5745380000000 1.0
C      1  0.5120700000000  0.5828290000000  0.4276910000000 1.0
C      1  0.4915110000000  0.4261570000000  0.5613340000000 1.0
C      1  0.5803880000000  0.4805970000000  0.5134730000000 1.0
C      1  0.5797530000000  0.5096770000000  0.4862240000000 1.0
C      1  0.5790410000000  0.5108980000000  0.5162740000000 1.0
C      1  0.5820340000000  0.4789360000000  0.4816350000000 1.0
C      1  0.4569130000000  0.4975580000000  0.4410190000000 1.0
C      1  0.4595600000000  0.5259470000000  0.5633730000000 1.0
C      1  0.4587960000000  0.5280660000000  0.4368040000000 1.0
C      1  0.4591950000000  0.4954330000000  0.5571750000000 1.0
C      1  0.5168690000000  0.5151550000000  0.4672720000000 1.0
C      1  0.5117320000000  0.4838950000000  0.5175620000000 1.0
C      1  0.5070640000000  0.4877420000000  0.4848410000000 1.0
C      1  0.5242270000000  0.5118340000000  0.5326280000000 1.0
C      1  0.5020620000000  0.5618910000000  0.5535830000000 1.0
C      1  0.5077640000000  0.4493310000000  0.4459250000000 1.0
C      1  0.5095960000000  0.4476360000000  0.5568200000000 1.0
C      1  0.5013920000000  0.5614360000000  0.4463930000000 1.0
C      1  0.4794410000000  0.4200870000000  0.5360750000000 1.0
C      1  0.4724140000000  0.5674790000000  0.4574950000000 1.0
C      1  0.4726170000000  0.5661460000000  0.5411900000000 1.0
C      1  0.4825900000000  0.4142260000000  0.4685670000000 1.0
C      1  0.5090750000000  0.4713130000000  0.5715130000000 1.0
C      1  0.5101300000000  0.5298400000000  0.4373490000000 1.0
C      1  0.5102720000000  0.5292390000000  0.5583640000000 1.0
C      1  0.5078180000000  0.4718980000000  0.4287700000000 1.0
C      1  0.4980740000000  0.5485680000000  0.5161680000000 1.0
C      1  0.4852110000000  0.4513720000000  0.4828490000000 1.0
C      1  0.4837340000000  0.4553110000000  0.5117570000000 1.0
C      1  0.4965750000000  0.5551640000000  0.4864800000000 1.0
C      1  0.4828270000000  0.4811650000000  0.5764660000000 1.0
C      1  0.4818060000000  0.5335900000000  0.4224540000000 1.0
C      1  0.4835000000000  0.5313370000000  0.5761710000000 1.0
C      1  0.4816810000000  0.4824830000000  0.4241420000000 1.0
END
