TITL C-2622965-4321-54 -0.000422057487174197 125000 -973.537570917386 0 0 157 (C1) n - 1
REM
REM in /nfs/bkarasulu/CARBON/AIRSS/Generating-Clusters/AIREBO/with-SteepDescent/Higher-Symm/SD-CG/HFTN-CG
REM
REM
REM
REM
REM
REM ./C.cell (b20cbc046b6831c77cfcea5457e17084)
REM
REM compiler GCC version 9.2.1 20190827 (Red Hat 9.2.1-1)
REM options -cpp -mtune=generic -march=x86-64 -g -O0 -fpre-include=/usr/include/finclude/math-vector-fortran.h
REM seed 1336965324 947555341 -1124950885 -842096452 941056322 -1420511993 -1249350040 -1915713042 -329852805 -1404047990 839275324 869040064 -1515349538 1194789699 -1437716444 -580594939 -1148530134 -61394710 664329974 1589069679 1247646108 853176582 1252187620 1715774059 773954395 -1289281013 -974927247 1039963157 -1588904297 1436464229 734517637 529712878 -1038227454
REM
CELL 1.54180   50.00000   50.00000   50.00000   90.00000   90.00000   90.00000
LATT -1
SFAC C  
C      1  0.4222930000000  0.4681000000000  0.5522360000000 1.0
C      1  0.4735880000000  0.5458790000000  0.4323580000000 1.0
C      1  0.5563720000000  0.4265460000000  0.4656640000000 1.0
C      1  0.5665470000000  0.4755400000000  0.4524070000000 1.0
C      1  0.5677370000000  0.5274900000000  0.5488980000000 1.0
C      1  0.4289630000000  0.5256380000000  0.4536810000000 1.0
C      1  0.5338640000000  0.5581960000000  0.5780360000000 1.0
C      1  0.5284220000000  0.4462560000000  0.4276110000000 1.0
C      1  0.4724040000000  0.4526710000000  0.5671930000000 1.0
C      1  0.4506750000000  0.4293630000000  0.5251940000000 1.0
C      1  0.4418610000000  0.5763480000000  0.4673970000000 1.0
C      1  0.5475860000000  0.5711270000000  0.5257660000000 1.0
C      1  0.5432240000000  0.4734330000000  0.4289590000000 1.0
C      1  0.4297990000000  0.5475020000000  0.4744540000000 1.0
C      1  0.4709410000000  0.4274720000000  0.5464940000000 1.0
C      1  0.4483650000000  0.4720750000000  0.5696750000000 1.0
C      1  0.5498400000000  0.5322220000000  0.5757220000000 1.0
C      1  0.4543090000000  0.5233310000000  0.4331800000000 1.0
C      1  0.5728010000000  0.5535590000000  0.5332670000000 1.0
C      1  0.4285980000000  0.4550720000000  0.5248520000000 1.0
C      1  0.5669010000000  0.4550690000000  0.4735220000000 1.0
C      1  0.5353730000000  0.4231650000000  0.4477140000000 1.0
C      1  0.4667320000000  0.5753410000000  0.4479020000000 1.0
C      1  0.5292160000000  0.5768410000000  0.5510300000000 1.0
C      1  0.5155050000000  0.5511810000000  0.5377980000000 1.0
C      1  0.5641520000000  0.5345160000000  0.4953270000000 1.0
C      1  0.5313900000000  0.5124000000000  0.5564240000000 1.0
C      1  0.4876510000000  0.5586720000000  0.4665830000000 1.0
C      1  0.5005470000000  0.4421930000000  0.5411320000000 1.0
C      1  0.4915430000000  0.4464210000000  0.4633470000000 1.0
C      1  0.4521840000000  0.5434870000000  0.4976080000000 1.0
C      1  0.4482140000000  0.4771430000000  0.5116170000000 1.0
C      1  0.5480670000000  0.4607260000000  0.4979100000000 1.0
C      1  0.4633940000000  0.4920220000000  0.4425250000000 1.0
C      1  0.4689070000000  0.4887500000000  0.5503350000000 1.0
C      1  0.5297100000000  0.4906910000000  0.4531730000000 1.0
C      1  0.5352990000000  0.5431010000000  0.5109150000000 1.0
C      1  0.5029070000000  0.5316450000000  0.5600080000000 1.0
C      1  0.5576710000000  0.4948690000000  0.5430700000000 1.0
C      1  0.4780800000000  0.5612090000000  0.4945970000000 1.0
C      1  0.5336020000000  0.4363770000000  0.5072580000000 1.0
C      1  0.4556660000000  0.4472920000000  0.4967400000000 1.0
C      1  0.5045310000000  0.5404770000000  0.4469380000000 1.0
C      1  0.5090210000000  0.4641230000000  0.4472850000000 1.0
C      1  0.4975970000000  0.4705160000000  0.5529360000000 1.0
C      1  0.4478160000000  0.5050410000000  0.4679360000000 1.0
C      1  0.5553330000000  0.5043060000000  0.4648650000000 1.0
C      1  0.4503940000000  0.5036450000000  0.5295520000000 1.0
C      1  0.4993060000000  0.6017870000000  0.4792760000000 1.0
C      1  0.6002940000000  0.4853240000000  0.4985070000000 1.0
C      1  0.4798110000000  0.4976540000000  0.6006290000000 1.0
C      1  0.5012950000000  0.6032790000000  0.5190060000000 1.0
C      1  0.5069450000000  0.3979360000000  0.4808680000000 1.0
C      1  0.5011760000000  0.3967580000000  0.5199910000000 1.0
C      1  0.3936990000000  0.4789550000000  0.5000690000000 1.0
C      1  0.3956200000000  0.5186490000000  0.4998120000000 1.0
C      1  0.5949190000000  0.5248470000000  0.4991190000000 1.0
C      1  0.5170800000000  0.4967340000000  0.3948040000000 1.0
C      1  0.5195610000000  0.4987360000000  0.5996850000000 1.0
C      1  0.4773110000000  0.4987610000000  0.3956910000000 1.0
C      1  0.4758840000000  0.5921170000000  0.5000990000000 1.0
C      1  0.4994420000000  0.4741440000000  0.6033610000000 1.0
C      1  0.6017020000000  0.5031010000000  0.4735660000000 1.0
C      1  0.5240130000000  0.6056110000000  0.4986770000000 1.0
C      1  0.4792000000000  0.3962350000000  0.4974610000000 1.0
C      1  0.5295700000000  0.4048390000000  0.5028960000000 1.0
C      1  0.4979800000000  0.4721310000000  0.3946130000000 1.0
C      1  0.4989980000000  0.5220930000000  0.3958840000000 1.0
C      1  0.4999150000000  0.5229600000000  0.5927450000000 1.0
C      1  0.3927100000000  0.4979710000000  0.5249900000000 1.0
C      1  0.6028270000000  0.5031630000000  0.5234760000000 1.0
C      1  0.3931910000000  0.4993910000000  0.4751290000000 1.0
C      1  0.5486990000000  0.5942730000000  0.5060260000000 1.0
C      1  0.5941380000000  0.5096980000000  0.5491620000000 1.0
C      1  0.5096780000000  0.5539000000000  0.5925270000000 1.0
C      1  0.4461650000000  0.5922550000000  0.4912000000000 1.0
C      1  0.4533390000000  0.4073640000000  0.5017940000000 1.0
C      1  0.5578780000000  0.4091380000000  0.4879400000000 1.0
C      1  0.4043710000000  0.5077800000000  0.4505350000000 1.0
C      1  0.4057610000000  0.4914440000000  0.5498820000000 1.0
C      1  0.5907940000000  0.4958080000000  0.4485890000000 1.0
C      1  0.4942310000000  0.5466550000000  0.4082220000000 1.0
C      1  0.4912730000000  0.4494430000000  0.5920240000000 1.0
C      1  0.5047150000000  0.4475940000000  0.4071230000000 1.0
C      1  0.5078450000000  0.5983570000000  0.5460430000000 1.0
C      1  0.5457680000000  0.5046930000000  0.5929010000000 1.0
C      1  0.5934340000000  0.5546330000000  0.5132160000000 1.0
C      1  0.4937620000000  0.5953800000000  0.4525520000000 1.0
C      1  0.5129830000000  0.4066670000000  0.4545700000000 1.0
C      1  0.4927240000000  0.4034460000000  0.5462130000000 1.0
C      1  0.4513660000000  0.5054920000000  0.4068530000000 1.0
C      1  0.5429940000000  0.4924860000000  0.4054150000000 1.0
C      1  0.4531900000000  0.4930100000000  0.5926950000000 1.0
C      1  0.4059730000000  0.5444080000000  0.4948600000000 1.0
C      1  0.5899020000000  0.4591150000000  0.4955810000000 1.0
C      1  0.4052930000000  0.4535000000000  0.5048660000000 1.0
C      1  0.5274730000000  0.4335720000000  0.5536380000000 1.0
C      1  0.4362060000000  0.5503100000000  0.5235380000000 1.0
C      1  0.5507650000000  0.5341820000000  0.4257810000000 1.0
C      1  0.4677470000000  0.4288330000000  0.4518920000000 1.0
C      1  0.4645700000000  0.5786360000000  0.5557010000000 1.0
C      1  0.5407420000000  0.5802670000000  0.4455320000000 1.0
C      1  0.5643940000000  0.5490450000000  0.4692100000000 1.0
C      1  0.5717690000000  0.4433320000000  0.5370030000000 1.0
C      1  0.4178930000000  0.4463490000000  0.4578410000000 1.0
C      1  0.4497140000000  0.5346810000000  0.5696860000000 1.0
C      1  0.4486250000000  0.4680870000000  0.4311250000000 1.0
C      1  0.5566970000000  0.4568270000000  0.5840420000000 1.0
C      1  0.5466640000000  0.4323270000000  0.5345020000000 1.0
C      1  0.5274420000000  0.5529100000000  0.4300460000000 1.0
C      1  0.4366510000000  0.5275710000000  0.5419200000000 1.0
C      1  0.4456900000000  0.4324960000000  0.4716770000000 1.0
C      1  0.5599290000000  0.5757350000000  0.4647570000000 1.0
C      1  0.4451590000000  0.5787410000000  0.5377080000000 1.0
C      1  0.4747500000000  0.5496000000000  0.5667350000000 1.0
C      1  0.5362100000000  0.4388490000000  0.5811570000000 1.0
C      1  0.4603970000000  0.4446880000000  0.4253390000000 1.0
C      1  0.5606720000000  0.5298470000000  0.4511490000000 1.0
C      1  0.4216420000000  0.4658340000000  0.4389300000000 1.0
C      1  0.5709220000000  0.4662820000000  0.5553720000000 1.0
C      1  0.4291890000000  0.5882180000000  0.5136320000000 1.0
C      1  0.5877390000000  0.5055780000000  0.4211350000000 1.0
C      1  0.5097570000000  0.4280860000000  0.5890370000000 1.0
C      1  0.5693590000000  0.5903020000000  0.4872080000000 1.0
C      1  0.5819410000000  0.4121720000000  0.5030880000000 1.0
C      1  0.4261200000000  0.4085710000000  0.4874470000000 1.0
C      1  0.4167860000000  0.5137440000000  0.5634620000000 1.0
C      1  0.4087130000000  0.4892380000000  0.4294250000000 1.0
C      1  0.5895660000000  0.4901030000000  0.5686380000000 1.0
C      1  0.4843190000000  0.4305050000000  0.4156670000000 1.0
C      1  0.4888390000000  0.5734000000000  0.5865130000000 1.0
C      1  0.5096090000000  0.5726170000000  0.4088390000000 1.0
C      1  0.5145400000000  0.5903560000000  0.4341040000000 1.0
C      1  0.4366490000000  0.5153560000000  0.5883850000000 1.0
C      1  0.5877470000000  0.4380220000000  0.5146520000000 1.0
C      1  0.4870520000000  0.5965240000000  0.5649590000000 1.0
C      1  0.5019990000000  0.4044160000000  0.5739510000000 1.0
C      1  0.4910300000000  0.4099080000000  0.4375990000000 1.0
C      1  0.5615490000000  0.5134810000000  0.4100090000000 1.0
C      1  0.4230180000000  0.4987940000000  0.4056230000000 1.0
C      1  0.5660870000000  0.4856670000000  0.5896760000000 1.0
C      1  0.4080330000000  0.4345100000000  0.4841590000000 1.0
C      1  0.5936480000000  0.5792620000000  0.4985800000000 1.0
C      1  0.4068270000000  0.5673650000000  0.5128670000000 1.0
C      1  0.5193380000000  0.4870940000000  0.5374620000000 1.0
C      1  0.4959870000000  0.5487350000000  0.5141040000000 1.0
C      1  0.5444090000000  0.5080990000000  0.4947000000000 1.0
C      1  0.4917390000000  0.4908230000000  0.4488940000000 1.0
C      1  0.4940790000000  0.5075490000000  0.5393110000000 1.0
C      1  0.5090690000000  0.5153070000000  0.4624650000000 1.0
C      1  0.5160230000000  0.5220310000000  0.4923420000000 1.0
C      1  0.5048250000000  0.4456270000000  0.5112670000000 1.0
C      1  0.4856500000000  0.4560810000000  0.4913780000000 1.0
C      1  0.4634480000000  0.5127140000000  0.5018030000000 1.0
C      1  0.4673010000000  0.4835560000000  0.4847190000000 1.0
C      1  0.5439660000000  0.4857760000000  0.5140580000000 1.0
C      1  0.4914380000000  0.5182230000000  0.5116380000000 1.0
END
