TITL C-2622963-3633-760 -0.00076099378246833 125000 -396.712003205632 0 0 70 (C1) n - 1
REM
REM in /nfs/bkarasulu/CARBON/AIRSS/Generating-Clusters/AIREBO/with-SteepDescent/Higher-Symm/SD-CG/HFTN-CG
REM
REM
REM
REM
REM
REM ./C.cell (b20cbc046b6831c77cfcea5457e17084)
REM
REM compiler GCC version 9.2.1 20190827 (Red Hat 9.2.1-1)
REM options -cpp -mtune=generic -march=x86-64 -g -O0 -fpre-include=/usr/include/finclude/math-vector-fortran.h
REM seed -1903446485 -1109992306 -1575258172 1844954189 359200281 -1207583124 1326182710 -1398422624 -1163590642 -1474904728 -1174032456 782546322 1067323813 -2112662417 -1372643352 181058779 -187941471 264079796 -1107738968 212017795 -916712587 1505747898 1508499062 -1339793963 460630426 1792453658 -239684841 1049030641 1202713311 -514031189 -1391393597 1066387764 -924981482
REM
CELL 1.54180   50.00000   50.00000   50.00000   90.00000   90.00000   90.00000
LATT -1
SFAC C  
C      1  0.4792400000000  0.5146740000000  0.5820250000000 1.0
C      1  0.5201440000000  0.5240630000000  0.4132020000000 1.0
C      1  0.5504830000000  0.5023640000000  0.4966710000000 1.0
C      1  0.4560880000000  0.5051160000000  0.5087780000000 1.0
C      1  0.4353430000000  0.4686010000000  0.4772090000000 1.0
C      1  0.5706530000000  0.4619970000000  0.4998900000000 1.0
C      1  0.4346830000000  0.4655730000000  0.5543110000000 1.0
C      1  0.5592290000000  0.4659640000000  0.4380560000000 1.0
C      1  0.4950730000000  0.4928790000000  0.5730860000000 1.0
C      1  0.4993040000000  0.5078510000000  0.4063780000000 1.0
C      1  0.5059370000000  0.4470890000000  0.5416720000000 1.0
C      1  0.4893970000000  0.4484580000000  0.4668910000000 1.0
C      1  0.5577310000000  0.5104700000000  0.5502050000000 1.0
C      1  0.4330420000000  0.5128780000000  0.4606500000000 1.0
C      1  0.4500810000000  0.4432890000000  0.5578660000000 1.0
C      1  0.5399710000000  0.4461200000000  0.4396760000000 1.0
C      1  0.4776150000000  0.4934780000000  0.4135540000000 1.0
C      1  0.5479370000000  0.5013430000000  0.5767560000000 1.0
C      1  0.5225250000000  0.4821910000000  0.4582720000000 1.0
C      1  0.4817460000000  0.4783030000000  0.5475030000000 1.0
C      1  0.5542690000000  0.5444240000000  0.5171460000000 1.0
C      1  0.4459880000000  0.5495000000000  0.4875530000000 1.0
C      1  0.4530830000000  0.4938040000000  0.5522320000000 1.0
C      1  0.5453890000000  0.4962310000000  0.4425350000000 1.0
C      1  0.4002150000000  0.5481400000000  0.4698200000000 1.0
C      1  0.5981460000000  0.5320870000000  0.5344220000000 1.0
C      1  0.4661140000000  0.4477090000000  0.4916580000000 1.0
C      1  0.5408450000000  0.4530630000000  0.5110170000000 1.0
C      1  0.4772660000000  0.5651470000000  0.5482980000000 1.0
C      1  0.5223630000000  0.5649520000000  0.4531040000000 1.0
C      1  0.4729720000000  0.4791830000000  0.4946780000000 1.0
C      1  0.5267070000000  0.4829430000000  0.5112940000000 1.0
C      1  0.5145640000000  0.4925720000000  0.4821790000000 1.0
C      1  0.4936540000000  0.4818770000000  0.5192430000000 1.0
C      1  0.5748340000000  0.4899950000000  0.4565150000000 1.0
C      1  0.4274010000000  0.4895980000000  0.5318360000000 1.0
C      1  0.5160580000000  0.4555480000000  0.4527620000000 1.0
C      1  0.4771570000000  0.4470090000000  0.5509120000000 1.0
C      1  0.5007130000000  0.5651530000000  0.5325120000000 1.0
C      1  0.4968760000000  0.5632180000000  0.4701610000000 1.0
C      1  0.5515380000000  0.5342020000000  0.4847840000000 1.0
C      1  0.4474230000000  0.5367830000000  0.5169930000000 1.0
C      1  0.5204850000000  0.4691710000000  0.5513550000000 1.0
C      1  0.4630200000000  0.4677220000000  0.4574460000000 1.0
C      1  0.5410820000000  0.5430300000000  0.4536370000000 1.0
C      1  0.4590510000000  0.5434790000000  0.5452180000000 1.0
C      1  0.5708050000000  0.4852860000000  0.4867220000000 1.0
C      1  0.4339030000000  0.4801750000000  0.5021750000000 1.0
C      1  0.5298740000000  0.4996400000000  0.5393810000000 1.0
C      1  0.4603630000000  0.4986580000000  0.4697040000000 1.0
C      1  0.5784880000000  0.5217380000000  0.4682000000000 1.0
C      1  0.4202700000000  0.5196450000000  0.5249090000000 1.0
C      1  0.5699060000000  0.4355600000000  0.5160500000000 1.0
C      1  0.4517240000000  0.4277480000000  0.4992960000000 1.0
C      1  0.5235460000000  0.4869490000000  0.5767210000000 1.0
C      1  0.4643720000000  0.4738960000000  0.4266920000000 1.0
C      1  0.4586490000000  0.5221030000000  0.5629750000000 1.0
C      1  0.5385740000000  0.5233710000000  0.4343490000000 1.0
C      1  0.5714230000000  0.5289020000000  0.5340900000000 1.0
C      1  0.4248380000000  0.5376790000000  0.4721740000000 1.0
C      1  0.5126600000000  0.5241400000000  0.5325570000000 1.0
C      1  0.4783930000000  0.5225570000000  0.4671430000000 1.0
C      1  0.5020980000000  0.4313610000000  0.4934210000000 1.0
C      1  0.5149060000000  0.4386640000000  0.5161820000000 1.0
C      1  0.5288380000000  0.5492840000000  0.5297060000000 1.0
C      1  0.4708350000000  0.5500640000000  0.4723240000000 1.0
C      1  0.4957020000000  0.5503510000000  0.5076930000000 1.0
C      1  0.5196520000000  0.5446610000000  0.4872800000000 1.0
C      1  0.4851040000000  0.5202440000000  0.5131440000000 1.0
C      1  0.5016410000000  0.5180840000000  0.4851500000000 1.0
END
