TITL C-2622954-8726-688 1.88241872480118e-05 125000 -669.595633792061 0 0 125 (C1) n - 1
REM
REM in /nfs/bkarasulu/CARBON/AIRSS/Generating-Clusters/AIREBO/with-SteepDescent/Higher-Symm/SD-CG/HFTN-CG
REM
REM
REM
REM
REM
REM ./C.cell (b20cbc046b6831c77cfcea5457e17084)
REM
REM compiler GCC version 9.2.1 20190827 (Red Hat 9.2.1-1)
REM options -cpp -mtune=generic -march=x86-64 -g -O0 -fpre-include=/usr/include/finclude/math-vector-fortran.h
REM seed 1392711073 -18229553 -1203082040 -173707065 -924914253 216847486 1300900266 373263476 727331082 1769301623 -1593169691 1347857984 -368857094 740334592 123606779 84097942 2052944534 779040635 -1093675255 -2030933701 1819914972 -467907922 -845302767 -1219166293 1606004409 983927696 -1768302218 -1463925436 -620725269 -1283100262 484968883 -253079930 56933373
REM
CELL 1.54180   50.00000   50.00000   50.00000   90.00000   90.00000   90.00000
LATT -1
SFAC C  
C      1  0.4460390000000  0.4123370000000  0.5117200000000 1.0
C      1  0.5047950000000  0.4618850000000  0.4149450000000 1.0
C      1  0.4162130000000  0.5046920000000  0.4617440000000 1.0
C      1  0.5420500000000  0.4148910000000  0.4927480000000 1.0
C      1  0.4601550000000  0.5851160000000  0.4928170000000 1.0
C      1  0.5706420000000  0.5742880000000  0.5386350000000 1.0
C      1  0.4958160000000  0.4602470000000  0.5820050000000 1.0
C      1  0.5105350000000  0.5663000000000  0.5825400000000 1.0
C      1  0.4916970000000  0.5439910000000  0.4084900000000 1.0
C      1  0.5849850000000  0.5029680000000  0.5362370000000 1.0
C      1  0.4196440000000  0.4893400000000  0.5329120000000 1.0
C      1  0.5875240000000  0.4946260000000  0.4420860000000 1.0
C      1  0.4978050000000  0.3905280000000  0.5481000000000 1.0
C      1  0.5367130000000  0.5080460000000  0.4012690000000 1.0
C      1  0.4004170000000  0.5326700000000  0.4998910000000 1.0
C      1  0.5049500000000  0.4009220000000  0.4669700000000 1.0
C      1  0.5023040000000  0.5958560000000  0.4674110000000 1.0
C      1  0.5001260000000  0.6004140000000  0.5391150000000 1.0
C      1  0.4658760000000  0.5075510000000  0.5952170000000 1.0
C      1  0.5405180000000  0.4928330000000  0.5967090000000 1.0
C      1  0.4610150000000  0.4947090000000  0.3986650000000 1.0
C      1  0.5972400000000  0.5314850000000  0.4996750000000 1.0
C      1  0.4050520000000  0.4611490000000  0.4983350000000 1.0
C      1  0.5980420000000  0.4577160000000  0.5049200000000 1.0
C      1  0.4166350000000  0.5478650000000  0.5513150000000 1.0
C      1  0.5678330000000  0.4232020000000  0.5494630000000 1.0
C      1  0.5476450000000  0.5570650000000  0.4158160000000 1.0
C      1  0.5670090000000  0.5492110000000  0.4399300000000 1.0
C      1  0.4267410000000  0.4512100000000  0.4403230000000 1.0
C      1  0.5778470000000  0.4505810000000  0.5625970000000 1.0
C      1  0.4403560000000  0.4264910000000  0.4560820000000 1.0
C      1  0.5672050000000  0.5743180000000  0.4601130000000 1.0
C      1  0.4353630000000  0.5676860000000  0.5481860000000 1.0
C      1  0.4538830000000  0.5707620000000  0.5679020000000 1.0
C      1  0.5526580000000  0.4358650000000  0.5751100000000 1.0
C      1  0.4527560000000  0.4376350000000  0.4289670000000 1.0
C      1  0.4568960000000  0.4906720000000  0.4288550000000 1.0
C      1  0.4344560000000  0.4549980000000  0.4932160000000 1.0
C      1  0.4942140000000  0.4264220000000  0.4523410000000 1.0
C      1  0.5429990000000  0.4865790000000  0.5637370000000 1.0
C      1  0.4485040000000  0.5136570000000  0.5715860000000 1.0
C      1  0.5412520000000  0.5140670000000  0.4301180000000 1.0
C      1  0.5658660000000  0.4545170000000  0.5111840000000 1.0
C      1  0.4279080000000  0.5446480000000  0.5079690000000 1.0
C      1  0.5726300000000  0.5500780000000  0.4914280000000 1.0
C      1  0.5095190000000  0.4209780000000  0.5536230000000 1.0
C      1  0.4906460000000  0.5689930000000  0.5432180000000 1.0
C      1  0.5078990000000  0.5691170000000  0.4530760000000 1.0
C      1  0.5243090000000  0.4445200000000  0.5720620000000 1.0
C      1  0.5788220000000  0.5203480000000  0.4534730000000 1.0
C      1  0.4455280000000  0.5698050000000  0.5193950000000 1.0
C      1  0.4801460000000  0.4483750000000  0.4324070000000 1.0
C      1  0.5175380000000  0.5556290000000  0.4236910000000 1.0
C      1  0.4810440000000  0.5537370000000  0.5712120000000 1.0
C      1  0.4271780000000  0.5190780000000  0.5476150000000 1.0
C      1  0.5718060000000  0.4773190000000  0.5521290000000 1.0
C      1  0.4323700000000  0.4793730000000  0.4482390000000 1.0
C      1  0.5492480000000  0.5714610000000  0.4834340000000 1.0
C      1  0.4540590000000  0.4288990000000  0.4836970000000 1.0
C      1  0.5554810000000  0.4258270000000  0.5222670000000 1.0
C      1  0.4916360000000  0.5927250000000  0.4922440000000 1.0
C      1  0.4917540000000  0.4911300000000  0.5856830000000 1.0
C      1  0.5877730000000  0.4826800000000  0.4933200000000 1.0
C      1  0.5092060000000  0.5877100000000  0.5135810000000 1.0
C      1  0.4991160000000  0.4066650000000  0.5180330000000 1.0
C      1  0.5163510000000  0.4040480000000  0.4914920000000 1.0
C      1  0.5106120000000  0.4935170000000  0.4147390000000 1.0
C      1  0.4862030000000  0.5111390000000  0.4109550000000 1.0
C      1  0.5170560000000  0.5073800000000  0.5854810000000 1.0
C      1  0.4022410000000  0.4862860000000  0.5086740000000 1.0
C      1  0.5924480000000  0.5054760000000  0.5096480000000 1.0
C      1  0.4015260000000  0.5071280000000  0.4900550000000 1.0
C      1  0.5514610000000  0.4809100000000  0.5251220000000 1.0
C      1  0.5211950000000  0.5527800000000  0.4789500000000 1.0
C      1  0.4781580000000  0.5230600000000  0.5578400000000 1.0
C      1  0.4470220000000  0.4779810000000  0.4769780000000 1.0
C      1  0.5611740000000  0.5190960000000  0.4828700000000 1.0
C      1  0.4438570000000  0.5169660000000  0.5180570000000 1.0
C      1  0.4763330000000  0.5576980000000  0.5168770000000 1.0
C      1  0.5237730000000  0.4289270000000  0.5252810000000 1.0
C      1  0.4857940000000  0.4412510000000  0.4820980000000 1.0
C      1  0.5182520000000  0.5313060000000  0.4454230000000 1.0
C      1  0.4838800000000  0.4802760000000  0.4436430000000 1.0
C      1  0.5189860000000  0.4709350000000  0.5513180000000 1.0
C      1  0.5038320000000  0.5201480000000  0.5357200000000 1.0
C      1  0.5300500000000  0.5065780000000  0.5188350000000 1.0
C      1  0.5127910000000  0.5324180000000  0.5050040000000 1.0
C      1  0.4920650000000  0.5307560000000  0.4603680000000 1.0
C      1  0.5038730000000  0.4933730000000  0.4679410000000 1.0
C      1  0.4911490000000  0.4752040000000  0.5322110000000 1.0
C      1  0.4561950000000  0.5068710000000  0.4815170000000 1.0
C      1  0.5353520000000  0.4970820000000  0.4804330000000 1.0
C      1  0.4732490000000  0.4998660000000  0.5167540000000 1.0
C      1  0.4797980000000  0.5471310000000  0.4882580000000 1.0
C      1  0.5236500000000  0.4711070000000  0.4947120000000 1.0
C      1  0.4883520000000  0.4507240000000  0.5138560000000 1.0
C      1  0.4718740000000  0.5269610000000  0.4360810000000 1.0
C      1  0.4506450000000  0.4763110000000  0.5263670000000 1.0
C      1  0.5188600000000  0.4466310000000  0.4762470000000 1.0
C      1  0.5259910000000  0.5226000000000  0.5603330000000 1.0
C      1  0.4755830000000  0.4889120000000  0.5561320000000 1.0
C      1  0.5236090000000  0.4811080000000  0.4436340000000 1.0
C      1  0.5623090000000  0.4767430000000  0.4764360000000 1.0
C      1  0.4367300000000  0.5297140000000  0.4721830000000 1.0
C      1  0.5571820000000  0.5234630000000  0.5163600000000 1.0
C      1  0.4762830000000  0.4273430000000  0.5324640000000 1.0
C      1  0.5235340000000  0.5594960000000  0.5225640000000 1.0
C      1  0.4698360000000  0.5681110000000  0.4648230000000 1.0
C      1  0.4798510000000  0.5600130000000  0.4361280000000 1.0
C      1  0.4420500000000  0.4835550000000  0.5578240000000 1.0
C      1  0.5519680000000  0.4452800000000  0.4839250000000 1.0
C      1  0.5174120000000  0.5524660000000  0.5546560000000 1.0
C      1  0.4867060000000  0.4446170000000  0.5591830000000 1.0
C      1  0.5182380000000  0.4488150000000  0.4435340000000 1.0
C      1  0.5545090000000  0.4894010000000  0.4463720000000 1.0
C      1  0.4426020000000  0.5175660000000  0.4428060000000 1.0
C      1  0.5553260000000  0.5134820000000  0.5488100000000 1.0
C      1  0.4496830000000  0.4442020000000  0.5203210000000 1.0
C      1  0.5549740000000  0.5564960000000  0.5197700000000 1.0
C      1  0.4421700000000  0.5587030000000  0.4811780000000 1.0
C      1  0.5444040000000  0.5384280000000  0.4616530000000 1.0
C      1  0.4619600000000  0.5363640000000  0.5338710000000 1.0
C      1  0.5264040000000  0.4593390000000  0.5226300000000 1.0
C      1  0.4739440000000  0.4670520000000  0.4693700000000 1.0
C      1  0.4883290000000  0.5142380000000  0.4898610000000 1.0
END
