TITL C-2622957-9142-52 0.00177117760934242 125000 -683.086089285856 0 0 116 (C1) n - 1
REM
REM in /nfs/bkarasulu/CARBON/AIRSS/Generating-Clusters/AIREBO/with-SteepDescent/Higher-Symm/SD-CG/HFTN-CG
REM
REM
REM
REM
REM
REM ./C.cell (b20cbc046b6831c77cfcea5457e17084)
REM
REM compiler GCC version 9.2.1 20190827 (Red Hat 9.2.1-1)
REM options -cpp -mtune=generic -march=x86-64 -g -O0 -fpre-include=/usr/include/finclude/math-vector-fortran.h
REM seed -1282584657 -1462259703 -277483116 1123722548 -1991306170 -253476447 -1795750242 -1199515786 -720582217 887267498 416482938 1431929069 -1542717728 -455306212 115639115 1157609992 330429400 1216757576 -82414236 -2098317411 -234256795 -814256216 1070985673 -1151501414 -227633425 2002258165 -1554877086 -468733475 -1234959959 -1767495573 428939059 1506755147 -1428093236
REM
CELL 1.54180   50.00000   50.00000   50.00000   90.00000   90.00000   90.00000
LATT -1
SFAC C  
C      1  0.5358250000000  0.5140570000000  0.4858420000000 1.0
C      1  0.4681220000000  0.5228020000000  0.4834780000000 1.0
C      1  0.5025020000000  0.4639280000000  0.4889590000000 1.0
C      1  0.5323000000000  0.5090790000000  0.5156670000000 1.0
C      1  0.4775690000000  0.5203270000000  0.5164330000000 1.0
C      1  0.5069240000000  0.4734200000000  0.5194430000000 1.0
C      1  0.5279730000000  0.4850560000000  0.4840860000000 1.0
C      1  0.4722750000000  0.4716030000000  0.4844390000000 1.0
C      1  0.4974070000000  0.5336870000000  0.4844670000000 1.0
C      1  0.5393330000000  0.4790320000000  0.5280670000000 1.0
C      1  0.4753690000000  0.4856510000000  0.5161600000000 1.0
C      1  0.5088030000000  0.5310980000000  0.5149490000000 1.0
C      1  0.4434360000000  0.4395650000000  0.4703590000000 1.0
C      1  0.5737870000000  0.4881970000000  0.4657370000000 1.0
C      1  0.4749780000000  0.5667380000000  0.4667120000000 1.0
C      1  0.4523870000000  0.4478910000000  0.5324150000000 1.0
C      1  0.5843880000000  0.4873990000000  0.5306540000000 1.0
C      1  0.4723990000000  0.5726300000000  0.5330140000000 1.0
C      1  0.4503340000000  0.5537990000000  0.4657850000000 1.0
C      1  0.5713760000000  0.5160100000000  0.4682880000000 1.0
C      1  0.4683240000000  0.4257030000000  0.4672930000000 1.0
C      1  0.4491300000000  0.5571660000000  0.5272090000000 1.0
C      1  0.5770210000000  0.5160820000000  0.5340170000000 1.0
C      1  0.4724550000000  0.4295180000000  0.5378140000000 1.0
C      1  0.5430860000000  0.5449230000000  0.4863870000000 1.0
C      1  0.4374050000000  0.5115630000000  0.4834960000000 1.0
C      1  0.5152210000000  0.4350790000000  0.4826950000000 1.0
C      1  0.5456280000000  0.5586180000000  0.5148640000000 1.0
C      1  0.4437620000000  0.5171340000000  0.5146980000000 1.0
C      1  0.5306900000000  0.4242930000000  0.5081900000000 1.0
C      1  0.5414180000000  0.4553450000000  0.4863070000000 1.0
C      1  0.4397590000000  0.4807770000000  0.4804650000000 1.0
C      1  0.5154320000000  0.5608220000000  0.4891850000000 1.0
C      1  0.5459340000000  0.4505660000000  0.5174570000000 1.0
C      1  0.4415250000000  0.4850790000000  0.5128640000000 1.0
C      1  0.5150090000000  0.5624940000000  0.5227610000000 1.0
C      1  0.4995940000000  0.5309210000000  0.5970640000000 1.0
C      1  0.4730550000000  0.4904820000000  0.5983740000000 1.0
C      1  0.5255010000000  0.4861300000000  0.5963820000000 1.0
C      1  0.5009260000000  0.5324050000000  0.3982470000000 1.0
C      1  0.4736380000000  0.4861500000000  0.4064640000000 1.0
C      1  0.5236120000000  0.4884490000000  0.4011620000000 1.0
C      1  0.4992610000000  0.4741990000000  0.6026720000000 1.0
C      1  0.4734740000000  0.5181650000000  0.5946070000000 1.0
C      1  0.5255020000000  0.5165330000000  0.5965990000000 1.0
C      1  0.4993490000000  0.4725070000000  0.4039540000000 1.0
C      1  0.4751670000000  0.5143820000000  0.4018960000000 1.0
C      1  0.5250400000000  0.5197580000000  0.4003570000000 1.0
C      1  0.5797110000000  0.4666180000000  0.4845790000000 1.0
C      1  0.4862910000000  0.5877220000000  0.4846990000000 1.0
C      1  0.4210080000000  0.4466150000000  0.4885250000000 1.0
C      1  0.5831320000000  0.4643820000000  0.5137210000000 1.0
C      1  0.4869220000000  0.5890200000000  0.5127960000000 1.0
C      1  0.4258540000000  0.4486450000000  0.5167950000000 1.0
C      1  0.5823640000000  0.5385380000000  0.4861250000000 1.0
C      1  0.4833770000000  0.4121860000000  0.4901480000000 1.0
C      1  0.4267030000000  0.5500340000000  0.4826770000000 1.0
C      1  0.5803710000000  0.5389300000000  0.5152460000000 1.0
C      1  0.4871300000000  0.4141590000000  0.5188000000000 1.0
C      1  0.4244160000000  0.5518240000000  0.5118900000000 1.0
C      1  0.5051630000000  0.4114250000000  0.4640460000000 1.0
C      1  0.5624780000000  0.5547390000000  0.4637890000000 1.0
C      1  0.4125700000000  0.5265660000000  0.4680780000000 1.0
C      1  0.5147150000000  0.4136440000000  0.5276510000000 1.0
C      1  0.5627990000000  0.5554130000000  0.5384470000000 1.0
C      1  0.4238710000000  0.5278530000000  0.5360110000000 1.0
C      1  0.5129140000000  0.5838690000000  0.4674880000000 1.0
C      1  0.5669890000000  0.4425490000000  0.4701130000000 1.0
C      1  0.4167770000000  0.4676970000000  0.4621700000000 1.0
C      1  0.5079470000000  0.5899460000000  0.5380940000000 1.0
C      1  0.5706950000000  0.4415000000000  0.5353450000000 1.0
C      1  0.4231270000000  0.4746440000000  0.5368240000000 1.0
C      1  0.5495120000000  0.5579590000000  0.4377870000000 1.0
C      1  0.4281420000000  0.5130270000000  0.4448200000000 1.0
C      1  0.5174630000000  0.4333480000000  0.4413240000000 1.0
C      1  0.5478140000000  0.5563490000000  0.5631290000000 1.0
C      1  0.4289630000000  0.5161400000000  0.5617050000000 1.0
C      1  0.5196540000000  0.4267320000000  0.5527140000000 1.0
C      1  0.5438140000000  0.4477400000000  0.4472230000000 1.0
C      1  0.4281640000000  0.4851130000000  0.4394580000000 1.0
C      1  0.5209920000000  0.5711710000000  0.4374630000000 1.0
C      1  0.5439610000000  0.4413880000000  0.5563100000000 1.0
C      1  0.4279660000000  0.4869690000000  0.5620270000000 1.0
C      1  0.5207530000000  0.5691710000000  0.5617690000000 1.0
C      1  0.4919850000000  0.4413150000000  0.5607860000000 1.0
C      1  0.5540880000000  0.5175650000000  0.5568690000000 1.0
C      1  0.4680130000000  0.5348030000000  0.5456950000000 1.0
C      1  0.4846580000000  0.4388640000000  0.4434900000000 1.0
C      1  0.5414470000000  0.5223760000000  0.4534530000000 1.0
C      1  0.4580380000000  0.5241450000000  0.4510210000000 1.0
C      1  0.4889500000000  0.5596120000000  0.5558050000000 1.0
C      1  0.5589700000000  0.4862000000000  0.5531700000000 1.0
C      1  0.4620990000000  0.4746680000000  0.5454850000000 1.0
C      1  0.4961320000000  0.5525260000000  0.4496130000000 1.0
C      1  0.5536250000000  0.4791620000000  0.4432280000000 1.0
C      1  0.4623470000000  0.4626250000000  0.4531720000000 1.0
C      1  0.4955850000000  0.5582350000000  0.4177000000000 1.0
C      1  0.4524180000000  0.4750880000000  0.4231290000000 1.0
C      1  0.5494750000000  0.4950920000000  0.4184360000000 1.0
C      1  0.5007640000000  0.5567460000000  0.5861450000000 1.0
C      1  0.4544340000000  0.4749390000000  0.5771100000000 1.0
C      1  0.5402340000000  0.4692530000000  0.5719510000000 1.0
C      1  0.5009440000000  0.4470080000000  0.4152670000000 1.0
C      1  0.4710400000000  0.5353960000000  0.4238340000000 1.0
C      1  0.5496780000000  0.5289730000000  0.4219590000000 1.0
C      1  0.4795360000000  0.4537700000000  0.5860080000000 1.0
C      1  0.4535690000000  0.5275500000000  0.5755880000000 1.0
C      1  0.5471250000000  0.5317270000000  0.5833700000000 1.0
C      1  0.5100930000000  0.5236050000000  0.4569870000000 1.0
C      1  0.4744900000000  0.4943570000000  0.4516870000000 1.0
C      1  0.5225510000000  0.4733400000000  0.4547420000000 1.0
C      1  0.4769900000000  0.5026520000000  0.5522090000000 1.0
C      1  0.5099950000000  0.4655310000000  0.5516100000000 1.0
C      1  0.5249920000000  0.5117460000000  0.5457790000000 1.0
C      1  0.5032830000000  0.4966270000000  0.5516090000000 1.0
C      1  0.5005150000000  0.4960160000000  0.4533960000000 1.0
END
