TITL C-2622955-8511-758 0.000425079655630283 125000 -784.409188741925 0 0 145 (C1) n - 1
REM
REM in /nfs/bkarasulu/CARBON/AIRSS/Generating-Clusters/AIREBO/with-SteepDescent/Higher-Symm/SD-CG/HFTN-CG
REM
REM
REM
REM
REM
REM ./C.cell (b20cbc046b6831c77cfcea5457e17084)
REM
REM compiler GCC version 9.2.1 20190827 (Red Hat 9.2.1-1)
REM options -cpp -mtune=generic -march=x86-64 -g -O0 -fpre-include=/usr/include/finclude/math-vector-fortran.h
REM seed 1955633106 866974391 -1938853070 -655927290 -1971857600 1782309478 -986908895 -904473440 1456497504 -847765663 1985019310 -1665317221 -950892071 1052580904 273367045 1320041202 835762105 -1516904192 -2045374400 1708395450 -76125166 1177233153 1677965992 -1882726119 -97211314 1241049884 -551399103 107889529 -461820649 -1789409335 -1421420623 -78689409 1763752687
REM
CELL 1.54180   50.00000   50.00000   50.00000   90.00000   90.00000   90.00000
LATT -1
SFAC C  
C      1  0.4978880000000  0.5831600000000  0.4726410000000 1.0
C      1  0.5767940000000  0.5049150000000  0.4747770000000 1.0
C      1  0.4985470000000  0.4209230000000  0.4729380000000 1.0
C      1  0.4198260000000  0.4999320000000  0.4739090000000 1.0
C      1  0.5014150000000  0.5841170000000  0.5156840000000 1.0
C      1  0.5828070000000  0.4967640000000  0.5268780000000 1.0
C      1  0.4948020000000  0.4109120000000  0.5273990000000 1.0
C      1  0.4164720000000  0.5121920000000  0.5260130000000 1.0
C      1  0.5261700000000  0.5666980000000  0.5614040000000 1.0
C      1  0.5758510000000  0.4951660000000  0.5562010000000 1.0
C      1  0.4942630000000  0.4151300000000  0.5577120000000 1.0
C      1  0.4335500000000  0.5245230000000  0.5510850000000 1.0
C      1  0.5086190000000  0.5692510000000  0.4444400000000 1.0
C      1  0.5713110000000  0.5003000000000  0.4444100000000 1.0
C      1  0.4923590000000  0.4260730000000  0.4425370000000 1.0
C      1  0.4296390000000  0.5015620000000  0.4438110000000 1.0
C      1  0.4731670000000  0.4793830000000  0.5851880000000 1.0
C      1  0.4829950000000  0.5115850000000  0.5786460000000 1.0
C      1  0.5151760000000  0.5066450000000  0.5890600000000 1.0
C      1  0.5130830000000  0.4735970000000  0.5839820000000 1.0
C      1  0.4818240000000  0.4883770000000  0.4097820000000 1.0
C      1  0.4763860000000  0.5194700000000  0.4010640000000 1.0
C      1  0.5326170000000  0.5104290000000  0.3999590000000 1.0
C      1  0.5151840000000  0.4830530000000  0.4076350000000 1.0
C      1  0.5693960000000  0.4359430000000  0.4714640000000 1.0
C      1  0.4331700000000  0.4343640000000  0.4735360000000 1.0
C      1  0.4309110000000  0.5667270000000  0.4682020000000 1.0
C      1  0.5639200000000  0.5718950000000  0.4735360000000 1.0
C      1  0.5653710000000  0.4381190000000  0.5257600000000 1.0
C      1  0.4362810000000  0.4361830000000  0.5304710000000 1.0
C      1  0.4336570000000  0.5665990000000  0.5248510000000 1.0
C      1  0.5623860000000  0.5696290000000  0.5307810000000 1.0
C      1  0.5251520000000  0.5065510000000  0.5223530000000 1.0
C      1  0.5062450000000  0.4680040000000  0.5213870000000 1.0
C      1  0.4705870000000  0.4920800000000  0.5225160000000 1.0
C      1  0.4918710000000  0.5274010000000  0.5151330000000 1.0
C      1  0.5255240000000  0.4997720000000  0.4831700000000 1.0
C      1  0.4970400000000  0.4712220000000  0.4805320000000 1.0
C      1  0.4735600000000  0.5032340000000  0.4818760000000 1.0
C      1  0.5015920000000  0.5313170000000  0.4827640000000 1.0
C      1  0.5589630000000  0.4131570000000  0.4830190000000 1.0
C      1  0.4133210000000  0.4483850000000  0.4869880000000 1.0
C      1  0.4419240000000  0.5901450000000  0.4778890000000 1.0
C      1  0.5841060000000  0.5578640000000  0.4866860000000 1.0
C      1  0.5454290000000  0.4186770000000  0.5109240000000 1.0
C      1  0.4232780000000  0.4587870000000  0.5155400000000 1.0
C      1  0.4502200000000  0.5882990000000  0.5081930000000 1.0
C      1  0.5746420000000  0.5453120000000  0.5149290000000 1.0
C      1  0.5383700000000  0.5005880000000  0.4381890000000 1.0
C      1  0.5016650000000  0.4557410000000  0.4331630000000 1.0
C      1  0.4631440000000  0.4957710000000  0.4440340000000 1.0
C      1  0.4984270000000  0.5388100000000  0.4409140000000 1.0
C      1  0.5562070000000  0.5129050000000  0.5686140000000 1.0
C      1  0.5107050000000  0.4376940000000  0.5677220000000 1.0
C      1  0.4441240000000  0.4959090000000  0.5634740000000 1.0
C      1  0.5069080000000  0.5394760000000  0.5629530000000 1.0
C      1  0.4957050000000  0.5364350000000  0.4097600000000 1.0
C      1  0.5541160000000  0.4911250000000  0.4095640000000 1.0
C      1  0.4979850000000  0.4547170000000  0.3993740000000 1.0
C      1  0.4484770000000  0.4939470000000  0.4134070000000 1.0
C      1  0.4934720000000  0.5397980000000  0.5944680000000 1.0
C      1  0.5481600000000  0.5063160000000  0.5974550000000 1.0
C      1  0.5068600000000  0.4446650000000  0.5993040000000 1.0
C      1  0.4436520000000  0.4903400000000  0.5957760000000 1.0
C      1  0.4735850000000  0.5646680000000  0.5133000000000 1.0
C      1  0.5479910000000  0.5281950000000  0.5094240000000 1.0
C      1  0.5302360000000  0.4482640000000  0.5101260000000 1.0
C      1  0.4472150000000  0.4762890000000  0.5083240000000 1.0
C      1  0.4788880000000  0.5558310000000  0.4819790000000 1.0
C      1  0.5487320000000  0.5241990000000  0.4785990000000 1.0
C      1  0.5204520000000  0.4471600000000  0.4789620000000 1.0
C      1  0.4479730000000  0.4810620000000  0.4787590000000 1.0
C      1  0.5981310000000  0.4744150000000  0.5130150000000 1.0
C      1  0.4690910000000  0.4007210000000  0.5130840000000 1.0
C      1  0.3997040000000  0.5316890000000  0.5109660000000 1.0
C      1  0.5269450000000  0.6024740000000  0.5164230000000 1.0
C      1  0.5973300000000  0.4789960000000  0.4826980000000 1.0
C      1  0.4714830000000  0.4027200000000  0.4825500000000 1.0
C      1  0.3999480000000  0.5261240000000  0.4807960000000 1.0
C      1  0.5228410000000  0.6027290000000  0.4838550000000 1.0
C      1  0.5370190000000  0.5606220000000  0.5874220000000 1.0
C      1  0.5577870000000  0.4730220000000  0.5617110000000 1.0
C      1  0.4712170000000  0.4321560000000  0.5677190000000 1.0
C      1  0.4369130000000  0.5357630000000  0.5803460000000 1.0
C      1  0.5343250000000  0.5535360000000  0.4318240000000 1.0
C      1  0.5704640000000  0.4706320000000  0.4396500000000 1.0
C      1  0.4650100000000  0.4400010000000  0.4347930000000 1.0
C      1  0.4407130000000  0.5299330000000  0.4354510000000 1.0
C      1  0.5525210000000  0.5937200000000  0.4872930000000 1.0
C      1  0.5911490000000  0.4481660000000  0.4840910000000 1.0
C      1  0.4419040000000  0.4108640000000  0.4859780000000 1.0
C      1  0.4083670000000  0.5566580000000  0.4813740000000 1.0
C      1  0.5563220000000  0.5936110000000  0.5183480000000 1.0
C      1  0.5906310000000  0.4444840000000  0.5154880000000 1.0
C      1  0.4396820000000  0.4111220000000  0.5178340000000 1.0
C      1  0.4088270000000  0.5604540000000  0.5134130000000 1.0
C      1  0.5429380000000  0.5524630000000  0.4636930000000 1.0
C      1  0.5477660000000  0.4575970000000  0.4613590000000 1.0
C      1  0.4574520000000  0.4527270000000  0.4654100000000 1.0
C      1  0.4523620000000  0.5452980000000  0.4634670000000 1.0
C      1  0.5366190000000  0.5481720000000  0.5348570000000 1.0
C      1  0.5489150000000  0.4632280000000  0.5344300000000 1.0
C      1  0.4615560000000  0.4463380000000  0.5423100000000 1.0
C      1  0.4563900000000  0.5426870000000  0.5330820000000 1.0
C      1  0.4447130000000  0.5202750000000  0.4850030000000 1.0
C      1  0.5187650000000  0.5584160000000  0.4830350000000 1.0
C      1  0.5525390000000  0.4828420000000  0.4837640000000 1.0
C      1  0.4802000000000  0.4444230000000  0.4892840000000 1.0
C      1  0.4483610000000  0.5155290000000  0.5151730000000 1.0
C      1  0.5117600000000  0.5531950000000  0.5144760000000 1.0
C      1  0.5517960000000  0.4888180000000  0.5152630000000 1.0
C      1  0.4852990000000  0.4415710000000  0.5199420000000 1.0
C      1  0.5243830000000  0.5378860000000  0.5988600000000 1.0
C      1  0.5431200000000  0.4785530000000  0.5842090000000 1.0
C      1  0.4786780000000  0.4495590000000  0.5884460000000 1.0
C      1  0.4538250000000  0.5195630000000  0.5941920000000 1.0
C      1  0.5251250000000  0.5350200000000  0.4114020000000 1.0
C      1  0.5698550000000  0.4657520000000  0.4103030000000 1.0
C      1  0.4677120000000  0.4575220000000  0.4124860000000 1.0
C      1  0.4483020000000  0.5281740000000  0.4069370000000 1.0
C      1  0.5290100000000  0.4699520000000  0.4358210000000 1.0
C      1  0.4816270000000  0.4724310000000  0.4511550000000 1.0
C      1  0.4756750000000  0.5224710000000  0.4539010000000 1.0
C      1  0.5167080000000  0.5164130000000  0.4560400000000 1.0
C      1  0.5024400000000  0.4675090000000  0.5532840000000 1.0
C      1  0.4700540000000  0.4776690000000  0.5511680000000 1.0
C      1  0.4817900000000  0.5252820000000  0.5475240000000 1.0
C      1  0.5318650000000  0.5200890000000  0.5524560000000 1.0
C      1  0.6248600000000  0.5261720000000  0.4746040000000 1.0
C      1  0.5415020000000  0.3945390000000  0.4709900000000 1.0
C      1  0.3712560000000  0.4793700000000  0.4794680000000 1.0
C      1  0.4734490000000  0.6300540000000  0.4629150000000 1.0
C      1  0.6212550000000  0.5302600000000  0.5345520000000 1.0
C      1  0.5273880000000  0.3716450000000  0.5276440000000 1.0
C      1  0.4048860000000  0.4859660000000  0.5538090000000 1.0
C      1  0.4773360000000  0.6295230000000  0.5270000000000 1.0
C      1  0.5171790000000  0.3970690000000  0.4831990000000 1.0
C      1  0.4000860000000  0.4777780000000  0.4892390000000 1.0
C      1  0.4713710000000  0.6037920000000  0.4779810000000 1.0
C      1  0.5969970000000  0.5279220000000  0.4868150000000 1.0
C      1  0.5200360000000  0.3984040000000  0.5150470000000 1.0
C      1  0.4036650000000  0.4832370000000  0.5225500000000 1.0
C      1  0.4779750000000  0.6043120000000  0.5105220000000 1.0
C      1  0.5960530000000  0.5227880000000  0.5196220000000 1.0
C      1  0.4986600000000  0.4960800000000  0.5037080000000 1.0
END
