TITL C-2622958-629-340 0.000441178495689045 125000 -350.801784784753 0 0 61 (C1) n - 1
REM
REM in /nfs/bkarasulu/CARBON/AIRSS/Generating-Clusters/AIREBO/with-SteepDescent/Higher-Symm/SD-CG/HFTN-CG
REM
REM
REM
REM
REM
REM ./C.cell (b20cbc046b6831c77cfcea5457e17084)
REM
REM compiler GCC version 9.2.1 20190827 (Red Hat 9.2.1-1)
REM options -cpp -mtune=generic -march=x86-64 -g -O0 -fpre-include=/usr/include/finclude/math-vector-fortran.h
REM seed -1625513388 -288582316 1684916254 -260877091 1388800385 636535891 1126752393 -897587218 304539720 1138402227 1658670223 -1870614382 274656901 1785414571 1577801790 604648845 -222772241 877917399 177393169 -318523787 2100530036 -1213338462 1256437024 -996419685 1035987306 -528855458 -517208283 -454546173 332011848 1905140008 953701405 -676441083 24196696
REM
CELL 1.54180   50.00000   50.00000   50.00000   90.00000   90.00000   90.00000
LATT -1
SFAC C  
C      1  0.4282840000000  0.5265210000000  0.5262590000000 1.0
C      1  0.5445140000000  0.5451850000000  0.5153660000000 1.0
C      1  0.5151890000000  0.4332980000000  0.5251500000000 1.0
C      1  0.4897080000000  0.4416420000000  0.5105310000000 1.0
C      1  0.4496450000000  0.5401050000000  0.5063460000000 1.0
C      1  0.5533460000000  0.5179270000000  0.5022190000000 1.0
C      1  0.4685360000000  0.5770000000000  0.4899890000000 1.0
C      1  0.5670360000000  0.4782760000000  0.4819010000000 1.0
C      1  0.4452790000000  0.4567930000000  0.4781470000000 1.0
C      1  0.4685670000000  0.4920490000000  0.5060520000000 1.0
C      1  0.5019170000000  0.5326390000000  0.5025910000000 1.0
C      1  0.5137800000000  0.4855460000000  0.4923050000000 1.0
C      1  0.4422560000000  0.4992450000000  0.5351070000000 1.0
C      1  0.5195460000000  0.5462870000000  0.5386220000000 1.0
C      1  0.5322960000000  0.4596910000000  0.5392380000000 1.0
C      1  0.4703180000000  0.5126570000000  0.5464800000000 1.0
C      1  0.5320300000000  0.5150180000000  0.5378940000000 1.0
C      1  0.4998990000000  0.4671390000000  0.5395450000000 1.0
C      1  0.5679060000000  0.4984550000000  0.4610410000000 1.0
C      1  0.4668950000000  0.4454440000000  0.4640170000000 1.0
C      1  0.4666160000000  0.5596200000000  0.4679510000000 1.0
C      1  0.5553140000000  0.5208700000000  0.4719230000000 1.0
C      1  0.4914380000000  0.4434270000000  0.4784420000000 1.0
C      1  0.4504070000000  0.5371930000000  0.4750130000000 1.0
C      1  0.4914080000000  0.4746020000000  0.5099630000000 1.0
C      1  0.4748390000000  0.5215050000000  0.5145260000000 1.0
C      1  0.5222060000000  0.5104080000000  0.5075300000000 1.0
C      1  0.5169810000000  0.5109080000000  0.4397300000000 1.0
C      1  0.5147400000000  0.4711160000000  0.4403110000000 1.0
C      1  0.4778770000000  0.5056950000000  0.4458720000000 1.0
C      1  0.4910950000000  0.5522450000000  0.4556780000000 1.0
C      1  0.5630780000000  0.4917970000000  0.4342160000000 1.0
C      1  0.4690130000000  0.4546030000000  0.4371930000000 1.0
C      1  0.4916380000000  0.5283540000000  0.5679680000000 1.0
C      1  0.5320990000000  0.4908740000000  0.5694490000000 1.0
C      1  0.4792870000000  0.4753060000000  0.5655160000000 1.0
C      1  0.4844040000000  0.4766420000000  0.4331380000000 1.0
C      1  0.4910670000000  0.5324160000000  0.4350370000000 1.0
C      1  0.5372500000000  0.4894280000000  0.4267230000000 1.0
C      1  0.4382180000000  0.4460600000000  0.5055950000000 1.0
C      1  0.4941140000000  0.5839970000000  0.5072950000000 1.0
C      1  0.5718670000000  0.4569780000000  0.5071800000000 1.0
C      1  0.4482060000000  0.4891370000000  0.4804010000000 1.0
C      1  0.5116830000000  0.5449070000000  0.4738230000000 1.0
C      1  0.5376400000000  0.4644380000000  0.4880680000000 1.0
C      1  0.5490970000000  0.4881190000000  0.5401580000000 1.0
C      1  0.4582850000000  0.4704020000000  0.5435100000000 1.0
C      1  0.4872120000000  0.5478910000000  0.5418790000000 1.0
C      1  0.5206430000000  0.5197740000000  0.5688900000000 1.0
C      1  0.5115190000000  0.4714650000000  0.5711660000000 1.0
C      1  0.4729080000000  0.5029630000000  0.5789660000000 1.0
C      1  0.4375700000000  0.4787040000000  0.5105030000000 1.0
C      1  0.5160990000000  0.5628200000000  0.5092200000000 1.0
C      1  0.5429790000000  0.4450720000000  0.5124760000000 1.0
C      1  0.4529100000000  0.5116070000000  0.4624070000000 1.0
C      1  0.5317210000000  0.5299800000000  0.4607210000000 1.0
C      1  0.5156530000000  0.4540620000000  0.4677090000000 1.0
C      1  0.4613890000000  0.4497450000000  0.5243670000000 1.0
C      1  0.4710960000000  0.5623450000000  0.5205670000000 1.0
C      1  0.5687460000000  0.4900340000000  0.5145150000000 1.0
C      1  0.5032400000000  0.4919210000000  0.4646230000000 1.0
END
