TITL C-2622958-629-703 0.00017219787210488 125000 -893.051065194846 0 0 173 (C1) n - 1
REM
REM in /nfs/bkarasulu/CARBON/AIRSS/Generating-Clusters/AIREBO/with-SteepDescent/Higher-Symm/SD-CG/HFTN-CG
REM
REM
REM
REM
REM
REM ./C.cell (b20cbc046b6831c77cfcea5457e17084)
REM
REM compiler GCC version 9.2.1 20190827 (Red Hat 9.2.1-1)
REM options -cpp -mtune=generic -march=x86-64 -g -O0 -fpre-include=/usr/include/finclude/math-vector-fortran.h
REM seed 1634594132 754257466 -741350299 -598786872 -2073484112 -747296942 -1113438317 -505407786 -1696017635 1113695433 43095351 200287947 1135688255 1314689909 884907119 -2024352886 -335105373 1839308522 1001210250 -1926237081 127505375 -2078808281 1795211292 2089795428 2033847320 -29125496 -2136356170 -447203070 184191634 -487042544 -1268534608 30541282 1611441046
REM
CELL 1.54180   50.00000   50.00000   50.00000   90.00000   90.00000   90.00000
LATT -1
SFAC C  
C      1  0.4563140000000  0.4563210000000  0.4491620000000 1.0
C      1  0.4601150000000  0.4890070000000  0.4403740000000 1.0
C      1  0.4513180000000  0.5195760000000  0.4524330000000 1.0
C      1  0.4644120000000  0.5332670000000  0.4807940000000 1.0
C      1  0.4587190000000  0.5447670000000  0.5124120000000 1.0
C      1  0.4589250000000  0.5304440000000  0.5436010000000 1.0
C      1  0.4609850000000  0.4965610000000  0.5477320000000 1.0
C      1  0.4615890000000  0.4633910000000  0.5375860000000 1.0
C      1  0.4646480000000  0.4557660000000  0.5053660000000 1.0
C      1  0.4799070000000  0.6066170000000  0.5097760000000 1.0
C      1  0.4740840000000  0.5744500000000  0.5722660000000 1.0
C      1  0.4694040000000  0.5131900000000  0.6083660000000 1.0
C      1  0.4742110000000  0.4378190000000  0.5980730000000 1.0
C      1  0.4856570000000  0.3802490000000  0.5212230000000 1.0
C      1  0.4772110000000  0.4028250000000  0.4401730000000 1.0
C      1  0.4733310000000  0.4575970000000  0.3993220000000 1.0
C      1  0.4695090000000  0.5273350000000  0.3950530000000 1.0
C      1  0.4797470000000  0.5927370000000  0.4328520000000 1.0
C      1  0.4564720000000  0.4955740000000  0.5821620000000 1.0
C      1  0.4635600000000  0.4249860000000  0.5701090000000 1.0
C      1  0.4670300000000  0.4016150000000  0.5069810000000 1.0
C      1  0.4510710000000  0.4232880000000  0.4432410000000 1.0
C      1  0.4497880000000  0.4768940000000  0.4103250000000 1.0
C      1  0.4521850000000  0.5366850000000  0.4231890000000 1.0
C      1  0.4699430000000  0.5797080000000  0.4607290000000 1.0
C      1  0.4618020000000  0.5784460000000  0.5162130000000 1.0
C      1  0.4491360000000  0.5518890000000  0.5681130000000 1.0
C      1  0.5056160000000  0.5191160000000  0.4238540000000 1.0
C      1  0.5113860000000  0.5610580000000  0.4524370000000 1.0
C      1  0.5216670000000  0.5745210000000  0.5036580000000 1.0
C      1  0.5129790000000  0.5563590000000  0.5590300000000 1.0
C      1  0.5068520000000  0.5147970000000  0.5739260000000 1.0
C      1  0.5047360000000  0.4581500000000  0.5658660000000 1.0
C      1  0.4995370000000  0.4372690000000  0.5286960000000 1.0
C      1  0.5002180000000  0.4321990000000  0.4772340000000 1.0
C      1  0.5070700000000  0.4666340000000  0.4362930000000 1.0
C      1  0.5459880000000  0.6010490000000  0.4645810000000 1.0
C      1  0.5438250000000  0.5980110000000  0.5376530000000 1.0
C      1  0.5456780000000  0.5506920000000  0.5922840000000 1.0
C      1  0.5488410000000  0.4774640000000  0.5992540000000 1.0
C      1  0.5392230000000  0.4246350000000  0.5623860000000 1.0
C      1  0.5364760000000  0.3990940000000  0.4993370000000 1.0
C      1  0.5377380000000  0.4226790000000  0.4342150000000 1.0
C      1  0.5414040000000  0.4837960000000  0.3962670000000 1.0
C      1  0.5458160000000  0.5544900000000  0.4091850000000 1.0
C      1  0.4588900000000  0.3995520000000  0.5563910000000 1.0
C      1  0.4561530000000  0.3915680000000  0.4812940000000 1.0
C      1  0.4499640000000  0.4370950000000  0.4131180000000 1.0
C      1  0.4479620000000  0.5014010000000  0.3906530000000 1.0
C      1  0.4593020000000  0.5652770000000  0.4250070000000 1.0
C      1  0.4591170000000  0.6010930000000  0.4834460000000 1.0
C      1  0.4532170000000  0.5862520000000  0.5481800000000 1.0
C      1  0.4461310000000  0.5338730000000  0.5946780000000 1.0
C      1  0.4489120000000  0.4649250000000  0.5954380000000 1.0
C      1  0.3925940000000  0.4938550000000  0.5467120000000 1.0
C      1  0.4011690000000  0.4702130000000  0.5314320000000 1.0
C      1  0.4036370000000  0.4561520000000  0.5050450000000 1.0
C      1  0.3844210000000  0.4593640000000  0.4846590000000 1.0
C      1  0.3872240000000  0.4823930000000  0.4682890000000 1.0
C      1  0.3720250000000  0.5058420000000  0.4735160000000 1.0
C      1  0.3847000000000  0.5261090000000  0.4888040000000 1.0
C      1  0.3789690000000  0.5315440000000  0.5160790000000 1.0
C      1  0.3959370000000  0.5215840000000  0.5363980000000 1.0
C      1  0.4931760000000  0.6066740000000  0.4786540000000 1.0
C      1  0.4877270000000  0.5875670000000  0.5450860000000 1.0
C      1  0.4793710000000  0.5397910000000  0.5911450000000 1.0
C      1  0.4804130000000  0.4707800000000  0.6024280000000 1.0
C      1  0.4814410000000  0.3820810000000  0.5536680000000 1.0
C      1  0.4764980000000  0.3813410000000  0.4642370000000 1.0
C      1  0.4825620000000  0.4364900000000  0.4228440000000 1.0
C      1  0.4812700000000  0.4967100000000  0.3960760000000 1.0
C      1  0.4870210000000  0.5722550000000  0.4068150000000 1.0
C      1  0.5473970000000  0.4573750000000  0.4944620000000 1.0
C      1  0.5473610000000  0.4662930000000  0.4704290000000 1.0
C      1  0.5358160000000  0.4897390000000  0.4585910000000 1.0
C      1  0.5399040000000  0.5218560000000  0.4628490000000 1.0
C      1  0.5406450000000  0.5348690000000  0.4899860000000 1.0
C      1  0.5410990000000  0.5510410000000  0.5194220000000 1.0
C      1  0.5501940000000  0.5254360000000  0.5386990000000 1.0
C      1  0.5401960000000  0.4958530000000  0.5364130000000 1.0
C      1  0.5346660000000  0.4712800000000  0.5193540000000 1.0
C      1  0.4871170000000  0.5380260000000  0.5610480000000 1.0
C      1  0.4902130000000  0.4913390000000  0.5822530000000 1.0
C      1  0.4792510000000  0.4441310000000  0.5521600000000 1.0
C      1  0.4824120000000  0.4281400000000  0.5031780000000 1.0
C      1  0.4876270000000  0.4463930000000  0.4527680000000 1.0
C      1  0.4888410000000  0.4903960000000  0.4256960000000 1.0
C      1  0.5027190000000  0.5498590000000  0.4250800000000 1.0
C      1  0.4966300000000  0.5729020000000  0.4806920000000 1.0
C      1  0.4943110000000  0.5694230000000  0.5204690000000 1.0
C      1  0.5035140000000  0.3970880000000  0.4584040000000 1.0
C      1  0.5055760000000  0.4468880000000  0.4015820000000 1.0
C      1  0.5014180000000  0.5204930000000  0.3844430000000 1.0
C      1  0.5116530000000  0.5887770000000  0.4236470000000 1.0
C      1  0.5106550000000  0.6203800000000  0.5036260000000 1.0
C      1  0.5065240000000  0.5857650000000  0.5733630000000 1.0
C      1  0.5011230000000  0.5257220000000  0.6117600000000 1.0
C      1  0.5051060000000  0.4486080000000  0.6046640000000 1.0
C      1  0.5088700000000  0.3907330000000  0.5397190000000 1.0
C      1  0.5291220000000  0.5125240000000  0.4024920000000 1.0
C      1  0.5354310000000  0.5715070000000  0.4328700000000 1.0
C      1  0.5354510000000  0.6016620000000  0.4940950000000 1.0
C      1  0.5368360000000  0.5798990000000  0.5588600000000 1.0
C      1  0.5294350000000  0.5230780000000  0.5944460000000 1.0
C      1  0.5285720000000  0.4566020000000  0.5856030000000 1.0
C      1  0.5211760000000  0.4174330000000  0.5372700000000 1.0
C      1  0.5252360000000  0.4130040000000  0.4734100000000 1.0
C      1  0.5301250000000  0.4501650000000  0.4215520000000 1.0
C      1  0.5834110000000  0.5217230000000  0.3986980000000 1.0
C      1  0.5886910000000  0.5828990000000  0.4440900000000 1.0
C      1  0.5864930000000  0.6044020000000  0.5066040000000 1.0
C      1  0.5879520000000  0.5786940000000  0.5798620000000 1.0
C      1  0.5809810000000  0.5135530000000  0.6097400000000 1.0
C      1  0.5826120000000  0.4449340000000  0.5817590000000 1.0
C      1  0.5723530000000  0.4004410000000  0.5378210000000 1.0
C      1  0.5758070000000  0.3980900000000  0.4567710000000 1.0
C      1  0.5842790000000  0.4580380000000  0.4021520000000 1.0
C      1  0.5072100000000  0.5164300000000  0.4551990000000 1.0
C      1  0.4948520000000  0.5394110000000  0.4749850000000 1.0
C      1  0.5095580000000  0.5252800000000  0.5004520000000 1.0
C      1  0.5100850000000  0.5414930000000  0.5286070000000 1.0
C      1  0.5130290000000  0.5121490000000  0.5433540000000 1.0
C      1  0.4930390000000  0.4852140000000  0.5489130000000 1.0
C      1  0.5032890000000  0.4699950000000  0.5202500000000 1.0
C      1  0.4933450000000  0.4636200000000  0.4883550000000 1.0
C      1  0.5031860000000  0.4840630000000  0.4652290000000 1.0
C      1  0.4118950000000  0.5302730000000  0.4815490000000 1.0
C      1  0.4289800000000  0.5368090000000  0.5014510000000 1.0
C      1  0.4268650000000  0.5290880000000  0.5323470000000 1.0
C      1  0.4272920000000  0.4978980000000  0.5433120000000 1.0
C      1  0.4341500000000  0.4718680000000  0.5251010000000 1.0
C      1  0.4339400000000  0.4595590000000  0.4942070000000 1.0
C      1  0.4338980000000  0.4688520000000  0.4662250000000 1.0
C      1  0.4140710000000  0.4876670000000  0.4600040000000 1.0
C      1  0.4222630000000  0.5144330000000  0.4609610000000 1.0
C      1  0.4265830000000  0.5098790000000  0.5897830000000 1.0
C      1  0.4379960000000  0.4413980000000  0.5821880000000 1.0
C      1  0.4463830000000  0.4014950000000  0.5318190000000 1.0
C      1  0.4380670000000  0.4061120000000  0.4666530000000 1.0
C      1  0.4257160000000  0.4567150000000  0.4097350000000 1.0
C      1  0.4309480000000  0.5240540000000  0.4035760000000 1.0
C      1  0.4421730000000  0.5846370000000  0.4434950000000 1.0
C      1  0.4354370000000  0.5875260000000  0.4980060000000 1.0
C      1  0.4271610000000  0.5723950000000  0.5580270000000 1.0
C      1  0.5608430000000  0.5862660000000  0.5106570000000 1.0
C      1  0.5648490000000  0.5622980000000  0.5667080000000 1.0
C      1  0.5589040000000  0.5076250000000  0.5871980000000 1.0
C      1  0.5565880000000  0.4535680000000  0.5665720000000 1.0
C      1  0.5518070000000  0.4186460000000  0.5225490000000 1.0
C      1  0.5561520000000  0.4224060000000  0.4628020000000 1.0
C      1  0.5593430000000  0.4667600000000  0.4195990000000 1.0
C      1  0.5577450000000  0.5237090000000  0.4170520000000 1.0
C      1  0.5608170000000  0.5721180000000  0.4546090000000 1.0
C      1  0.5656400000000  0.4314450000000  0.4942490000000 1.0
C      1  0.5665860000000  0.4518180000000  0.4492890000000 1.0
C      1  0.5593410000000  0.4957750000000  0.4363980000000 1.0
C      1  0.5623240000000  0.5389770000000  0.4470900000000 1.0
C      1  0.5603720000000  0.5623910000000  0.4864250000000 1.0
C      1  0.5700660000000  0.5624450000000  0.5330970000000 1.0
C      1  0.5702060000000  0.5289050000000  0.5631980000000 1.0
C      1  0.5595940000000  0.4862610000000  0.5607460000000 1.0
C      1  0.5567400000000  0.4504560000000  0.5327140000000 1.0
C      1  0.5804520000000  0.5380200000000  0.4922030000000 1.0
C      1  0.5860930000000  0.5381580000000  0.5195080000000 1.0
C      1  0.5892500000000  0.5176190000000  0.5388270000000 1.0
C      1  0.5821880000000  0.4902580000000  0.5376760000000 1.0
C      1  0.5809820000000  0.4677660000000  0.5209690000000 1.0
C      1  0.5872840000000  0.4576780000000  0.4947260000000 1.0
C      1  0.5870410000000  0.4700280000000  0.4689120000000 1.0
C      1  0.5810590000000  0.4965750000000  0.4601990000000 1.0
C      1  0.5813230000000  0.5233280000000  0.4684350000000 1.0
C      1  0.4939670000000  0.4999050000000  0.5070360000000 1.0
C      1  0.4673910000000  0.5036970000000  0.5151000000000 1.0
END
