TITL C-2622960-5345-325 -0.000315651216461542 125000 -417.769678994042 0 0 78 (C1) n - 1
REM
REM in /nfs/bkarasulu/CARBON/AIRSS/Generating-Clusters/AIREBO/with-SteepDescent/Higher-Symm/SD-CG/HFTN-CG
REM
REM
REM
REM
REM
REM ./C.cell (b20cbc046b6831c77cfcea5457e17084)
REM
REM compiler GCC version 9.2.1 20190827 (Red Hat 9.2.1-1)
REM options -cpp -mtune=generic -march=x86-64 -g -O0 -fpre-include=/usr/include/finclude/math-vector-fortran.h
REM seed -87086122 -1486348566 -1753425786 384590410 -673304276 333917180 -1886515073 608494707 -510081210 333957537 1250543682 1497239857 -861267275 -1535954079 -1000379336 1518859494 -1956253383 667106066 -1679127629 1923994073 -541183989 125744577 2086985441 765553209 2063196178 -2074132555 -752444066 289868362 -27315864 -1545322894 1087958135 395330411 -404036930
REM
CELL 1.54180   50.00000   50.00000   50.00000   90.00000   90.00000   90.00000
LATT -1
SFAC C  
C      1  0.4290030000000  0.4926860000000  0.4822590000000 1.0
C      1  0.5389480000000  0.4482540000000  0.4803300000000 1.0
C      1  0.5194010000000  0.5590100000000  0.4844560000000 1.0
C      1  0.5097890000000  0.5366500000000  0.5778450000000 1.0
C      1  0.4612910000000  0.4911840000000  0.5563970000000 1.0
C      1  0.5316840000000  0.4731350000000  0.5705610000000 1.0
C      1  0.5415910000000  0.4929610000000  0.4334940000000 1.0
C      1  0.4925530000000  0.5342930000000  0.4281140000000 1.0
C      1  0.4637610000000  0.4616900000000  0.4364600000000 1.0
C      1  0.5693400000000  0.4809930000000  0.5465060000000 1.0
C      1  0.4772800000000  0.5545790000000  0.5465820000000 1.0
C      1  0.4348130000000  0.4497200000000  0.5377070000000 1.0
C      1  0.5053110000000  0.4549530000000  0.5251190000000 1.0
C      1  0.5464180000000  0.5331450000000  0.5351370000000 1.0
C      1  0.4571420000000  0.5113500000000  0.5221130000000 1.0
C      1  0.5379770000000  0.4943120000000  0.4995580000000 1.0
C      1  0.4981030000000  0.5192030000000  0.4824220000000 1.0
C      1  0.4676630000000  0.4806830000000  0.4920560000000 1.0
C      1  0.4097770000000  0.5011050000000  0.5322390000000 1.0
C      1  0.5462900000000  0.4206740000000  0.5246540000000 1.0
C      1  0.5481360000000  0.5836660000000  0.5264360000000 1.0
C      1  0.5445240000000  0.5012670000000  0.5379030000000 1.0
C      1  0.5015830000000  0.5470000000000  0.5246520000000 1.0
C      1  0.4728430000000  0.4607080000000  0.5334230000000 1.0
C      1  0.4519950000000  0.4609410000000  0.5602900000000 1.0
C      1  0.5589520000000  0.4664500000000  0.5673660000000 1.0
C      1  0.4940330000000  0.5585840000000  0.5732110000000 1.0
C      1  0.5182290000000  0.4570390000000  0.4606430000000 1.0
C      1  0.5288720000000  0.5465220000000  0.4542600000000 1.0
C      1  0.4458810000000  0.5014360000000  0.4594660000000 1.0
C      1  0.5203430000000  0.5375680000000  0.4288590000000 1.0
C      1  0.4549170000000  0.4892120000000  0.4331200000000 1.0
C      1  0.5268390000000  0.4693530000000  0.4316610000000 1.0
C      1  0.4380790000000  0.5646890000000  0.4696670000000 1.0
C      1  0.4772420000000  0.4120770000000  0.4820050000000 1.0
C      1  0.5862130000000  0.5264570000000  0.4893610000000 1.0
C      1  0.5470620000000  0.5234930000000  0.4965940000000 1.0
C      1  0.4665040000000  0.5262890000000  0.4930300000000 1.0
C      1  0.4951430000000  0.4643770000000  0.4921990000000 1.0
C      1  0.5779680000000  0.5153810000000  0.4684310000000 1.0
C      1  0.4503740000000  0.5589260000000  0.4477660000000 1.0
C      1  0.4586530000000  0.4204010000000  0.4636780000000 1.0
C      1  0.4480000000000  0.4520310000000  0.5117240000000 1.0
C      1  0.5619040000000  0.4783590000000  0.5157960000000 1.0
C      1  0.4772560000000  0.5671300000000  0.5149630000000 1.0
C      1  0.5334040000000  0.4401960000000  0.5129040000000 1.0
C      1  0.5296130000000  0.5566900000000  0.5171310000000 1.0
C      1  0.4326210000000  0.4887120000000  0.5155700000000 1.0
C      1  0.5268380000000  0.5215770000000  0.4727330000000 1.0
C      1  0.4784950000000  0.5107440000000  0.4570840000000 1.0
C      1  0.4939950000000  0.4808930000000  0.4624990000000 1.0
C      1  0.4708690000000  0.5229880000000  0.5509620000000 1.0
C      1  0.5086170000000  0.4612900000000  0.5583780000000 1.0
C      1  0.5371990000000  0.5289420000000  0.5657630000000 1.0
C      1  0.5365080000000  0.5164130000000  0.4179960000000 1.0
C      1  0.4773520000000  0.5085060000000  0.4231550000000 1.0
C      1  0.4939880000000  0.4647680000000  0.4337820000000 1.0
C      1  0.5509190000000  0.4997660000000  0.4623060000000 1.0
C      1  0.4775720000000  0.5449600000000  0.4547740000000 1.0
C      1  0.4516250000000  0.4469440000000  0.4575400000000 1.0
C      1  0.5639830000000  0.5719490000000  0.5041050000000 1.0
C      1  0.4264500000000  0.5275300000000  0.5212280000000 1.0
C      1  0.5131790000000  0.4092150000000  0.4948760000000 1.0
C      1  0.4431130000000  0.4628200000000  0.4823190000000 1.0
C      1  0.5562130000000  0.4730910000000  0.4827400000000 1.0
C      1  0.4889270000000  0.5597950000000  0.4833130000000 1.0
C      1  0.4563360000000  0.5565830000000  0.4924610000000 1.0
C      1  0.4914990000000  0.4327960000000  0.5033130000000 1.0
C      1  0.5683410000000  0.5427680000000  0.5109670000000 1.0
C      1  0.4933950000000  0.5089790000000  0.5717150000000 1.0
C      1  0.4868840000000  0.4759800000000  0.5701090000000 1.0
C      1  0.5263600000000  0.5007300000000  0.5747190000000 1.0
C      1  0.4985300000000  0.5200600000000  0.5138560000000 1.0
C      1  0.4837310000000  0.4901990000000  0.5204720000000 1.0
C      1  0.5175940000000  0.4865640000000  0.5226320000000 1.0
C      1  0.5337950000000  0.4160180000000  0.4811890000000 1.0
C      1  0.5491160000000  0.5738430000000  0.4807530000000 1.0
C      1  0.4132610000000  0.5177580000000  0.4961400000000 1.0
END
