TITL C-2622964-2985-814 -0.000151053055605866 125000 -245.623135551307 0 0 51 (C1) n - 1
REM
REM in /nfs/bkarasulu/CARBON/AIRSS/Generating-Clusters/AIREBO/with-SteepDescent/Higher-Symm/SD-CG/HFTN-CG
REM
REM
REM
REM
REM
REM ./C.cell (b20cbc046b6831c77cfcea5457e17084)
REM
REM compiler GCC version 9.2.1 20190827 (Red Hat 9.2.1-1)
REM options -cpp -mtune=generic -march=x86-64 -g -O0 -fpre-include=/usr/include/finclude/math-vector-fortran.h
REM seed 2134945266 404960126 -2134421129 19371030 734358407 -1417812822 324827098 2076088916 -1185864132 768596010 -1024541738 1383925879 -733534133 1424974838 -650983073 2009407968 -338774237 1457309336 -630291805 151499767 755438146 997452841 365850986 755094300 -210301211 291903867 -1962482546 -1870093306 1505784398 -1723202289 -339815586 734751624 1359135815
REM
CELL 1.54180   50.00000   50.00000   50.00000   90.00000   90.00000   90.00000
LATT -1
SFAC C  
C      1  0.4823580000000  0.5556910000000  0.5360270000000 1.0
C      1  0.4864390000000  0.5508440000000  0.4561550000000 1.0
C      1  0.4800440000000  0.4746830000000  0.4359870000000 1.0
C      1  0.4872330000000  0.4322150000000  0.5046340000000 1.0
C      1  0.4866880000000  0.4823590000000  0.5638600000000 1.0
C      1  0.5165270000000  0.5358330000000  0.5317760000000 1.0
C      1  0.5208140000000  0.5266670000000  0.4850610000000 1.0
C      1  0.5153410000000  0.4869700000000  0.4501580000000 1.0
C      1  0.5219980000000  0.4648210000000  0.4910710000000 1.0
C      1  0.5269840000000  0.4854300000000  0.5311180000000 1.0
C      1  0.5497140000000  0.4487490000000  0.4917310000000 1.0
C      1  0.5770190000000  0.4908000000000  0.5560020000000 1.0
C      1  0.5432780000000  0.5399540000000  0.5336380000000 1.0
C      1  0.5692500000000  0.5321220000000  0.4741020000000 1.0
C      1  0.5439030000000  0.4836770000000  0.4559520000000 1.0
C      1  0.4463190000000  0.5222760000000  0.5314400000000 1.0
C      1  0.4478020000000  0.5394020000000  0.4846920000000 1.0
C      1  0.4462610000000  0.5008390000000  0.4599560000000 1.0
C      1  0.4491610000000  0.4608580000000  0.4903780000000 1.0
C      1  0.4489160000000  0.4749180000000  0.5337050000000 1.0
C      1  0.4968140000000  0.4486260000000  0.5456460000000 1.0
C      1  0.4919830000000  0.5270820000000  0.5618560000000 1.0
C      1  0.4941190000000  0.5683130000000  0.4908410000000 1.0
C      1  0.4913980000000  0.5122220000000  0.4307910000000 1.0
C      1  0.4903780000000  0.4368680000000  0.4654600000000 1.0
C      1  0.5088080000000  0.4614340000000  0.5208000000000 1.0
C      1  0.5074490000000  0.5071550000000  0.5412720000000 1.0
C      1  0.5039520000000  0.5435930000000  0.5046880000000 1.0
C      1  0.5057180000000  0.5165190000000  0.4595610000000 1.0
C      1  0.5019510000000  0.4643870000000  0.4675180000000 1.0
C      1  0.4674990000000  0.4584740000000  0.5515790000000 1.0
C      1  0.4628430000000  0.5352370000000  0.5535870000000 1.0
C      1  0.4656660000000  0.5633180000000  0.4786020000000 1.0
C      1  0.4618970000000  0.5020880000000  0.4337960000000 1.0
C      1  0.4636680000000  0.4355900000000  0.4817380000000 1.0
C      1  0.5487810000000  0.4879920000000  0.4846190000000 1.0
C      1  0.5549490000000  0.4722670000000  0.5122500000000 1.0
C      1  0.5592980000000  0.4938080000000  0.5352810000000 1.0
C      1  0.5577270000000  0.5210580000000  0.5205930000000 1.0
C      1  0.5506990000000  0.5184910000000  0.4904350000000 1.0
C      1  0.4810720000000  0.4655210000000  0.5015620000000 1.0
C      1  0.4788410000000  0.4912850000000  0.5319920000000 1.0
C      1  0.4766510000000  0.5281340000000  0.5169310000000 1.0
C      1  0.4779720000000  0.5254070000000  0.4770890000000 1.0
C      1  0.4763410000000  0.4866720000000  0.4675990000000 1.0
C      1  0.5018500000000  0.5573140000000  0.5618120000000 1.0
C      1  0.5083340000000  0.5735290000000  0.4630650000000 1.0
C      1  0.5032200000000  0.4861000000000  0.4157820000000 1.0
C      1  0.5056850000000  0.4159220000000  0.4836720000000 1.0
C      1  0.5086530000000  0.4605100000000  0.5725300000000 1.0
C      1  0.4796700000000  0.4994090000000  0.4989650000000 1.0
END
