TITL C-2622966-9038-629 0.000518202669019065 125000 -855.947509038406 0 0 157 (C1) n - 1
REM
REM in /nfs/bkarasulu/CARBON/AIRSS/Generating-Clusters/AIREBO/with-SteepDescent/Higher-Symm/SD-CG/HFTN-CG
REM
REM
REM
REM
REM
REM ./C.cell (b20cbc046b6831c77cfcea5457e17084)
REM
REM compiler GCC version 9.2.1 20190827 (Red Hat 9.2.1-1)
REM options -cpp -mtune=generic -march=x86-64 -g -O0 -fpre-include=/usr/include/finclude/math-vector-fortran.h
REM seed 1621608661 2091283212 -19882198 1937809845 -1848117123 755827374 -1006036840 1339217229 -1774072069 1744781846 -295568671 131791075 -1356148967 -2089525096 -375888911 -1677182029 -914248638 1276763510 1663482082 -2125315837 784634912 -507410363 801296323 -1933229167 -1161019680 -959197927 -1919586570 1873651987 -1580860780 947024259 1612145333 177295822 -103003206
REM
CELL 1.54180   50.00000   50.00000   50.00000   90.00000   90.00000   90.00000
LATT -1
SFAC C  
C      1  0.3839570000000  0.5233680000000  0.5226710000000 1.0
C      1  0.4346640000000  0.5136190000000  0.4004590000000 1.0
C      1  0.5729730000000  0.5153330000000  0.4092560000000 1.0
C      1  0.6121730000000  0.5146010000000  0.5502240000000 1.0
C      1  0.4864280000000  0.5182060000000  0.6173630000000 1.0
C      1  0.4629300000000  0.5537130000000  0.5625210000000 1.0
C      1  0.4210470000000  0.5500100000000  0.4803880000000 1.0
C      1  0.4875510000000  0.5522830000000  0.4189320000000 1.0
C      1  0.5753830000000  0.5530370000000  0.4664450000000 1.0
C      1  0.5540500000000  0.5493550000000  0.5550080000000 1.0
C      1  0.4790040000000  0.5148640000000  0.4693660000000 1.0
C      1  0.5298360000000  0.5133320000000  0.4806070000000 1.0
C      1  0.5275430000000  0.5112050000000  0.5144870000000 1.0
C      1  0.5007870000000  0.5100780000000  0.5364580000000 1.0
C      1  0.4612000000000  0.5102400000000  0.5137350000000 1.0
C      1  0.4462440000000  0.4616160000000  0.5050390000000 1.0
C      1  0.4808030000000  0.4655480000000  0.4502810000000 1.0
C      1  0.5430240000000  0.4627910000000  0.4674240000000 1.0
C      1  0.5484450000000  0.4539030000000  0.5304350000000 1.0
C      1  0.4842980000000  0.4599310000000  0.5545020000000 1.0
C      1  0.4503810000000  0.5262030000000  0.5492840000000 1.0
C      1  0.4359640000000  0.5197480000000  0.4708510000000 1.0
C      1  0.5008220000000  0.5251890000000  0.4375030000000 1.0
C      1  0.5686370000000  0.5255150000000  0.4854540000000 1.0
C      1  0.5356790000000  0.5208580000000  0.5523530000000 1.0
C      1  0.6154670000000  0.4747810000000  0.4720860000000 1.0
C      1  0.5542910000000  0.4794490000000  0.5952570000000 1.0
C      1  0.4206410000000  0.4750150000000  0.5794300000000 1.0
C      1  0.4028880000000  0.4767760000000  0.4530550000000 1.0
C      1  0.5168880000000  0.4787970000000  0.3927380000000 1.0
C      1  0.4463540000000  0.4827790000000  0.4244780000000 1.0
C      1  0.5564150000000  0.4840430000000  0.4278210000000 1.0
C      1  0.6003400000000  0.4731920000000  0.5171970000000 1.0
C      1  0.5072110000000  0.4799030000000  0.5888790000000 1.0
C      1  0.4077860000000  0.4795200000000  0.5288310000000 1.0
C      1  0.5021830000000  0.4467330000000  0.4316670000000 1.0
C      1  0.5682310000000  0.4438300000000  0.4801330000000 1.0
C      1  0.5407370000000  0.4373550000000  0.5603440000000 1.0
C      1  0.4551000000000  0.4433230000000  0.5597890000000 1.0
C      1  0.4343180000000  0.4441850000000  0.4783590000000 1.0
C      1  0.5603450000000  0.5223920000000  0.4465050000000 1.0
C      1  0.5737320000000  0.5182220000000  0.5403570000000 1.0
C      1  0.4759310000000  0.5198280000000  0.5788580000000 1.0
C      1  0.4210010000000  0.5216640000000  0.5079870000000 1.0
C      1  0.4622530000000  0.5233850000000  0.4275270000000 1.0
C      1  0.6016480000000  0.5182670000000  0.4891940000000 1.0
C      1  0.5365340000000  0.5231330000000  0.5858130000000 1.0
C      1  0.4212840000000  0.5185170000000  0.5616140000000 1.0
C      1  0.4109830000000  0.5250370000000  0.4508900000000 1.0
C      1  0.5175970000000  0.5248320000000  0.4096790000000 1.0
C      1  0.5079100000000  0.5858590000000  0.5445710000000 1.0
C      1  0.4619340000000  0.5885590000000  0.5180870000000 1.0
C      1  0.4653860000000  0.5965160000000  0.4666710000000 1.0
C      1  0.5186630000000  0.5943800000000  0.4575070000000 1.0
C      1  0.5468920000000  0.5847810000000  0.5046590000000 1.0
C      1  0.4863640000000  0.4778910000000  0.4043620000000 1.0
C      1  0.5891530000000  0.4769510000000  0.4552810000000 1.0
C      1  0.5683550000000  0.4811060000000  0.5670440000000 1.0
C      1  0.4523070000000  0.4797690000000  0.5885280000000 1.0
C      1  0.4039200000000  0.4771310000000  0.4857160000000 1.0
C      1  0.5034390000000  0.4928300000000  0.4286810000000 1.0
C      1  0.5731450000000  0.4920120000000  0.4812340000000 1.0
C      1  0.5443360000000  0.4918200000000  0.5453620000000 1.0
C      1  0.4552400000000  0.4934840000000  0.5575010000000 1.0
C      1  0.4330440000000  0.4908500000000  0.4777050000000 1.0
C      1  0.4305960000000  0.5330820000000  0.4251140000000 1.0
C      1  0.5483750000000  0.5325950000000  0.4164250000000 1.0
C      1  0.6001400000000  0.5287820000000  0.5215080000000 1.0
C      1  0.5069420000000  0.5298140000000  0.6011860000000 1.0
C      1  0.4098090000000  0.5356150000000  0.5365700000000 1.0
C      1  0.5111270000000  0.4865160000000  0.4712670000000 1.0
C      1  0.5354490000000  0.4809560000000  0.5020670000000 1.0
C      1  0.5142040000000  0.4797050000000  0.5351490000000 1.0
C      1  0.4741130000000  0.4832640000000  0.5238710000000 1.0
C      1  0.4737310000000  0.4866270000000  0.4843650000000 1.0
C      1  0.5528190000000  0.4501970000000  0.4308830000000 1.0
C      1  0.5872340000000  0.4457890000000  0.5263760000000 1.0
C      1  0.4968320000000  0.4485140000000  0.5906780000000 1.0
C      1  0.4161240000000  0.4465900000000  0.5265800000000 1.0
C      1  0.4505270000000  0.4493500000000  0.4299210000000 1.0
C      1  0.4887560000000  0.4925050000000  0.5632010000000 1.0
C      1  0.4325280000000  0.4921820000000  0.5108500000000 1.0
C      1  0.4722850000000  0.4971700000000  0.4411170000000 1.0
C      1  0.5489500000000  0.4952150000000  0.4590660000000 1.0
C      1  0.5736150000000  0.4889290000000  0.5283180000000 1.0
C      1  0.5351030000000  0.4968570000000  0.4046280000000 1.0
C      1  0.6119180000000  0.4877760000000  0.4959880000000 1.0
C      1  0.5306420000000  0.4935310000000  0.5965880000000 1.0
C      1  0.4094960000000  0.4904360000000  0.5587160000000 1.0
C      1  0.4179160000000  0.4947450000000  0.4370860000000 1.0
C      1  0.3891690000000  0.4987970000000  0.5036900000000 1.0
C      1  0.4619020000000  0.4973970000000  0.3979060000000 1.0
C      1  0.5873290000000  0.4979250000000  0.4313150000000 1.0
C      1  0.5944590000000  0.5027010000000  0.5701280000000 1.0
C      1  0.4608550000000  0.5035590000000  0.6112880000000 1.0
C      1  0.5036230000000  0.3970720000000  0.5253620000000 1.0
C      1  0.4776920000000  0.3989730000000  0.5104620000000 1.0
C      1  0.4839990000000  0.4001550000000  0.4812970000000 1.0
C      1  0.5135740000000  0.3996720000000  0.4778760000000 1.0
C      1  0.5260720000000  0.3976910000000  0.5050510000000 1.0
C      1  0.5064850000000  0.4028390000000  0.5536690000000 1.0
C      1  0.4532270000000  0.4078290000000  0.5234880000000 1.0
C      1  0.4648130000000  0.4089620000000  0.4616600000000 1.0
C      1  0.5260620000000  0.4094940000000  0.4535570000000 1.0
C      1  0.5538980000000  0.4058680000000  0.5084620000000 1.0
C      1  0.5038780000000  0.5735370000000  0.4349810000000 1.0
C      1  0.5685960000000  0.5797710000000  0.4787090000000 1.0
C      1  0.5379880000000  0.5743230000000  0.5560720000000 1.0
C      1  0.4580620000000  0.5782880000000  0.5504680000000 1.0
C      1  0.4359430000000  0.5795150000000  0.4723490000000 1.0
C      1  0.4566260000000  0.5542670000000  0.4329770000000 1.0
C      1  0.5499260000000  0.5528980000000  0.4438780000000 1.0
C      1  0.5727490000000  0.5482700000000  0.5266260000000 1.0
C      1  0.4929280000000  0.5468100000000  0.5760340000000 1.0
C      1  0.4288140000000  0.5521860000000  0.5134230000000 1.0
C      1  0.5230470000000  0.4528560000000  0.4892410000000 1.0
C      1  0.5184150000000  0.4496970000000  0.5196810000000 1.0
C      1  0.4876450000000  0.4520630000000  0.5242650000000 1.0
C      1  0.4747470000000  0.4547180000000  0.4960860000000 1.0
C      1  0.4969920000000  0.4558120000000  0.4749870000000 1.0
C      1  0.5245500000000  0.5412980000000  0.5293900000000 1.0
C      1  0.4777620000000  0.5344740000000  0.5308980000000 1.0
C      1  0.4596650000000  0.5341650000000  0.4896180000000 1.0
C      1  0.4864710000000  0.5462640000000  0.4582730000000 1.0
C      1  0.5399920000000  0.5433960000000  0.4812800000000 1.0
C      1  0.5760310000000  0.4498290000000  0.4494940000000 1.0
C      1  0.5712160000000  0.4514070000000  0.5548990000000 1.0
C      1  0.4677550000000  0.4508530000000  0.5894610000000 1.0
C      1  0.4091590000000  0.4490220000000  0.4980630000000 1.0
C      1  0.4756680000000  0.4499880000000  0.4139670000000 1.0
C      1  0.4435270000000  0.5186370000000  0.5874060000000 1.0
C      1  0.3985850000000  0.5245290000000  0.4825790000000 1.0
C      1  0.4846050000000  0.5232260000000  0.4014950000000 1.0
C      1  0.5928870000000  0.5209900000000  0.4563430000000 1.0
C      1  0.5686980000000  0.5246590000000  0.5733790000000 1.0
C      1  0.4379970000000  0.4297290000000  0.5353480000000 1.0
C      1  0.4494960000000  0.4318750000000  0.4527510000000 1.0
C      1  0.5304340000000  0.4333280000000  0.4372560000000 1.0
C      1  0.5717700000000  0.4292850000000  0.5078290000000 1.0
C      1  0.5130900000000  0.4234080000000  0.5744400000000 1.0
C      1  0.4523940000000  0.4692450000000  0.4662970000000 1.0
C      1  0.5200170000000  0.4711080000000  0.4449000000000 1.0
C      1  0.5634220000000  0.4681430000000  0.5034150000000 1.0
C      1  0.5171410000000  0.4583600000000  0.5585630000000 1.0
C      1  0.4489490000000  0.4679110000000  0.5379680000000 1.0
C      1  0.5393190000000  0.5933150000000  0.4735450000000 1.0
C      1  0.5364680000000  0.5944230000000  0.5304640000000 1.0
C      1  0.4815980000000  0.5984740000000  0.5428050000000 1.0
C      1  0.4502630000000  0.6009660000000  0.4942680000000 1.0
C      1  0.4871690000000  0.5979870000000  0.4516860000000 1.0
C      1  0.5463370000000  0.5539330000000  0.5102370000000 1.0
C      1  0.5009080000000  0.5548970000000  0.5451690000000 1.0
C      1  0.4592560000000  0.5577470000000  0.5144040000000 1.0
C      1  0.4572350000000  0.5575110000000  0.4650120000000 1.0
C      1  0.5194640000000  0.5545300000000  0.4584780000000 1.0
C      1  0.5015290000000  0.4832370000000  0.5037340000000 1.0
C      1  0.5017650000000  0.5240050000000  0.4874260000000 1.0
END
