TITL C-2622967-6265-61 0.000734293848296655 125000 -43.8482839620811 0 0 9 (C1) n - 1
REM
REM in /nfs/bkarasulu/CARBON/AIRSS/Generating-Clusters/AIREBO/with-SteepDescent/Higher-Symm/SD-CG/HFTN-CG
REM
REM
REM
REM
REM
REM ./C.cell (b20cbc046b6831c77cfcea5457e17084)
REM
REM compiler GCC version 9.2.1 20190827 (Red Hat 9.2.1-1)
REM options -cpp -mtune=generic -march=x86-64 -g -O0 -fpre-include=/usr/include/finclude/math-vector-fortran.h
REM seed 18366306 -1133346437 -152668746 2060040013 2021097347 887875370 1919741296 990934446 1423368405 1338553270 604809713 -258793893 386059109 1698841357 633548041 69175274 -210604552 968772642 1915106460 -930687889 -1043456415 926059796 1049223911 -2070177331 -1904371103 -465293814 2063450251 -892557598 651057374 276624469 -521157433 -679950996 -970610739
REM
CELL 1.54180   50.00000   50.00000   50.00000   90.00000   90.00000   90.00000
LATT -1
SFAC C  
C      1  0.4881260000000  0.4717450000000  0.4878590000000 1.0
C      1  0.5147690000000  0.4785490000000  0.5044920000000 1.0
C      1  0.4965050000000  0.5136230000000  0.5020060000000 1.0
C      1  0.4680350000000  0.5094210000000  0.5038400000000 1.0
C      1  0.4630060000000  0.4826630000000  0.4962050000000 1.0
C      1  0.5094330000000  0.4958120000000  0.4756860000000 1.0
C      1  0.5150200000000  0.5019450000000  0.5247850000000 1.0
C      1  0.5199640000000  0.5031330000000  0.4521220000000 1.0
C      1  0.5250200000000  0.5086390000000  0.5482030000000 1.0
END
