TITL C-2622966-9038-69 -0.00565277432760143 125000 -436.596933901688 0 0 80 (C1) n - 1
REM
REM in /nfs/bkarasulu/CARBON/AIRSS/Generating-Clusters/AIREBO/with-SteepDescent/Higher-Symm/SD-CG/HFTN-CG
REM
REM
REM
REM
REM
REM ./C.cell (b20cbc046b6831c77cfcea5457e17084)
REM
REM compiler GCC version 9.2.1 20190827 (Red Hat 9.2.1-1)
REM options -cpp -mtune=generic -march=x86-64 -g -O0 -fpre-include=/usr/include/finclude/math-vector-fortran.h
REM seed -1354693971 202006098 509276027 -2137249510 1026866511 -1776129379 1339820598 1736923017 862253502 -1359427402 1125978808 -1775395775 683920316 -487427844 -1297268807 630050283 771008228 -842338091 1559318125 -245247615 -818225091 1353831652 1326001627 -911738979 -1107342196 2056882346 1120962866 -140447424 976749476 -1290851287 -1640946473 -741566387 2020189882
REM
CELL 1.54180   50.00000   50.00000   50.00000   90.00000   90.00000   90.00000
LATT -1
SFAC C  
C      1  0.5304780000000  0.5502500000000  0.5699300000000 1.0
C      1  0.5238670000000  0.4536590000000  0.5750010000000 1.0
C      1  0.4414230000000  0.5026540000000  0.5805110000000 1.0
C      1  0.5161920000000  0.5402290000000  0.4288960000000 1.0
C      1  0.5277150000000  0.4592610000000  0.4343370000000 1.0
C      1  0.4451880000000  0.5024720000000  0.4206230000000 1.0
C      1  0.4721530000000  0.5611460000000  0.5780090000000 1.0
C      1  0.4647670000000  0.4545250000000  0.5659140000000 1.0
C      1  0.5502450000000  0.4981260000000  0.5719260000000 1.0
C      1  0.4699820000000  0.5446210000000  0.4124730000000 1.0
C      1  0.4731560000000  0.4491450000000  0.4134550000000 1.0
C      1  0.5514490000000  0.5037820000000  0.4274160000000 1.0
C      1  0.4831430000000  0.5293710000000  0.5828500000000 1.0
C      1  0.5283910000000  0.4982160000000  0.5886260000000 1.0
C      1  0.4841860000000  0.4780220000000  0.5818400000000 1.0
C      1  0.4840740000000  0.5202810000000  0.4007350000000 1.0
C      1  0.5290070000000  0.4990380000000  0.4098590000000 1.0
C      1  0.4845830000000  0.4741390000000  0.4191700000000 1.0
C      1  0.5136040000000  0.5254660000000  0.5864300000000 1.0
C      1  0.4695570000000  0.5033000000000  0.5898160000000 1.0
C      1  0.5134740000000  0.4749690000000  0.5893610000000 1.0
C      1  0.5118090000000  0.5217040000000  0.4074540000000 1.0
C      1  0.4692130000000  0.4974190000000  0.4082210000000 1.0
C      1  0.5159790000000  0.4748670000000  0.4150680000000 1.0
C      1  0.5536030000000  0.4541350000000  0.4856390000000 1.0
C      1  0.4351980000000  0.4757200000000  0.4872180000000 1.0
C      1  0.5177630000000  0.5603710000000  0.4789250000000 1.0
C      1  0.5593290000000  0.4434920000000  0.5177990000000 1.0
C      1  0.4416600000000  0.4801240000000  0.5190510000000 1.0
C      1  0.5199870000000  0.5688310000000  0.5256930000000 1.0
C      1  0.4519510000000  0.4521090000000  0.4762280000000 1.0
C      1  0.5780540000000  0.4774880000000  0.4830650000000 1.0
C      1  0.4847420000000  0.5573940000000  0.4865050000000 1.0
C      1  0.4582090000000  0.4510020000000  0.5248980000000 1.0
C      1  0.5678060000000  0.4763360000000  0.5154650000000 1.0
C      1  0.4893880000000  0.5686120000000  0.5174680000000 1.0
C      1  0.4662080000000  0.5030520000000  0.5210650000000 1.0
C      1  0.5133190000000  0.5372760000000  0.5239280000000 1.0
C      1  0.5146100000000  0.4717780000000  0.5174460000000 1.0
C      1  0.4652510000000  0.5037900000000  0.4730740000000 1.0
C      1  0.5124030000000  0.5290990000000  0.4912870000000 1.0
C      1  0.5272540000000  0.4713400000000  0.4864900000000 1.0
C      1  0.5405700000000  0.4916300000000  0.5182350000000 1.0
C      1  0.4834130000000  0.5292290000000  0.5210380000000 1.0
C      1  0.4808370000000  0.4742230000000  0.5143770000000 1.0
C      1  0.5327390000000  0.5026470000000  0.4870050000000 1.0
C      1  0.4794260000000  0.5238540000000  0.4881830000000 1.0
C      1  0.4746670000000  0.4748150000000  0.4808890000000 1.0
C      1  0.4775290000000  0.4350460000000  0.4840270000000 1.0
C      1  0.4511020000000  0.5518690000000  0.4862620000000 1.0
C      1  0.5771260000000  0.5072000000000  0.4918550000000 1.0
C      1  0.4811500000000  0.4343020000000  0.5124960000000 1.0
C      1  0.4575860000000  0.5589020000000  0.5154770000000 1.0
C      1  0.5771920000000  0.5096130000000  0.5212590000000 1.0
C      1  0.5298690000000  0.4304930000000  0.4794860000000 1.0
C      1  0.5467330000000  0.5494350000000  0.4887180000000 1.0
C      1  0.4274710000000  0.5074720000000  0.4940250000000 1.0
C      1  0.5324700000000  0.4297630000000  0.5091240000000 1.0
C      1  0.5487460000000  0.5542220000000  0.5172350000000 1.0
C      1  0.4276120000000  0.5112980000000  0.5245130000000 1.0
C      1  0.5457970000000  0.5117860000000  0.4569050000000 1.0
C      1  0.4901880000000  0.4815700000000  0.4513890000000 1.0
C      1  0.4710840000000  0.5275720000000  0.4378070000000 1.0
C      1  0.5438960000000  0.5092930000000  0.5432070000000 1.0
C      1  0.4872310000000  0.4730470000000  0.5483300000000 1.0
C      1  0.4761180000000  0.5424480000000  0.5515390000000 1.0
C      1  0.4439760000000  0.5165880000000  0.4500950000000 1.0
C      1  0.5126370000000  0.4618220000000  0.4617450000000 1.0
C      1  0.5179060000000  0.5261730000000  0.4578600000000 1.0
C      1  0.4568510000000  0.5077080000000  0.5522730000000 1.0
C      1  0.5132400000000  0.4532710000000  0.5459420000000 1.0
C      1  0.5170210000000  0.5242490000000  0.5526120000000 1.0
C      1  0.5624890000000  0.5275340000000  0.4778870000000 1.0
C      1  0.5618560000000  0.5333130000000  0.5319080000000 1.0
C      1  0.5015130000000  0.4339900000000  0.4695590000000 1.0
C      1  0.4354340000000  0.5297580000000  0.4775560000000 1.0
C      1  0.5080190000000  0.4328560000000  0.5232010000000 1.0
C      1  0.4468900000000  0.5355970000000  0.5355660000000 1.0
C      1  0.4907910000000  0.5052920000000  0.5520710000000 1.0
C      1  0.4932350000000  0.5123020000000  0.4459930000000 1.0
END
