TITL C-2622954-8726-524 -0.00256341119076051 125000 -1065.23235346597 0 0 188 (C1) n - 1
REM
REM in /nfs/bkarasulu/CARBON/AIRSS/Generating-Clusters/AIREBO/with-SteepDescent/Higher-Symm/SD-CG/HFTN-CG
REM
REM
REM
REM
REM
REM ./C.cell (b20cbc046b6831c77cfcea5457e17084)
REM
REM compiler GCC version 9.2.1 20190827 (Red Hat 9.2.1-1)
REM options -cpp -mtune=generic -march=x86-64 -g -O0 -fpre-include=/usr/include/finclude/math-vector-fortran.h
REM seed 2130158255 716166902 490896709 -2115914457 1475705360 430796610 -1430146896 45809194 -538055193 -1204018905 -940302873 1512007359 -1717235441 -961726177 995850569 -765006035 -1775327487 1480391371 167181056 1532138026 -1411786761 309699030 296145382 840915714 1605064859 1559752053 -1731905086 1369401098 -1754239931 1774515369 -1844671108 -1460820978 625518463
REM
CELL 1.54180   50.00000   50.00000   50.00000   90.00000   90.00000   90.00000
LATT -1
SFAC C  
C      1  0.5722030000000  0.4333780000000  0.4969720000000 1.0
C      1  0.5859420000000  0.4633730000000  0.4325080000000 1.0
C      1  0.5777140000000  0.5337270000000  0.4430080000000 1.0
C      1  0.5905200000000  0.5679120000000  0.5021750000000 1.0
C      1  0.5879330000000  0.5331060000000  0.5650520000000 1.0
C      1  0.5776600000000  0.4617410000000  0.5616280000000 1.0
C      1  0.4122520000000  0.5711310000000  0.4986960000000 1.0
C      1  0.4183530000000  0.5329030000000  0.4351760000000 1.0
C      1  0.4137350000000  0.4631980000000  0.4107390000000 1.0
C      1  0.4308170000000  0.4295720000000  0.5029690000000 1.0
C      1  0.4184320000000  0.4631550000000  0.5733850000000 1.0
C      1  0.4166210000000  0.5371020000000  0.5629690000000 1.0
C      1  0.5501030000000  0.4758750000000  0.5162740000000 1.0
C      1  0.5645780000000  0.4819480000000  0.4878810000000 1.0
C      1  0.5523360000000  0.5041130000000  0.4709410000000 1.0
C      1  0.5521050000000  0.5341800000000  0.4868240000000 1.0
C      1  0.5455080000000  0.5320440000000  0.5201160000000 1.0
C      1  0.5442980000000  0.5024030000000  0.5367360000000 1.0
C      1  0.4386360000000  0.5272110000000  0.5189060000000 1.0
C      1  0.4416700000000  0.5329680000000  0.4855260000000 1.0
C      1  0.4445690000000  0.5046950000000  0.4680700000000 1.0
C      1  0.4442240000000  0.4810790000000  0.4900390000000 1.0
C      1  0.4460590000000  0.4756810000000  0.5227020000000 1.0
C      1  0.4521860000000  0.5037160000000  0.5352340000000 1.0
C      1  0.4101570000000  0.5325610000000  0.5301100000000 1.0
C      1  0.4219790000000  0.4901500000000  0.5711630000000 1.0
C      1  0.4162300000000  0.4405010000000  0.5316780000000 1.0
C      1  0.4315480000000  0.4568500000000  0.4601830000000 1.0
C      1  0.4213730000000  0.5073900000000  0.4258150000000 1.0
C      1  0.4181660000000  0.5512770000000  0.4774220000000 1.0
C      1  0.5734630000000  0.4446530000000  0.5408940000000 1.0
C      1  0.5819620000000  0.5068990000000  0.5688910000000 1.0
C      1  0.5868200000000  0.5598960000000  0.5280770000000 1.0
C      1  0.5783600000000  0.5394890000000  0.4694380000000 1.0
C      1  0.5817910000000  0.4899860000000  0.4267990000000 1.0
C      1  0.5687180000000  0.4524240000000  0.4747090000000 1.0
C      1  0.4874240000000  0.5048970000000  0.5653960000000 1.0
C      1  0.4817260000000  0.4528640000000  0.5449270000000 1.0
C      1  0.4896200000000  0.4435190000000  0.4790180000000 1.0
C      1  0.4854310000000  0.4951950000000  0.4390770000000 1.0
C      1  0.4948310000000  0.5574680000000  0.4579990000000 1.0
C      1  0.4834660000000  0.5593550000000  0.5191750000000 1.0
C      1  0.5128740000000  0.4870910000000  0.5693930000000 1.0
C      1  0.5034870000000  0.5551060000000  0.5456350000000 1.0
C      1  0.5153740000000  0.5587060000000  0.4828810000000 1.0
C      1  0.5092570000000  0.5155460000000  0.4485710000000 1.0
C      1  0.5137240000000  0.4542390000000  0.4575550000000 1.0
C      1  0.5082780000000  0.4438810000000  0.5261210000000 1.0
C      1  0.4415510000000  0.4664070000000  0.4300370000000 1.0
C      1  0.4440650000000  0.5475490000000  0.4347210000000 1.0
C      1  0.4380650000000  0.5819050000000  0.5120310000000 1.0
C      1  0.4452440000000  0.5349040000000  0.5737830000000 1.0
C      1  0.4441780000000  0.4488860000000  0.5712740000000 1.0
C      1  0.4573290000000  0.4223920000000  0.4910170000000 1.0
C      1  0.5488880000000  0.5345250000000  0.4307080000000 1.0
C      1  0.5625000000000  0.4467090000000  0.4281360000000 1.0
C      1  0.5432010000000  0.4230020000000  0.5047730000000 1.0
C      1  0.5509950000000  0.4690390000000  0.5761850000000 1.0
C      1  0.5642670000000  0.5535820000000  0.5701550000000 1.0
C      1  0.5678760000000  0.5842470000000  0.4885390000000 1.0
C      1  0.4835150000000  0.5846240000000  0.4429580000000 1.0
C      1  0.4857060000000  0.5899730000000  0.5292570000000 1.0
C      1  0.4853110000000  0.5226540000000  0.5910960000000 1.0
C      1  0.4784010000000  0.4286650000000  0.5670960000000 1.0
C      1  0.4831430000000  0.3902270000000  0.4610570000000 1.0
C      1  0.4901950000000  0.4839170000000  0.4117580000000 1.0
C      1  0.5138030000000  0.4355120000000  0.4315290000000 1.0
C      1  0.5120160000000  0.4103820000000  0.5323180000000 1.0
C      1  0.5162090000000  0.4807520000000  0.6002560000000 1.0
C      1  0.5174760000000  0.5770850000000  0.5664610000000 1.0
C      1  0.5163590000000  0.5899640000000  0.4695010000000 1.0
C      1  0.5101240000000  0.5180900000000  0.4166610000000 1.0
C      1  0.5524540000000  0.5001170000000  0.5680450000000 1.0
C      1  0.5420180000000  0.4458060000000  0.5299740000000 1.0
C      1  0.5448560000000  0.4418060000000  0.4559410000000 1.0
C      1  0.5540150000000  0.5019670000000  0.4376150000000 1.0
C      1  0.5466050000000  0.5639870000000  0.4713450000000 1.0
C      1  0.5575420000000  0.5565750000000  0.5368480000000 1.0
C      1  0.4537880000000  0.5020600000000  0.5695290000000 1.0
C      1  0.4531320000000  0.5549150000000  0.5189450000000 1.0
C      1  0.4626570000000  0.5477940000000  0.4632460000000 1.0
C      1  0.4521630000000  0.4984300000000  0.4353960000000 1.0
C      1  0.4600010000000  0.4385810000000  0.4622890000000 1.0
C      1  0.4493390000000  0.4452520000000  0.5378550000000 1.0
C      1  0.5887670000000  0.4438490000000  0.5176460000000 1.0
C      1  0.5955830000000  0.4582610000000  0.4582890000000 1.0
C      1  0.5958060000000  0.5137760000000  0.4345950000000 1.0
C      1  0.5993570000000  0.5465460000000  0.4863350000000 1.0
C      1  0.6012460000000  0.5388620000000  0.5407720000000 1.0
C      1  0.5946280000000  0.4843230000000  0.5575900000000 1.0
C      1  0.3952070000000  0.5486610000000  0.5098970000000 1.0
C      1  0.4046780000000  0.5350720000000  0.4589390000000 1.0
C      1  0.4053240000000  0.4849290000000  0.4279290000000 1.0
C      1  0.4137040000000  0.4427740000000  0.4810060000000 1.0
C      1  0.4014720000000  0.4477660000000  0.5578980000000 1.0
C      1  0.4041290000000  0.5095870000000  0.5621060000000 1.0
C      1  0.4667180000000  0.4888880000000  0.3964310000000 1.0
C      1  0.4531850000000  0.5800800000000  0.4331350000000 1.0
C      1  0.4543340000000  0.5874510000000  0.5421320000000 1.0
C      1  0.4547910000000  0.5234020000000  0.6043250000000 1.0
C      1  0.4488150000000  0.4160740000000  0.5651620000000 1.0
C      1  0.4534970000000  0.3897580000000  0.4478220000000 1.0
C      1  0.5409560000000  0.5187480000000  0.4037680000000 1.0
C      1  0.5397540000000  0.4183120000000  0.4245750000000 1.0
C      1  0.5383000000000  0.3967350000000  0.5495050000000 1.0
C      1  0.5406240000000  0.4963590000000  0.6181730000000 1.0
C      1  0.5435900000000  0.5947840000000  0.5638700000000 1.0
C      1  0.5421430000000  0.6008320000000  0.4519410000000 1.0
C      1  0.5359650000000  0.5725970000000  0.4394090000000 1.0
C      1  0.5412360000000  0.5830260000000  0.5350310000000 1.0
C      1  0.5372680000000  0.5136880000000  0.5919160000000 1.0
C      1  0.5377250000000  0.4268930000000  0.5579170000000 1.0
C      1  0.5324310000000  0.4101300000000  0.4560070000000 1.0
C      1  0.5428520000000  0.4877200000000  0.4087240000000 1.0
C      1  0.4603460000000  0.4192020000000  0.4376260000000 1.0
C      1  0.4585690000000  0.4124520000000  0.5342750000000 1.0
C      1  0.4628840000000  0.4911350000000  0.6004240000000 1.0
C      1  0.4557340000000  0.5729810000000  0.5675930000000 1.0
C      1  0.4593190000000  0.5819100000000  0.4666930000000 1.0
C      1  0.4571950000000  0.5181790000000  0.4081570000000 1.0
C      1  0.5113080000000  0.5329370000000  0.5988180000000 1.0
C      1  0.5099670000000  0.4316630000000  0.5761010000000 1.0
C      1  0.5094710000000  0.3918280000000  0.4731540000000 1.0
C      1  0.5164860000000  0.4681610000000  0.4087920000000 1.0
C      1  0.5062510000000  0.5748530000000  0.4238840000000 1.0
C      1  0.5133650000000  0.5975340000000  0.5231340000000 1.0
C      1  0.4890600000000  0.4712330000000  0.6089110000000 1.0
C      1  0.4874650000000  0.5694270000000  0.5792820000000 1.0
C      1  0.4881400000000  0.6073900000000  0.4772780000000 1.0
C      1  0.4862810000000  0.5234630000000  0.3939570000000 1.0
C      1  0.4878110000000  0.4169650000000  0.4233400000000 1.0
C      1  0.4838010000000  0.3989700000000  0.5205580000000 1.0
C      1  0.4859020000000  0.4770690000000  0.5230470000000 1.0
C      1  0.4762920000000  0.4710700000000  0.4938950000000 1.0
C      1  0.4846200000000  0.4934510000000  0.4709280000000 1.0
C      1  0.4791600000000  0.5218800000000  0.4778110000000 1.0
C      1  0.4816390000000  0.5294780000000  0.5074470000000 1.0
C      1  0.4853560000000  0.5094280000000  0.5334690000000 1.0
C      1  0.5142640000000  0.5278810000000  0.5300750000000 1.0
C      1  0.5136020000000  0.5300540000000  0.4961400000000 1.0
C      1  0.5214590000000  0.5081020000000  0.4752920000000 1.0
C      1  0.5127350000000  0.4778160000000  0.4791720000000 1.0
C      1  0.5204080000000  0.4690210000000  0.5056440000000 1.0
C      1  0.5165570000000  0.4846430000000  0.5356630000000 1.0
C      1  0.5464020000000  0.4668480000000  0.6074240000000 1.0
C      1  0.5369170000000  0.3934420000000  0.5165380000000 1.0
C      1  0.5498890000000  0.4252780000000  0.3968360000000 1.0
C      1  0.5176790000000  0.5357730000000  0.3875100000000 1.0
C      1  0.5662680000000  0.6045980000000  0.4646640000000 1.0
C      1  0.5666040000000  0.5845040000000  0.5768390000000 1.0
C      1  0.4542030000000  0.5573160000000  0.5977470000000 1.0
C      1  0.4612140000000  0.6126660000000  0.5218150000000 1.0
C      1  0.4445710000000  0.5785280000000  0.4029490000000 1.0
C      1  0.4527440000000  0.4662680000000  0.3916780000000 1.0
C      1  0.4581250000000  0.3942910000000  0.4794410000000 1.0
C      1  0.4349500000000  0.3943860000000  0.5800960000000 1.0
C      1  0.4009070000000  0.4551100000000  0.5077740000000 1.0
C      1  0.4048190000000  0.4776910000000  0.4568330000000 1.0
C      1  0.3952810000000  0.5070810000000  0.4729850000000 1.0
C      1  0.3820990000000  0.5322180000000  0.4917060000000 1.0
C      1  0.3927870000000  0.5053650000000  0.5351120000000 1.0
C      1  0.3901480000000  0.4863500000000  0.5163980000000 1.0
C      1  0.6133180000000  0.5235540000000  0.4965520000000 1.0
C      1  0.6185830000000  0.5094080000000  0.4508750000000 1.0
C      1  0.5977820000000  0.4782800000000  0.4840140000000 1.0
C      1  0.6031490000000  0.4679010000000  0.5122130000000 1.0
C      1  0.6061670000000  0.4887990000000  0.5316920000000 1.0
C      1  0.6100730000000  0.5168500000000  0.5241490000000 1.0
C      1  0.5463200000000  0.4557400000000  0.4021870000000 1.0
C      1  0.5211160000000  0.5443160000000  0.4445850000000 1.0
C      1  0.5411130000000  0.5895650000000  0.5040460000000 1.0
C      1  0.5388300000000  0.5442520000000  0.5822830000000 1.0
C      1  0.5236700000000  0.4570970000000  0.5635610000000 1.0
C      1  0.5169300000000  0.4236210000000  0.4830940000000 1.0
C      1  0.4616530000000  0.5518330000000  0.4061700000000 1.0
C      1  0.4599570000000  0.4433800000000  0.4137970000000 1.0
C      1  0.4839220000000  0.4285400000000  0.5080240000000 1.0
C      1  0.4651150000000  0.4601390000000  0.5874670000000 1.0
C      1  0.4745250000000  0.5454100000000  0.5600590000000 1.0
C      1  0.4633800000000  0.5954230000000  0.4937690000000 1.0
C      1  0.4875040000000  0.4386000000000  0.5987810000000 1.0
C      1  0.4954790000000  0.5549570000000  0.4046950000000 1.0
C      1  0.5155650000000  0.5648750000000  0.5970090000000 1.0
C      1  0.4931050000000  0.4446950000000  0.4058640000000 1.0
C      1  0.5169060000000  0.6115710000000  0.4944630000000 1.0
C      1  0.5087790000000  0.3832450000000  0.5036480000000 1.0
C      1  0.4111230000000  0.4822130000000  0.4899430000000 1.0
C      1  0.6149990000000  0.5025280000000  0.4780200000000 1.0
END
