TITL C-2622965-4321-763 -0.000762761181507952 125000 -664.810924551925 0 0 123 (C1) n - 1
REM
REM in /nfs/bkarasulu/CARBON/AIRSS/Generating-Clusters/AIREBO/with-SteepDescent/Higher-Symm/SD-CG/HFTN-CG
REM
REM
REM
REM
REM
REM ./C.cell (b20cbc046b6831c77cfcea5457e17084)
REM
REM compiler GCC version 9.2.1 20190827 (Red Hat 9.2.1-1)
REM options -cpp -mtune=generic -march=x86-64 -g -O0 -fpre-include=/usr/include/finclude/math-vector-fortran.h
REM seed -1770098559 1445312249 282633189 239736430 -490153796 -1846102198 348939793 -1714687497 -1738708279 -131104316 1169455046 -1027556750 811852055 682820775 975306016 -761426464 -804058917 -406741685 -438281159 -140654015 -865369342 1831571800 1610274146 519568705 1174863333 876938447 1664128369 -1778449162 -454665278 2092726590 -1532334678 -1683465330 -83418447
REM
CELL 1.54180   50.00000   50.00000   50.00000   90.00000   90.00000   90.00000
LATT -1
SFAC C  
C      1  0.5196620000000  0.4424120000000  0.4996370000000 1.0
C      1  0.4607990000000  0.4405730000000  0.4986690000000 1.0
C      1  0.4220540000000  0.4723440000000  0.4953560000000 1.0
C      1  0.4499140000000  0.5449080000000  0.4897200000000 1.0
C      1  0.5103330000000  0.5669780000000  0.5079350000000 1.0
C      1  0.5526890000000  0.5262200000000  0.4841400000000 1.0
C      1  0.5598570000000  0.4782600000000  0.5165720000000 1.0
C      1  0.5163140000000  0.5435410000000  0.5696990000000 1.0
C      1  0.5422890000000  0.5218810000000  0.5661710000000 1.0
C      1  0.5469370000000  0.4910940000000  0.5695950000000 1.0
C      1  0.4861760000000  0.4556730000000  0.5747750000000 1.0
C      1  0.4668180000000  0.4821940000000  0.5687350000000 1.0
C      1  0.4421140000000  0.5003690000000  0.5805710000000 1.0
C      1  0.4900910000000  0.5327660000000  0.5619590000000 1.0
C      1  0.5073190000000  0.5354760000000  0.4821790000000 1.0
C      1  0.5428430000000  0.4984390000000  0.4702630000000 1.0
C      1  0.5195720000000  0.4866670000000  0.4846420000000 1.0
C      1  0.5045210000000  0.4586990000000  0.4739020000000 1.0
C      1  0.4759170000000  0.4667640000000  0.4879770000000 1.0
C      1  0.4685550000000  0.4985840000000  0.4810700000000 1.0
C      1  0.4819630000000  0.5539030000000  0.4829120000000 1.0
C      1  0.5052400000000  0.5920110000000  0.5423500000000 1.0
C      1  0.5772650000000  0.5493960000000  0.5288240000000 1.0
C      1  0.6021100000000  0.4519540000000  0.5243760000000 1.0
C      1  0.5243290000000  0.4128590000000  0.5471350000000 1.0
C      1  0.4626530000000  0.4257740000000  0.5470480000000 1.0
C      1  0.4014260000000  0.4951160000000  0.5500620000000 1.0
C      1  0.4455600000000  0.5427010000000  0.5496240000000 1.0
C      1  0.5364650000000  0.4736600000000  0.5484870000000 1.0
C      1  0.5093850000000  0.4587650000000  0.5537840000000 1.0
C      1  0.4526240000000  0.4729700000000  0.5397640000000 1.0
C      1  0.4315970000000  0.4946870000000  0.5424720000000 1.0
C      1  0.4741700000000  0.5500690000000  0.5421500000000 1.0
C      1  0.5424460000000  0.5607920000000  0.5579090000000 1.0
C      1  0.5599360000000  0.5146030000000  0.5380320000000 1.0
C      1  0.4306340000000  0.5306080000000  0.4650060000000 1.0
C      1  0.4844510000000  0.5778670000000  0.4614750000000 1.0
C      1  0.5400220000000  0.5520280000000  0.4653610000000 1.0
C      1  0.5708230000000  0.5007080000000  0.4508110000000 1.0
C      1  0.5439370000000  0.4466520000000  0.4557010000000 1.0
C      1  0.4891600000000  0.4316370000000  0.4601870000000 1.0
C      1  0.4415270000000  0.4641210000000  0.4416920000000 1.0
C      1  0.4026630000000  0.5473710000000  0.4746580000000 1.0
C      1  0.5041700000000  0.5960210000000  0.4673090000000 1.0
C      1  0.5708050000000  0.5539030000000  0.4616840000000 1.0
C      1  0.5877600000000  0.4770470000000  0.4611510000000 1.0
C      1  0.5523990000000  0.4200500000000  0.4756070000000 1.0
C      1  0.4665260000000  0.4080860000000  0.4614930000000 1.0
C      1  0.4185670000000  0.4740920000000  0.4556610000000 1.0
C      1  0.4820130000000  0.5768300000000  0.5226800000000 1.0
C      1  0.5467180000000  0.5635900000000  0.5241300000000 1.0
C      1  0.5856930000000  0.4983700000000  0.5254260000000 1.0
C      1  0.5375080000000  0.4460400000000  0.5283730000000 1.0
C      1  0.4843380000000  0.4303840000000  0.5209940000000 1.0
C      1  0.4251330000000  0.4595770000000  0.5248040000000 1.0
C      1  0.4349370000000  0.5215150000000  0.5252290000000 1.0
C      1  0.4421950000000  0.5605980000000  0.4538810000000 1.0
C      1  0.5314200000000  0.5823500000000  0.4685010000000 1.0
C      1  0.5826640000000  0.5276470000000  0.4578120000000 1.0
C      1  0.5710060000000  0.4558110000000  0.4682710000000 1.0
C      1  0.5207000000000  0.4236010000000  0.4638350000000 1.0
C      1  0.4563880000000  0.4385880000000  0.4533830000000 1.0
C      1  0.4152780000000  0.5003120000000  0.4676750000000 1.0
C      1  0.4823870000000  0.5325130000000  0.4441550000000 1.0
C      1  0.5159660000000  0.5341480000000  0.4493040000000 1.0
C      1  0.5325610000000  0.5057610000000  0.4405970000000 1.0
C      1  0.5347020000000  0.4717470000000  0.4377840000000 1.0
C      1  0.5042380000000  0.4639810000000  0.4402970000000 1.0
C      1  0.4850480000000  0.4847570000000  0.4288450000000 1.0
C      1  0.4590890000000  0.5141100000000  0.4563710000000 1.0
C      1  0.4981430000000  0.6135990000000  0.4895680000000 1.0
C      1  0.5814990000000  0.5727310000000  0.4802000000000 1.0
C      1  0.6075950000000  0.4793940000000  0.4823950000000 1.0
C      1  0.5580950000000  0.4071410000000  0.4991010000000 1.0
C      1  0.4641840000000  0.3934740000000  0.4836820000000 1.0
C      1  0.4051540000000  0.4498760000000  0.4761680000000 1.0
C      1  0.4199730000000  0.5502840000000  0.4984180000000 1.0
C      1  0.5210100000000  0.5514900000000  0.4214300000000 1.0
C      1  0.5590860000000  0.4982840000000  0.4210240000000 1.0
C      1  0.5513930000000  0.4723330000000  0.4081610000000 1.0
C      1  0.5002450000000  0.4408850000000  0.4190010000000 1.0
C      1  0.4572050000000  0.4826190000000  0.4284690000000 1.0
C      1  0.4430830000000  0.5089870000000  0.4268150000000 1.0
C      1  0.4689650000000  0.5594950000000  0.4454560000000 1.0
C      1  0.4447870000000  0.5274970000000  0.5768070000000 1.0
C      1  0.5151200000000  0.5775810000000  0.5676060000000 1.0
C      1  0.5687360000000  0.5411140000000  0.5583070000000 1.0
C      1  0.5574440000000  0.4818490000000  0.5917310000000 1.0
C      1  0.5119800000000  0.4303110000000  0.5665720000000 1.0
C      1  0.4708010000000  0.4305490000000  0.5720670000000 1.0
C      1  0.4146390000000  0.4913250000000  0.5782620000000 1.0
C      1  0.4388750000000  0.4482820000000  0.4782040000000 1.0
C      1  0.4035850000000  0.4974000000000  0.4952100000000 1.0
C      1  0.4397480000000  0.5807380000000  0.4755800000000 1.0
C      1  0.5289800000000  0.5877730000000  0.4973810000000 1.0
C      1  0.5859370000000  0.5278180000000  0.4879200000000 1.0
C      1  0.5704730000000  0.4557310000000  0.4952790000000 1.0
C      1  0.5185900000000  0.4094680000000  0.4938610000000 1.0
C      1  0.4685290000000  0.4027910000000  0.5089200000000 1.0
C      1  0.3993500000000  0.4434270000000  0.5090660000000 1.0
C      1  0.4206940000000  0.5522850000000  0.5279650000000 1.0
C      1  0.4912740000000  0.6087470000000  0.5154580000000 1.0
C      1  0.5746250000000  0.5742020000000  0.5062060000000 1.0
C      1  0.6048410000000  0.4769740000000  0.5112200000000 1.0
C      1  0.5488490000000  0.4143450000000  0.5250650000000 1.0
C      1  0.4452970000000  0.4361960000000  0.5261080000000 1.0
C      1  0.4031370000000  0.5101850000000  0.5196260000000 1.0
C      1  0.4551130000000  0.5762510000000  0.5018440000000 1.0
C      1  0.5325430000000  0.5943950000000  0.5266450000000 1.0
C      1  0.5902020000000  0.5269960000000  0.5150150000000 1.0
C      1  0.5702950000000  0.4481950000000  0.5269120000000 1.0
C      1  0.5092140000000  0.4109570000000  0.5219570000000 1.0
C      1  0.5007380000000  0.4602030000000  0.5215920000000 1.0
C      1  0.4743680000000  0.4814690000000  0.5178710000000 1.0
C      1  0.4627560000000  0.5126600000000  0.5097360000000 1.0
C      1  0.4805110000000  0.5381050000000  0.5129850000000 1.0
C      1  0.5258870000000  0.5402760000000  0.5100380000000 1.0
C      1  0.5408230000000  0.5132140000000  0.5133260000000 1.0
C      1  0.5261520000000  0.4827820000000  0.5173830000000 1.0
C      1  0.5044070000000  0.4958020000000  0.5400540000000 1.0
C      1  0.4876930000000  0.5048770000000  0.5587530000000 1.0
C      1  0.4945830000000  0.5099330000000  0.4248700000000 1.0
C      1  0.4980430000000  0.5070050000000  0.4850710000000 1.0
END
