TITL C-2622965-4321-165 0.000890121444212868 125000 -890.801098646507 0 0 161 (C1) n - 1
REM
REM in /nfs/bkarasulu/CARBON/AIRSS/Generating-Clusters/AIREBO/with-SteepDescent/Higher-Symm/SD-CG/HFTN-CG
REM
REM
REM
REM
REM
REM ./C.cell (b20cbc046b6831c77cfcea5457e17084)
REM
REM compiler GCC version 9.2.1 20190827 (Red Hat 9.2.1-1)
REM options -cpp -mtune=generic -march=x86-64 -g -O0 -fpre-include=/usr/include/finclude/math-vector-fortran.h
REM seed -617672956 -557134898 -1113271660 -874949673 1209265828 -1045306520 1832132189 -317741312 1835299724 1876383976 886008676 212451750 -1361617806 -867877845 -266883557 1123276026 1212679483 -1399655883 -1934436317 920491097 1281767990 -123940605 2080404826 -299283437 -791792535 -67512545 120670399 -368803244 1667252954 -2023923932 1841957387 1959566053 972553345
REM
CELL 1.54180   50.00000   50.00000   50.00000   90.00000   90.00000   90.00000
LATT -1
SFAC C  
C      1  0.4704110000000  0.5289390000000  0.5837650000000 1.0
C      1  0.4698610000000  0.4825680000000  0.4048690000000 1.0
C      1  0.5904320000000  0.4693510000000  0.4569580000000 1.0
C      1  0.5934270000000  0.5331270000000  0.5492620000000 1.0
C      1  0.5451460000000  0.5297720000000  0.5240480000000 1.0
C      1  0.5464420000000  0.4726720000000  0.4858430000000 1.0
C      1  0.4300990000000  0.4408930000000  0.5557550000000 1.0
C      1  0.4338910000000  0.5542040000000  0.4516940000000 1.0
C      1  0.4820240000000  0.4381880000000  0.4664590000000 1.0
C      1  0.4824600000000  0.5619340000000  0.5262090000000 1.0
C      1  0.5466240000000  0.4131470000000  0.4788170000000 1.0
C      1  0.5563490000000  0.5826380000000  0.5147170000000 1.0
C      1  0.5298550000000  0.4832730000000  0.5979020000000 1.0
C      1  0.5450930000000  0.5145240000000  0.3974520000000 1.0
C      1  0.5449730000000  0.4083660000000  0.5340270000000 1.0
C      1  0.5432430000000  0.5945040000000  0.4668970000000 1.0
C      1  0.3886780000000  0.5026770000000  0.4777670000000 1.0
C      1  0.3944970000000  0.4998960000000  0.5309660000000 1.0
C      1  0.4530030000000  0.5073610000000  0.4001160000000 1.0
C      1  0.4644790000000  0.4971520000000  0.5836860000000 1.0
C      1  0.5122560000000  0.4247620000000  0.5181640000000 1.0
C      1  0.5118390000000  0.5745360000000  0.4810860000000 1.0
C      1  0.5667960000000  0.4633940000000  0.5026200000000 1.0
C      1  0.5660550000000  0.5448820000000  0.5042400000000 1.0
C      1  0.5604180000000  0.5316560000000  0.4671090000000 1.0
C      1  0.5536950000000  0.4681660000000  0.5399470000000 1.0
C      1  0.4715970000000  0.4826080000000  0.5536510000000 1.0
C      1  0.4689270000000  0.5140460000000  0.4470150000000 1.0
C      1  0.4389860000000  0.4687550000000  0.5718340000000 1.0
C      1  0.4281960000000  0.5342090000000  0.4327580000000 1.0
C      1  0.5907390000000  0.5315570000000  0.4994930000000 1.0
C      1  0.5903920000000  0.4786060000000  0.5024870000000 1.0
C      1  0.4686970000000  0.4872990000000  0.6162600000000 1.0
C      1  0.4423550000000  0.5129670000000  0.3756520000000 1.0
C      1  0.5751890000000  0.5120230000000  0.5663230000000 1.0
C      1  0.5745950000000  0.4795150000000  0.4325150000000 1.0
C      1  0.5148230000000  0.5094180000000  0.3868010000000 1.0
C      1  0.5095270000000  0.5015540000000  0.6087670000000 1.0
C      1  0.4587450000000  0.4222590000000  0.5551460000000 1.0
C      1  0.4641350000000  0.5692790000000  0.4477960000000 1.0
C      1  0.5307140000000  0.4050410000000  0.5008720000000 1.0
C      1  0.5293440000000  0.5959060000000  0.4988700000000 1.0
C      1  0.4670360000000  0.4498250000000  0.4132950000000 1.0
C      1  0.4625120000000  0.5615140000000  0.5774260000000 1.0
C      1  0.5178950000000  0.5592380000000  0.5934220000000 1.0
C      1  0.5179140000000  0.4457500000000  0.4096400000000 1.0
C      1  0.5192420000000  0.5785540000000  0.5735900000000 1.0
C      1  0.5338890000000  0.4230000000000  0.4561790000000 1.0
C      1  0.4425890000000  0.4781290000000  0.6014430000000 1.0
C      1  0.4519110000000  0.5221240000000  0.4229490000000 1.0
C      1  0.4126140000000  0.5112470000000  0.4394310000000 1.0
C      1  0.4320620000000  0.4935150000000  0.5562460000000 1.0
C      1  0.5043850000000  0.5525870000000  0.5018920000000 1.0
C      1  0.5038370000000  0.4391360000000  0.4914080000000 1.0
C      1  0.5292050000000  0.4759520000000  0.4028760000000 1.0
C      1  0.5320330000000  0.5284590000000  0.5896940000000 1.0
C      1  0.4911810000000  0.5828250000000  0.4310610000000 1.0
C      1  0.4891820000000  0.4142330000000  0.5688550000000 1.0
C      1  0.5613830000000  0.4861030000000  0.4072270000000 1.0
C      1  0.5560760000000  0.5045430000000  0.5937600000000 1.0
C      1  0.4817040000000  0.5202180000000  0.5458920000000 1.0
C      1  0.4831180000000  0.4671430000000  0.4392330000000 1.0
C      1  0.4289780000000  0.5759330000000  0.5303420000000 1.0
C      1  0.4346440000000  0.4325540000000  0.4659330000000 1.0
C      1  0.4005430000000  0.5248380000000  0.5181720000000 1.0
C      1  0.3929220000000  0.4766390000000  0.4894240000000 1.0
C      1  0.5709750000000  0.5593000000000  0.4488840000000 1.0
C      1  0.5659820000000  0.4448220000000  0.5614060000000 1.0
C      1  0.5378720000000  0.5086610000000  0.4301630000000 1.0
C      1  0.5373970000000  0.4847280000000  0.5647720000000 1.0
C      1  0.4946270000000  0.4552370000000  0.5764220000000 1.0
C      1  0.4929190000000  0.5433190000000  0.4351910000000 1.0
C      1  0.5896470000000  0.5612530000000  0.5490460000000 1.0
C      1  0.5871610000000  0.4427200000000  0.4687770000000 1.0
C      1  0.5216370000000  0.5754280000000  0.4177270000000 1.0
C      1  0.5187870000000  0.4240900000000  0.5824360000000 1.0
C      1  0.5329130000000  0.5441330000000  0.4089380000000 1.0
C      1  0.5420660000000  0.4484940000000  0.5824310000000 1.0
C      1  0.6012010000000  0.5205600000000  0.5240990000000 1.0
C      1  0.5968650000000  0.4889880000000  0.4768280000000 1.0
C      1  0.5180000000000  0.4650770000000  0.4955770000000 1.0
C      1  0.5285650000000  0.5336370000000  0.4968320000000 1.0
C      1  0.4666930000000  0.4516480000000  0.5653650000000 1.0
C      1  0.4733480000000  0.5410090000000  0.4615940000000 1.0
C      1  0.4681100000000  0.4001450000000  0.4952240000000 1.0
C      1  0.4688980000000  0.5927950000000  0.5052870000000 1.0
C      1  0.4915530000000  0.4109560000000  0.5359440000000 1.0
C      1  0.4935770000000  0.5911670000000  0.4627510000000 1.0
C      1  0.5009020000000  0.5895000000000  0.5163960000000 1.0
C      1  0.4953630000000  0.4065270000000  0.4868380000000 1.0
C      1  0.5099680000000  0.5376240000000  0.5412360000000 1.0
C      1  0.5024210000000  0.4417180000000  0.4322860000000 1.0
C      1  0.5586790000000  0.5357340000000  0.4279380000000 1.0
C      1  0.5648200000000  0.4732770000000  0.5813150000000 1.0
C      1  0.4092470000000  0.4535740000000  0.4758650000000 1.0
C      1  0.4216630000000  0.5436710000000  0.5292280000000 1.0
C      1  0.4994680000000  0.4969850000000  0.5620220000000 1.0
C      1  0.4972630000000  0.4981580000000  0.4401500000000 1.0
C      1  0.4654970000000  0.4603850000000  0.4818400000000 1.0
C      1  0.4874880000000  0.5185770000000  0.5143030000000 1.0
C      1  0.5294390000000  0.4821460000000  0.5206350000000 1.0
C      1  0.5371310000000  0.5099350000000  0.4753340000000 1.0
C      1  0.5157810000000  0.4524000000000  0.6011950000000 1.0
C      1  0.4998730000000  0.5519870000000  0.4072770000000 1.0
C      1  0.4420770000000  0.5105720000000  0.4766000000000 1.0
C      1  0.4452430000000  0.4882010000000  0.5019860000000 1.0
C      1  0.5693910000000  0.4189840000000  0.5504900000000 1.0
C      1  0.5692580000000  0.5862080000000  0.4539590000000 1.0
C      1  0.4648200000000  0.5917550000000  0.4733130000000 1.0
C      1  0.4633650000000  0.4099730000000  0.5237350000000 1.0
C      1  0.5460890000000  0.5756180000000  0.5580530000000 1.0
C      1  0.5410280000000  0.4446350000000  0.4422260000000 1.0
C      1  0.5195880000000  0.4067320000000  0.5531030000000 1.0
C      1  0.5210320000000  0.5947060000000  0.4457360000000 1.0
C      1  0.4467290000000  0.4364220000000  0.5199020000000 1.0
C      1  0.4562580000000  0.5634520000000  0.4900450000000 1.0
C      1  0.5797920000000  0.4870360000000  0.5469060000000 1.0
C      1  0.5872020000000  0.5295360000000  0.4462700000000 1.0
C      1  0.5293650000000  0.4450440000000  0.5342230000000 1.0
C      1  0.5307370000000  0.5483390000000  0.4666360000000 1.0
C      1  0.4122610000000  0.5716030000000  0.5024680000000 1.0
C      1  0.4225940000000  0.4331520000000  0.4977280000000 1.0
C      1  0.4735180000000  0.4881120000000  0.5201220000000 1.0
C      1  0.4694940000000  0.4913970000000  0.4705170000000 1.0
C      1  0.4998210000000  0.4920910000000  0.4067930000000 1.0
C      1  0.4999260000000  0.5179750000000  0.5855860000000 1.0
C      1  0.5706180000000  0.4274580000000  0.4863150000000 1.0
C      1  0.5760910000000  0.5780680000000  0.5317290000000 1.0
C      1  0.5160670000000  0.5260230000000  0.4454460000000 1.0
C      1  0.5125050000000  0.4665230000000  0.5541980000000 1.0
C      1  0.4573410000000  0.5643440000000  0.5437470000000 1.0
C      1  0.4566260000000  0.4467450000000  0.4455230000000 1.0
C      1  0.4054710000000  0.4989270000000  0.5565220000000 1.0
C      1  0.3875260000000  0.5053650000000  0.4497440000000 1.0
C      1  0.4485740000000  0.5371140000000  0.5596280000000 1.0
C      1  0.4456270000000  0.4732280000000  0.4272360000000 1.0
C      1  0.5544310000000  0.4866510000000  0.4590150000000 1.0
C      1  0.5453410000000  0.5147730000000  0.5545750000000 1.0
C      1  0.5119020000000  0.4937560000000  0.4686650000000 1.0
C      1  0.5183670000000  0.5088820000000  0.5256640000000 1.0
C      1  0.4667680000000  0.4562420000000  0.5117190000000 1.0
C      1  0.4777360000000  0.5404320000000  0.4928400000000 1.0
C      1  0.4473510000000  0.4042780000000  0.4776390000000 1.0
C      1  0.4503030000000  0.5995060000000  0.5261230000000 1.0
C      1  0.4401400000000  0.5257270000000  0.5070280000000 1.0
C      1  0.4350560000000  0.4715880000000  0.4743730000000 1.0
C      1  0.5344950000000  0.5443430000000  0.5602280000000 1.0
C      1  0.5353410000000  0.4751000000000  0.4351790000000 1.0
C      1  0.3955500000000  0.4748540000000  0.5174070000000 1.0
C      1  0.4011140000000  0.5257310000000  0.4896650000000 1.0
C      1  0.5088870000000  0.5715000000000  0.5441280000000 1.0
C      1  0.5041600000000  0.4169950000000  0.4555400000000 1.0
C      1  0.5966100000000  0.4925360000000  0.5257620000000 1.0
C      1  0.5967100000000  0.5171470000000  0.4749790000000 1.0
C      1  0.5565400000000  0.4350690000000  0.5163600000000 1.0
C      1  0.5526190000000  0.5670910000000  0.4847080000000 1.0
C      1  0.4156730000000  0.4493840000000  0.5267910000000 1.0
C      1  0.4268920000000  0.5472820000000  0.4842890000000 1.0
C      1  0.4343210000000  0.4911690000000  0.4495760000000 1.0
C      1  0.4491540000000  0.5144050000000  0.5378580000000 1.0
C      1  0.4941470000000  0.4855550000000  0.4932070000000 1.0
END
