TITL C-2622967-6265-158 -0.00583922885700708 125000 -752.944167931596 0 0 134 (C1) n - 1
REM
REM in /nfs/bkarasulu/CARBON/AIRSS/Generating-Clusters/AIREBO/with-SteepDescent/Higher-Symm/SD-CG/HFTN-CG
REM
REM
REM
REM
REM
REM ./C.cell (b20cbc046b6831c77cfcea5457e17084)
REM
REM compiler GCC version 9.2.1 20190827 (Red Hat 9.2.1-1)
REM options -cpp -mtune=generic -march=x86-64 -g -O0 -fpre-include=/usr/include/finclude/math-vector-fortran.h
REM seed -289773714 -1134196091 559890858 -1056571163 494634038 -491434758 1928240243 -1402578198 -1052926824 -1527305658 -710652122 -1656683271 -838157439 179833368 -23263052 -646513121 -1317915578 134119762 1372349346 1004743934 1940293178 1072763976 1812402584 -1943898949 -404821234 1623120513 1598128731 2134549926 -1271548870 -204189909 1101708498 -420099871 -1562275714
REM
CELL 1.54180   50.00000   50.00000   50.00000   90.00000   90.00000   90.00000
LATT -1
SFAC C  
C      1  0.5956600000000  0.4939080000000  0.4304080000000 1.0
C      1  0.4064080000000  0.4425220000000  0.4672490000000 1.0
C      1  0.5965420000000  0.4488350000000  0.5338030000000 1.0
C      1  0.4005010000000  0.4999960000000  0.5572650000000 1.0
C      1  0.5874450000000  0.5574370000000  0.5256380000000 1.0
C      1  0.4116000000000  0.5555680000000  0.4728080000000 1.0
C      1  0.4057020000000  0.4903120000000  0.4343830000000 1.0
C      1  0.5851510000000  0.4362490000000  0.4744690000000 1.0
C      1  0.4106190000000  0.4543870000000  0.5426310000000 1.0
C      1  0.5868710000000  0.5123700000000  0.5534180000000 1.0
C      1  0.4112840000000  0.5438460000000  0.5278680000000 1.0
C      1  0.5814750000000  0.5407460000000  0.4467880000000 1.0
C      1  0.4916050000000  0.4830790000000  0.5237690000000 1.0
C      1  0.5053820000000  0.5116500000000  0.5285710000000 1.0
C      1  0.4861970000000  0.5362170000000  0.5149780000000 1.0
C      1  0.5178350000000  0.5297010000000  0.4779400000000 1.0
C      1  0.4906040000000  0.4922650000000  0.4640980000000 1.0
C      1  0.5095720000000  0.4704940000000  0.4987170000000 1.0
C      1  0.5339420000000  0.5111810000000  0.5842500000000 1.0
C      1  0.4644770000000  0.5747060000000  0.5281790000000 1.0
C      1  0.5385390000000  0.5636600000000  0.4342510000000 1.0
C      1  0.4637150000000  0.4868120000000  0.4151050000000 1.0
C      1  0.5351280000000  0.4178890000000  0.4691270000000 1.0
C      1  0.4608590000000  0.4252470000000  0.5545560000000 1.0
C      1  0.5564900000000  0.5186480000000  0.5446900000000 1.0
C      1  0.4380570000000  0.5400250000000  0.4984500000000 1.0
C      1  0.5618720000000  0.5234690000000  0.4655480000000 1.0
C      1  0.4381820000000  0.4752030000000  0.4519550000000 1.0
C      1  0.5626140000000  0.4462380000000  0.4978390000000 1.0
C      1  0.4392730000000  0.4678970000000  0.5471430000000 1.0
C      1  0.4114120000000  0.5606970000000  0.5028450000000 1.0
C      1  0.6034930000000  0.5212270000000  0.4358230000000 1.0
C      1  0.4078460000000  0.4655460000000  0.4497930000000 1.0
C      1  0.5947300000000  0.4399180000000  0.5070830000000 1.0
C      1  0.3920140000000  0.4721070000000  0.5553620000000 1.0
C      1  0.5976670000000  0.5397840000000  0.5460110000000 1.0
C      1  0.4715910000000  0.4911710000000  0.5471640000000 1.0
C      1  0.5202300000000  0.5397250000000  0.5164190000000 1.0
C      1  0.4865510000000  0.5325360000000  0.4803500000000 1.0
C      1  0.5225350000000  0.4995040000000  0.4664700000000 1.0
C      1  0.4784310000000  0.4771240000000  0.4867070000000 1.0
C      1  0.5285230000000  0.4548750000000  0.5174900000000 1.0
C      1  0.4263640000000  0.5124330000000  0.4433600000000 1.0
C      1  0.5761950000000  0.4485300000000  0.4500710000000 1.0
C      1  0.4208540000000  0.4378330000000  0.5194860000000 1.0
C      1  0.5692660000000  0.4839500000000  0.5597760000000 1.0
C      1  0.4342830000000  0.5414730000000  0.5436740000000 1.0
C      1  0.5740570000000  0.5604590000000  0.4734910000000 1.0
C      1  0.4286110000000  0.5710010000000  0.4561290000000 1.0
C      1  0.5735180000000  0.4923670000000  0.4127430000000 1.0
C      1  0.4275100000000  0.4241040000000  0.4608890000000 1.0
C      1  0.5692200000000  0.4456480000000  0.5483130000000 1.0
C      1  0.4269740000000  0.5042940000000  0.5725900000000 1.0
C      1  0.5609350000000  0.5718190000000  0.5285440000000 1.0
C      1  0.5204760000000  0.4887200000000  0.4215670000000 1.0
C      1  0.4822540000000  0.4302220000000  0.4666410000000 1.0
C      1  0.5181720000000  0.4348900000000  0.5512950000000 1.0
C      1  0.4772480000000  0.5202200000000  0.5828380000000 1.0
C      1  0.5153370000000  0.5861790000000  0.5132600000000 1.0
C      1  0.4854900000000  0.5692080000000  0.4487320000000 1.0
C      1  0.5899040000000  0.4748270000000  0.4515430000000 1.0
C      1  0.4111750000000  0.4499870000000  0.4945710000000 1.0
C      1  0.5948380000000  0.4793620000000  0.5382330000000 1.0
C      1  0.4006980000000  0.5143730000000  0.5262830000000 1.0
C      1  0.5858470000000  0.5469900000000  0.4967950000000 1.0
C      1  0.4142840000000  0.5279920000000  0.4686250000000 1.0
C      1  0.5034470000000  0.5376220000000  0.4139430000000 1.0
C      1  0.4981610000000  0.4435010000000  0.4196700000000 1.0
C      1  0.4981310000000  0.4059800000000  0.5097070000000 1.0
C      1  0.4966000000000  0.4672590000000  0.5870870000000 1.0
C      1  0.5020560000000  0.5653770000000  0.5804220000000 1.0
C      1  0.5016980000000  0.5993170000000  0.4781870000000 1.0
C      1  0.4553570000000  0.4689800000000  0.5185570000000 1.0
C      1  0.5405180000000  0.4940290000000  0.5340450000000 1.0
C      1  0.4584860000000  0.5228490000000  0.5171610000000 1.0
C      1  0.5448700000000  0.5228710000000  0.4901560000000 1.0
C      1  0.4456960000000  0.5032650000000  0.4697890000000 1.0
C      1  0.5467490000000  0.4709290000000  0.4839700000000 1.0
C      1  0.5447030000000  0.5926250000000  0.5244220000000 1.0
C      1  0.4540090000000  0.5617490000000  0.4556510000000 1.0
C      1  0.5506760000000  0.4925840000000  0.4270150000000 1.0
C      1  0.4512820000000  0.4352140000000  0.4679230000000 1.0
C      1  0.5491400000000  0.4337650000000  0.5616810000000 1.0
C      1  0.4560850000000  0.5017550000000  0.5821850000000 1.0
C      1  0.5307280000000  0.5960130000000  0.4846040000000 1.0
C      1  0.4762320000000  0.5436670000000  0.4283190000000 1.0
C      1  0.5213720000000  0.4570610000000  0.4248290000000 1.0
C      1  0.4763070000000  0.4238310000000  0.4995060000000 1.0
C      1  0.5232690000000  0.4633890000000  0.5689070000000 1.0
C      1  0.4752120000000  0.5482280000000  0.5715690000000 1.0
C      1  0.4806960000000  0.4513910000000  0.5179760000000 1.0
C      1  0.5139900000000  0.4924300000000  0.5552530000000 1.0
C      1  0.4940070000000  0.5528470000000  0.5436080000000 1.0
C      1  0.5128340000000  0.5608050000000  0.4907600000000 1.0
C      1  0.4921090000000  0.5215030000000  0.4486370000000 1.0
C      1  0.5191980000000  0.4652100000000  0.4687940000000 1.0
C      1  0.4751500000000  0.4443540000000  0.4365290000000 1.0
C      1  0.5222130000000  0.4224050000000  0.5200120000000 1.0
C      1  0.4692930000000  0.4733560000000  0.5737510000000 1.0
C      1  0.5222710000000  0.5514450000000  0.5627770000000 1.0
C      1  0.4817730000000  0.5720890000000  0.4824090000000 1.0
C      1  0.5223630000000  0.5208860000000  0.4325840000000 1.0
C      1  0.5181490000000  0.5690080000000  0.4581930000000 1.0
C      1  0.4899330000000  0.5008200000000  0.4217280000000 1.0
C      1  0.5120120000000  0.4378170000000  0.4584770000000 1.0
C      1  0.4866610000000  0.4299780000000  0.5395040000000 1.0
C      1  0.5034700000000  0.5098410000000  0.5825050000000 1.0
C      1  0.4930150000000  0.5832120000000  0.5322990000000 1.0
C      1  0.5827600000000  0.4873460000000  0.4783500000000 1.0
C      1  0.4218250000000  0.4797660000000  0.4956670000000 1.0
C      1  0.5805440000000  0.4897350000000  0.5094990000000 1.0
C      1  0.4224900000000  0.4887640000000  0.5262170000000 1.0
C      1  0.5749420000000  0.5207520000000  0.5161950000000 1.0
C      1  0.4166780000000  0.5136620000000  0.4961550000000 1.0
C      1  0.4438630000000  0.5088480000000  0.5434330000000 1.0
C      1  0.5509170000000  0.5448060000000  0.5154290000000 1.0
C      1  0.4565400000000  0.5345620000000  0.4704390000000 1.0
C      1  0.5550970000000  0.4928110000000  0.4593190000000 1.0
C      1  0.4479220000000  0.4646710000000  0.4799040000000 1.0
C      1  0.5593850000000  0.4675030000000  0.5241900000000 1.0
C      1  0.4523030000000  0.4264030000000  0.5235960000000 1.0
C      1  0.5470440000000  0.4864310000000  0.5769220000000 1.0
C      1  0.4546440000000  0.5587470000000  0.5494110000000 1.0
C      1  0.5491060000000  0.5760550000000  0.4704700000000 1.0
C      1  0.4567950000000  0.5156440000000  0.4289640000000 1.0
C      1  0.5432690000000  0.4412780000000  0.4455130000000 1.0
C      1  0.5436110000000  0.4223240000000  0.4974040000000 1.0
C      1  0.4521230000000  0.4479440000000  0.5678120000000 1.0
C      1  0.5415040000000  0.5323860000000  0.5668350000000 1.0
C      1  0.4593200000000  0.5663550000000  0.5018310000000 1.0
C      1  0.5488850000000  0.5363880000000  0.4371210000000 1.0
C      1  0.4573380000000  0.4653040000000  0.4314140000000 1.0
C      1  0.5418120000000  0.4957900000000  0.5022680000000 1.0
C      1  0.4572210000000  0.4969650000000  0.5011520000000 1.0
END
