TITL C-2622959-7779-205 0.000451555708340667 125000 -523.087837740596 0 0 96 (C1) n - 1
REM
REM in /nfs/bkarasulu/CARBON/AIRSS/Generating-Clusters/AIREBO/with-SteepDescent/Higher-Symm/SD-CG/HFTN-CG
REM
REM
REM
REM
REM
REM ./C.cell (b20cbc046b6831c77cfcea5457e17084)
REM
REM compiler GCC version 9.2.1 20190827 (Red Hat 9.2.1-1)
REM options -cpp -mtune=generic -march=x86-64 -g -O0 -fpre-include=/usr/include/finclude/math-vector-fortran.h
REM seed 2049590168 1499431142 380807423 -651074244 -675439254 1962459426 1056084659 -763076772 -695832290 205480825 1310217176 2111113700 391024676 1867726360 -2118973458 -1215004860 1245169163 487609007 -1575455559 928499269 -1868213446 2019752917 -1984476215 -1570300982 -507444837 847824652 -157602210 -96721767 -1624346017 -1660173549 43068200 47881929 -1700640675
REM
CELL 1.54180   50.00000   50.00000   50.00000   90.00000   90.00000   90.00000
LATT -1
SFAC C  
C      1  0.4985030000000  0.4800190000000  0.5816130000000 1.0
C      1  0.4393310000000  0.4854840000000  0.4565220000000 1.0
C      1  0.5670240000000  0.4845910000000  0.4633020000000 1.0
C      1  0.5071190000000  0.4848810000000  0.4134860000000 1.0
C      1  0.5634830000000  0.4889770000000  0.5420590000000 1.0
C      1  0.4295420000000  0.4979070000000  0.5461920000000 1.0
C      1  0.4955590000000  0.5080410000000  0.4704560000000 1.0
C      1  0.5099920000000  0.5148390000000  0.5134310000000 1.0
C      1  0.4784790000000  0.5174490000000  0.5116530000000 1.0
C      1  0.4861620000000  0.5746700000000  0.4538980000000 1.0
C      1  0.5447170000000  0.5755190000000  0.5084340000000 1.0
C      1  0.4695170000000  0.5741970000000  0.5372060000000 1.0
C      1  0.4864020000000  0.5348240000000  0.4287300000000 1.0
C      1  0.5635430000000  0.5307220000000  0.5213420000000 1.0
C      1  0.4407900000000  0.5367700000000  0.5509550000000 1.0
C      1  0.4203400000000  0.4723810000000  0.4891220000000 1.0
C      1  0.5527130000000  0.4751350000000  0.4274970000000 1.0
C      1  0.5372790000000  0.4717650000000  0.5771600000000 1.0
C      1  0.5171980000000  0.4393090000000  0.4266810000000 1.0
C      1  0.5613700000000  0.4443660000000  0.5444760000000 1.0
C      1  0.4291560000000  0.4576810000000  0.5374740000000 1.0
C      1  0.4783270000000  0.5248250000000  0.5915220000000 1.0
C      1  0.4422830000000  0.5148270000000  0.4396020000000 1.0
C      1  0.5884020000000  0.5245570000000  0.4778170000000 1.0
C      1  0.5578970000000  0.4557430000000  0.5126120000000 1.0
C      1  0.4621020000000  0.4554060000000  0.5455620000000 1.0
C      1  0.4775370000000  0.4592240000000  0.4515950000000 1.0
C      1  0.5398090000000  0.5038560000000  0.5385510000000 1.0
C      1  0.4404560000000  0.5084020000000  0.5229110000000 1.0
C      1  0.5186660000000  0.5103720000000  0.4253990000000 1.0
C      1  0.5730060000000  0.5097870000000  0.5006690000000 1.0
C      1  0.4585680000000  0.5136760000000  0.5684840000000 1.0
C      1  0.4671140000000  0.5133520000000  0.4250020000000 1.0
C      1  0.5603550000000  0.4680750000000  0.5606990000000 1.0
C      1  0.4341850000000  0.4703840000000  0.5132410000000 1.0
C      1  0.5265800000000  0.4642630000000  0.4163080000000 1.0
C      1  0.4791690000000  0.4235240000000  0.4694980000000 1.0
C      1  0.5298370000000  0.4303810000000  0.4960720000000 1.0
C      1  0.4853830000000  0.4247320000000  0.5349640000000 1.0
C      1  0.4874180000000  0.5546340000000  0.5569370000000 1.0
C      1  0.4627950000000  0.5518830000000  0.4634290000000 1.0
C      1  0.5536810000000  0.5550850000000  0.4837000000000 1.0
C      1  0.5253140000000  0.5221530000000  0.4772320000000 1.0
C      1  0.5011190000000  0.5262830000000  0.5433450000000 1.0
C      1  0.4633330000000  0.5261070000000  0.4856220000000 1.0
C      1  0.5827800000000  0.4690080000000  0.4843940000000 1.0
C      1  0.4702340000000  0.4658320000000  0.5832540000000 1.0
C      1  0.4476700000000  0.4708050000000  0.4282200000000 1.0
C      1  0.4873150000000  0.4744420000000  0.5329430000000 1.0
C      1  0.4702980000000  0.4679960000000  0.4836790000000 1.0
C      1  0.5333180000000  0.4738490000000  0.4976390000000 1.0
C      1  0.4159840000000  0.4994090000000  0.4769520000000 1.0
C      1  0.5669910000000  0.5024740000000  0.4351960000000 1.0
C      1  0.5259510000000  0.4986030000000  0.5875830000000 1.0
C      1  0.5696320000000  0.5415580000000  0.4641030000000 1.0
C      1  0.5000500000000  0.5388960000000  0.5812320000000 1.0
C      1  0.4366520000000  0.5361150000000  0.4578250000000 1.0
C      1  0.4512720000000  0.4818270000000  0.5640370000000 1.0
C      1  0.4790870000000  0.4815080000000  0.4259260000000 1.0
C      1  0.5791640000000  0.4821370000000  0.5153570000000 1.0
C      1  0.5178590000000  0.5535760000000  0.4660910000000 1.0
C      1  0.5156780000000  0.5534670000000  0.5286830000000 1.0
C      1  0.4637660000000  0.5548150000000  0.5023790000000 1.0
C      1  0.5157510000000  0.4942420000000  0.4510970000000 1.0
C      1  0.5169680000000  0.4859530000000  0.5208280000000 1.0
C      1  0.4639830000000  0.4866880000000  0.5114130000000 1.0
C      1  0.5237070000000  0.4505500000000  0.4753890000000 1.0
C      1  0.5065670000000  0.4474210000000  0.5404700000000 1.0
C      1  0.4589070000000  0.4387940000000  0.4891750000000 1.0
C      1  0.5322410000000  0.5350520000000  0.4300310000000 1.0
C      1  0.5395480000000  0.5286140000000  0.5532180000000 1.0
C      1  0.4317100000000  0.5316770000000  0.5092480000000 1.0
C      1  0.5203860000000  0.5745900000000  0.4899600000000 1.0
C      1  0.4942280000000  0.5733130000000  0.5198270000000 1.0
C      1  0.4877150000000  0.5726620000000  0.4874120000000 1.0
C      1  0.5463370000000  0.4991230000000  0.4844240000000 1.0
C      1  0.4868870000000  0.4985440000000  0.5569870000000 1.0
C      1  0.4669740000000  0.4967470000000  0.4728170000000 1.0
C      1  0.5033960000000  0.4405960000000  0.4546990000000 1.0
C      1  0.5311850000000  0.4389440000000  0.5253080000000 1.0
C      1  0.4616370000000  0.4333020000000  0.5197070000000 1.0
C      1  0.4695030000000  0.5343990000000  0.5362920000000 1.0
C      1  0.4920960000000  0.5360240000000  0.4602120000000 1.0
C      1  0.5341330000000  0.5373020000000  0.5051340000000 1.0
C      1  0.4539460000000  0.4416010000000  0.4340150000000 1.0
C      1  0.5766270000000  0.4393920000000  0.4891510000000 1.0
C      1  0.4689820000000  0.4372420000000  0.5738190000000 1.0
C      1  0.5143930000000  0.4539920000000  0.5693430000000 1.0
C      1  0.4350830000000  0.4545810000000  0.4707280000000 1.0
C      1  0.5358640000000  0.4726520000000  0.4564880000000 1.0
C      1  0.5484010000000  0.5569980000000  0.5367140000000 1.0
C      1  0.4408710000000  0.5598410000000  0.5259480000000 1.0
C      1  0.5093190000000  0.5596610000000  0.4337390000000 1.0
C      1  0.5591810000000  0.5301890000000  0.4390230000000 1.0
C      1  0.5247160000000  0.5253040000000  0.5774080000000 1.0
C      1  0.4235000000000  0.5266380000000  0.4820240000000 1.0
END
