TITL C-2622961-1971-473 0.00375887448297324 125000 -860.160492014452 0 0 149 (C1) n - 1
REM
REM in /nfs/bkarasulu/CARBON/AIRSS/Generating-Clusters/AIREBO/with-SteepDescent/Higher-Symm/SD-CG/HFTN-CG
REM
REM
REM
REM
REM
REM ./C.cell (b20cbc046b6831c77cfcea5457e17084)
REM
REM compiler GCC version 9.2.1 20190827 (Red Hat 9.2.1-1)
REM options -cpp -mtune=generic -march=x86-64 -g -O0 -fpre-include=/usr/include/finclude/math-vector-fortran.h
REM seed 836062721 1374615186 -1115916420 -998145295 1511161239 -139389430 366704083 1188453302 2028965238 516182922 832308739 -1408274279 -1313440149 -1836829123 504734920 721524164 -1039430305 -1049731534 319169689 -710358846 -522649818 -458830618 -1349416861 1247170082 -1544236708 1319149114 1771854438 1169918797 1972139798 -517371922 -1073129750 -1597762494 1136724262
REM
CELL 1.54180   50.00000   50.00000   50.00000   90.00000   90.00000   90.00000
LATT -1
SFAC C  
C      1  0.5552660000000  0.4780890000000  0.4646220000000 1.0
C      1  0.4456580000000  0.4771980000000  0.5359610000000 1.0
C      1  0.5571240000000  0.5203860000000  0.5319050000000 1.0
C      1  0.4458050000000  0.5311640000000  0.4678700000000 1.0
C      1  0.4165390000000  0.4606320000000  0.4666680000000 1.0
C      1  0.5778720000000  0.4632530000000  0.5338160000000 1.0
C      1  0.4155510000000  0.5385530000000  0.5389070000000 1.0
C      1  0.5865300000000  0.5385240000000  0.4659700000000 1.0
C      1  0.5325820000000  0.5727880000000  0.4221370000000 1.0
C      1  0.4679870000000  0.5647140000000  0.5738940000000 1.0
C      1  0.5319510000000  0.4312790000000  0.5732350000000 1.0
C      1  0.4705500000000  0.4331550000000  0.4301250000000 1.0
C      1  0.5850550000000  0.4771640000000  0.4215360000000 1.0
C      1  0.4241190000000  0.4810940000000  0.5824980000000 1.0
C      1  0.5772450000000  0.5156830000000  0.5813050000000 1.0
C      1  0.4250770000000  0.5183660000000  0.4200900000000 1.0
C      1  0.6059430000000  0.4757650000000  0.4464810000000 1.0
C      1  0.4022420000000  0.4729330000000  0.5585100000000 1.0
C      1  0.6009670000000  0.5249290000000  0.5595880000000 1.0
C      1  0.4040160000000  0.5261910000000  0.4442460000000 1.0
C      1  0.5997580000000  0.5078060000000  0.4235060000000 1.0
C      1  0.4032940000000  0.5065410000000  0.5798700000000 1.0
C      1  0.5954110000000  0.4891390000000  0.5763000000000 1.0
C      1  0.4074800000000  0.4917210000000  0.4244040000000 1.0
C      1  0.4021560000000  0.5856470000000  0.4881320000000 1.0
C      1  0.5861180000000  0.5855960000000  0.5183660000000 1.0
C      1  0.4074350000000  0.4140680000000  0.5201430000000 1.0
C      1  0.5794070000000  0.4123980000000  0.4855510000000 1.0
C      1  0.4911550000000  0.4780220000000  0.4240350000000 1.0
C      1  0.5103250000000  0.4709140000000  0.5815830000000 1.0
C      1  0.4932170000000  0.5232690000000  0.5809150000000 1.0
C      1  0.5194770000000  0.5266160000000  0.4099600000000 1.0
C      1  0.5628470000000  0.5367270000000  0.5602060000000 1.0
C      1  0.4402710000000  0.5417370000000  0.4382650000000 1.0
C      1  0.5586020000000  0.4650660000000  0.4334850000000 1.0
C      1  0.4389250000000  0.4580200000000  0.5632400000000 1.0
C      1  0.5110260000000  0.5572040000000  0.4120680000000 1.0
C      1  0.4923370000000  0.5543660000000  0.5821820000000 1.0
C      1  0.5087100000000  0.4408870000000  0.5866080000000 1.0
C      1  0.4930380000000  0.4464670000000  0.4210120000000 1.0
C      1  0.4868220000000  0.4042720000000  0.5306990000000 1.0
C      1  0.5179650000000  0.4064410000000  0.4716550000000 1.0
C      1  0.4855230000000  0.5897840000000  0.4699910000000 1.0
C      1  0.5097880000000  0.5894580000000  0.5246910000000 1.0
C      1  0.5848600000000  0.4594560000000  0.5038530000000 1.0
C      1  0.4070970000000  0.4579320000000  0.4947350000000 1.0
C      1  0.5922270000000  0.5387200000000  0.4969380000000 1.0
C      1  0.4053690000000  0.5404730000000  0.5099910000000 1.0
C      1  0.4565250000000  0.5059310000000  0.5453020000000 1.0
C      1  0.5499220000000  0.5043690000000  0.4443280000000 1.0
C      1  0.4589890000000  0.5015710000000  0.4587150000000 1.0
C      1  0.5393510000000  0.4963510000000  0.5410000000000 1.0
C      1  0.4927140000000  0.4647600000000  0.4747180000000 1.0
C      1  0.4983590000000  0.4647290000000  0.5306860000000 1.0
C      1  0.4958670000000  0.5370900000000  0.5292180000000 1.0
C      1  0.5153110000000  0.5300700000000  0.4657350000000 1.0
C      1  0.5752580000000  0.4874040000000  0.4905240000000 1.0
C      1  0.4055180000000  0.4858190000000  0.5081850000000 1.0
C      1  0.5835500000000  0.5127420000000  0.5117240000000 1.0
C      1  0.4118690000000  0.5135920000000  0.4955500000000 1.0
C      1  0.5461090000000  0.5109940000000  0.4142710000000 1.0
C      1  0.4730960000000  0.4993860000000  0.5705600000000 1.0
C      1  0.5274650000000  0.4982890000000  0.5717010000000 1.0
C      1  0.4762860000000  0.5059390000000  0.4327670000000 1.0
C      1  0.5121140000000  0.4495390000000  0.4963420000000 1.0
C      1  0.4805070000000  0.4480750000000  0.5088450000000 1.0
C      1  0.5182090000000  0.5532640000000  0.5100070000000 1.0
C      1  0.4966410000000  0.5518170000000  0.4840300000000 1.0
C      1  0.5576460000000  0.5582110000000  0.4209120000000 1.0
C      1  0.4467130000000  0.5467070000000  0.5761590000000 1.0
C      1  0.5522970000000  0.4515390000000  0.5751530000000 1.0
C      1  0.4472670000000  0.4495050000000  0.4290350000000 1.0
C      1  0.5313720000000  0.5448420000000  0.5502250000000 1.0
C      1  0.4874840000000  0.5545230000000  0.4513990000000 1.0
C      1  0.5290600000000  0.4532700000000  0.4454980000000 1.0
C      1  0.4711890000000  0.4502800000000  0.5561360000000 1.0
C      1  0.4459150000000  0.5581240000000  0.4892090000000 1.0
C      1  0.5492360000000  0.5457500000000  0.5134720000000 1.0
C      1  0.4485780000000  0.4470170000000  0.5205180000000 1.0
C      1  0.5437110000000  0.4560910000000  0.4853830000000 1.0
C      1  0.5309440000000  0.4194490000000  0.4484550000000 1.0
C      1  0.4747020000000  0.4166920000000  0.5521710000000 1.0
C      1  0.5228620000000  0.5775300000000  0.5470760000000 1.0
C      1  0.4727040000000  0.5808790000000  0.4447580000000 1.0
C      1  0.5679090000000  0.4986340000000  0.4014560000000 1.0
C      1  0.4535790000000  0.4909170000000  0.5908740000000 1.0
C      1  0.5471570000000  0.5089910000000  0.5900640000000 1.0
C      1  0.4561420000000  0.5146160000000  0.4131280000000 1.0
C      1  0.4457380000000  0.4518990000000  0.4872420000000 1.0
C      1  0.5478870000000  0.4632280000000  0.5177500000000 1.0
C      1  0.4434560000000  0.5452520000000  0.5205930000000 1.0
C      1  0.5563240000000  0.5438420000000  0.4809980000000 1.0
C      1  0.5170300000000  0.4884130000000  0.5201180000000 1.0
C      1  0.4675470000000  0.4851380000000  0.4850870000000 1.0
C      1  0.5220710000000  0.4988020000000  0.4565790000000 1.0
C      1  0.4717420000000  0.5158570000000  0.5198000000000 1.0
C      1  0.4450770000000  0.4719450000000  0.4530250000000 1.0
C      1  0.5550880000000  0.4707340000000  0.5561240000000 1.0
C      1  0.4400180000000  0.5292140000000  0.5569210000000 1.0
C      1  0.5619890000000  0.5338890000000  0.4429440000000 1.0
C      1  0.4539090000000  0.4298870000000  0.5759750000000 1.0
C      1  0.5546230000000  0.4319890000000  0.4266570000000 1.0
C      1  0.4571000000000  0.5605230000000  0.4263130000000 1.0
C      1  0.5479490000000  0.5652410000000  0.5715980000000 1.0
C      1  0.4182890000000  0.4377200000000  0.5120760000000 1.0
C      1  0.5703820000000  0.4371580000000  0.4914940000000 1.0
C      1  0.4155070000000  0.5633430000000  0.4962940000000 1.0
C      1  0.5780080000000  0.5613300000000  0.5096220000000 1.0
C      1  0.4887000000000  0.4748130000000  0.5600230000000 1.0
C      1  0.5085200000000  0.4737450000000  0.4507240000000 1.0
C      1  0.4981530000000  0.5280820000000  0.4362450000000 1.0
C      1  0.5112310000000  0.5224910000000  0.5541610000000 1.0
C      1  0.5383260000000  0.5532970000000  0.4564190000000 1.0
C      1  0.4677920000000  0.5520370000000  0.5359700000000 1.0
C      1  0.5264630000000  0.4519460000000  0.5335490000000 1.0
C      1  0.4671580000000  0.4498810000000  0.4662440000000 1.0
C      1  0.5040680000000  0.5110030000000  0.3881250000000 1.0
C      1  0.5061940000000  0.5127730000000  0.6068220000000 1.0
C      1  0.5131260000000  0.4886730000000  0.6077780000000 1.0
C      1  0.4946440000000  0.4885770000000  0.3942830000000 1.0
C      1  0.3954620000000  0.4819350000000  0.5365930000000 1.0
C      1  0.6008610000000  0.4864320000000  0.4685440000000 1.0
C      1  0.4012060000000  0.5173900000000  0.4670280000000 1.0
C      1  0.6030520000000  0.5145330000000  0.5369240000000 1.0
C      1  0.4833430000000  0.5618940000000  0.4112210000000 1.0
C      1  0.5151970000000  0.5686880000000  0.5778500000000 1.0
C      1  0.4841010000000  0.4310040000000  0.5915060000000 1.0
C      1  0.5211350000000  0.4337190000000  0.4188290000000 1.0
C      1  0.4387500000000  0.4809710000000  0.5028640000000 1.0
C      1  0.5434410000000  0.4926180000000  0.5013880000000 1.0
C      1  0.4446250000000  0.5200550000000  0.4997090000000 1.0
C      1  0.5386390000000  0.5178250000000  0.4872730000000 1.0
C      1  0.5220340000000  0.5849610000000  0.4982570000000 1.0
C      1  0.4731630000000  0.5738870000000  0.4944650000000 1.0
C      1  0.5207560000000  0.4183670000000  0.4987540000000 1.0
C      1  0.4811750000000  0.4155640000000  0.5035240000000 1.0
C      1  0.4883940000000  0.4079670000000  0.4766620000000 1.0
C      1  0.5160410000000  0.4085750000000  0.5258240000000 1.0
C      1  0.4818540000000  0.5867290000000  0.5223180000000 1.0
C      1  0.5136760000000  0.5920580000000  0.4722540000000 1.0
C      1  0.4076610000000  0.4717160000000  0.4390440000000 1.0
C      1  0.5947890000000  0.4702920000000  0.5601880000000 1.0
C      1  0.4011550000000  0.5267000000000  0.5655130000000 1.0
C      1  0.6010710000000  0.5263500000000  0.4398700000000 1.0
C      1  0.4684410000000  0.5803460000000  0.5481930000000 1.0
C      1  0.5295900000000  0.5826650000000  0.4511210000000 1.0
C      1  0.4738200000000  0.4211620000000  0.4570640000000 1.0
C      1  0.5275320000000  0.4260590000000  0.5452320000000 1.0
C      1  0.4897150000000  0.4949640000000  0.5059880000000 1.0
END
