TITL C-2622956-4641-358 0.000487905172281767 125000 -499.177344047103 0 0 89 (C1) n - 1
REM
REM in /nfs/bkarasulu/CARBON/AIRSS/Generating-Clusters/AIREBO/with-SteepDescent/Higher-Symm/SD-CG/HFTN-CG
REM
REM
REM
REM
REM
REM ./C.cell (b20cbc046b6831c77cfcea5457e17084)
REM
REM compiler GCC version 9.2.1 20190827 (Red Hat 9.2.1-1)
REM options -cpp -mtune=generic -march=x86-64 -g -O0 -fpre-include=/usr/include/finclude/math-vector-fortran.h
REM seed -1583644274 477191194 1439457436 579132531 -1232207662 -1533177382 -819609811 1966813971 -124255217 -1610714476 1559671948 1494825463 -133268357 1457347687 -1471742533 -1284419904 -1087931390 -176141739 -1367830600 1608081578 -226293546 989182315 -475956034 1371320564 1368394088 -599920152 446387514 -259315268 841426615 1961777228 -743532983 533643384 -2063604252
REM
CELL 1.54180   50.00000   50.00000   50.00000   90.00000   90.00000   90.00000
LATT -1
SFAC C  
C      1  0.4522800000000  0.5431400000000  0.5639470000000 1.0
C      1  0.5500560000000  0.4559130000000  0.5513370000000 1.0
C      1  0.4570660000000  0.4508810000000  0.5616740000000 1.0
C      1  0.5460970000000  0.5484020000000  0.5644930000000 1.0
C      1  0.5554650000000  0.5104130000000  0.4536630000000 1.0
C      1  0.4522180000000  0.4806170000000  0.4482390000000 1.0
C      1  0.5474670000000  0.4802440000000  0.4518150000000 1.0
C      1  0.4425150000000  0.5095530000000  0.4515370000000 1.0
C      1  0.4543760000000  0.4851500000000  0.5416650000000 1.0
C      1  0.5445770000000  0.5173400000000  0.5394450000000 1.0
C      1  0.4486340000000  0.5158660000000  0.5350530000000 1.0
C      1  0.5466890000000  0.4867370000000  0.5262570000000 1.0
C      1  0.4379250000000  0.5512100000000  0.5201420000000 1.0
C      1  0.5569690000000  0.4415290000000  0.5070110000000 1.0
C      1  0.4395970000000  0.4512050000000  0.5185910000000 1.0
C      1  0.5559500000000  0.5619530000000  0.5220370000000 1.0
C      1  0.5112300000000  0.4258490000000  0.4809930000000 1.0
C      1  0.4868830000000  0.5540890000000  0.4824640000000 1.0
C      1  0.5185660000000  0.5509730000000  0.4863650000000 1.0
C      1  0.4830430000000  0.4274010000000  0.4806860000000 1.0
C      1  0.5689610000000  0.4597260000000  0.4888190000000 1.0
C      1  0.4104050000000  0.5376290000000  0.4731570000000 1.0
C      1  0.5908840000000  0.5283150000000  0.4809510000000 1.0
C      1  0.4178250000000  0.4665630000000  0.4795080000000 1.0
C      1  0.5631270000000  0.4391300000000  0.5344320000000 1.0
C      1  0.4372200000000  0.5581340000000  0.5468630000000 1.0
C      1  0.5583720000000  0.5667400000000  0.5489080000000 1.0
C      1  0.4387590000000  0.4409060000000  0.5440890000000 1.0
C      1  0.5099460000000  0.4895850000000  0.4852250000000 1.0
C      1  0.4775360000000  0.5231950000000  0.4929470000000 1.0
C      1  0.5261190000000  0.5184320000000  0.4935420000000 1.0
C      1  0.4784260000000  0.4906440000000  0.4935290000000 1.0
C      1  0.4744340000000  0.4705460000000  0.5188570000000 1.0
C      1  0.5237520000000  0.5360760000000  0.5229080000000 1.0
C      1  0.4728160000000  0.5315400000000  0.5257130000000 1.0
C      1  0.5226210000000  0.4714860000000  0.5111190000000 1.0
C      1  0.4698170000000  0.4272840000000  0.4557130000000 1.0
C      1  0.5340610000000  0.5593540000000  0.4616880000000 1.0
C      1  0.4740020000000  0.5651110000000  0.4554810000000 1.0
C      1  0.5248630000000  0.4281390000000  0.4563920000000 1.0
C      1  0.5728380000000  0.4854440000000  0.4961280000000 1.0
C      1  0.4348030000000  0.5160870000000  0.4838110000000 1.0
C      1  0.5593970000000  0.5156040000000  0.4870420000000 1.0
C      1  0.4465230000000  0.4844000000000  0.4834430000000 1.0
C      1  0.4672190000000  0.4416690000000  0.5050930000000 1.0
C      1  0.5270030000000  0.5676630000000  0.5117910000000 1.0
C      1  0.4670600000000  0.5586070000000  0.5079600000000 1.0
C      1  0.5267090000000  0.4403600000000  0.5041070000000 1.0
C      1  0.4841040000000  0.4180520000000  0.5195000000000 1.0
C      1  0.5059830000000  0.5886260000000  0.5184550000000 1.0
C      1  0.4811180000000  0.5851620000000  0.5174290000000 1.0
C      1  0.5092300000000  0.4186010000000  0.5202250000000 1.0
C      1  0.5527380000000  0.4315170000000  0.4543070000000 1.0
C      1  0.4475900000000  0.5617140000000  0.4473260000000 1.0
C      1  0.5618520000000  0.5609120000000  0.4585210000000 1.0
C      1  0.4420050000000  0.4312710000000  0.4542380000000 1.0
C      1  0.4476710000000  0.4804190000000  0.5746620000000 1.0
C      1  0.5581360000000  0.5170650000000  0.5699350000000 1.0
C      1  0.4410400000000  0.5122290000000  0.5677570000000 1.0
C      1  0.5630240000000  0.4862670000000  0.5560820000000 1.0
C      1  0.5115930000000  0.4467700000000  0.4408450000000 1.0
C      1  0.4946310000000  0.5450270000000  0.4443410000000 1.0
C      1  0.5216250000000  0.5455770000000  0.4408790000000 1.0
C      1  0.4834090000000  0.4416380000000  0.4359000000000 1.0
C      1  0.4725590000000  0.5115830000000  0.5771610000000 1.0
C      1  0.5317130000000  0.4872730000000  0.5669740000000 1.0
C      1  0.4801930000000  0.4779410000000  0.5787110000000 1.0
C      1  0.5265070000000  0.5182270000000  0.5802470000000 1.0
C      1  0.4308680000000  0.5399990000000  0.4521350000000 1.0
C      1  0.5614070000000  0.4574030000000  0.4618590000000 1.0
C      1  0.4332450000000  0.4577090000000  0.4567890000000 1.0
C      1  0.5756580000000  0.5362380000000  0.4570260000000 1.0
C      1  0.5180370000000  0.4657690000000  0.5444500000000 1.0
C      1  0.4845310000000  0.5356770000000  0.5560880000000 1.0
C      1  0.5145810000000  0.5383930000000  0.5556050000000 1.0
C      1  0.4869390000000  0.4628770000000  0.5496250000000 1.0
C      1  0.4718730000000  0.5187810000000  0.4261680000000 1.0
C      1  0.5137990000000  0.4865820000000  0.4199990000000 1.0
C      1  0.4747950000000  0.4950180000000  0.4185720000000 1.0
C      1  0.5285330000000  0.5078320000000  0.4115820000000 1.0
C      1  0.5761490000000  0.5029720000000  0.5210270000000 1.0
C      1  0.4258820000000  0.5200220000000  0.5134050000000 1.0
C      1  0.5630030000000  0.5333060000000  0.5158540000000 1.0
C      1  0.4343520000000  0.4846380000000  0.5151910000000 1.0
C      1  0.4712470000000  0.5255180000000  0.4595020000000 1.0
C      1  0.5135280000000  0.4784590000000  0.4530260000000 1.0
C      1  0.4819940000000  0.4734330000000  0.4407280000000 1.0
C      1  0.5375580000000  0.5246600000000  0.4317190000000 1.0
C      1  0.5020690000000  0.4997310000000  0.5704950000000 1.0
END
