TITL C-2622955-8511-316 -0.0012288400300827 125000 -301.348329496681 0 0 51 (C1) n - 1
REM
REM in /nfs/bkarasulu/CARBON/AIRSS/Generating-Clusters/AIREBO/with-SteepDescent/Higher-Symm/SD-CG/HFTN-CG
REM
REM
REM
REM
REM
REM ./C.cell (b20cbc046b6831c77cfcea5457e17084)
REM
REM compiler GCC version 9.2.1 20190827 (Red Hat 9.2.1-1)
REM options -cpp -mtune=generic -march=x86-64 -g -O0 -fpre-include=/usr/include/finclude/math-vector-fortran.h
REM seed -1772230440 560039373 -364097614 49796548 1251703518 2025479852 -2143681190 -997985993 596329061 1264245780 -2092974822 903065798 2107913375 -48857500 1779956614 -703827548 -1506394981 -101058167 669798666 1925496486 -1441612383 1886182883 1102234626 1273540428 -759992523 -105988825 -1832295972 -193028730 202679348 -1631483728 785405942 -1495923944 1373861575
REM
CELL 1.54180   50.00000   50.00000   50.00000   90.00000   90.00000   90.00000
LATT -1
SFAC C  
C      1  0.4113270000000  0.4835430000000  0.5028710000000 1.0
C      1  0.6061150000000  0.4974050000000  0.4819720000000 1.0
C      1  0.4169790000000  0.4913510000000  0.5279880000000 1.0
C      1  0.5814700000000  0.5060580000000  0.4885380000000 1.0
C      1  0.5099160000000  0.4651900000000  0.4157220000000 1.0
C      1  0.4978670000000  0.5396830000000  0.5844540000000 1.0
C      1  0.5265100000000  0.4819390000000  0.4407390000000 1.0
C      1  0.4763800000000  0.5228790000000  0.5634800000000 1.0
C      1  0.4430020000000  0.4859450000000  0.4439270000000 1.0
C      1  0.5587500000000  0.5121200000000  0.5539840000000 1.0
C      1  0.5018850000000  0.4592250000000  0.4459160000000 1.0
C      1  0.5017410000000  0.5430380000000  0.5531610000000 1.0
C      1  0.4439470000000  0.5136700000000  0.4399310000000 1.0
C      1  0.5483460000000  0.4885220000000  0.5646490000000 1.0
C      1  0.4538270000000  0.5287270000000  0.4612960000000 1.0
C      1  0.5377580000000  0.4702670000000  0.5462660000000 1.0
C      1  0.4883130000000  0.4475940000000  0.4660960000000 1.0
C      1  0.5146900000000  0.5527110000000  0.5316660000000 1.0
C      1  0.5401410000000  0.4731930000000  0.4105280000000 1.0
C      1  0.4683850000000  0.5345230000000  0.5947370000000 1.0
C      1  0.4595750000000  0.4467420000000  0.4697400000000 1.0
C      1  0.5435480000000  0.5520090000000  0.5281220000000 1.0
C      1  0.4823050000000  0.4183760000000  0.5030440000000 1.0
C      1  0.5223020000000  0.5733090000000  0.4888230000000 1.0
C      1  0.4348490000000  0.5029740000000  0.5445740000000 1.0
C      1  0.5589150000000  0.4999670000000  0.4734550000000 1.0
C      1  0.5193280000000  0.5238620000000  0.4647430000000 1.0
C      1  0.4757090000000  0.4795170000000  0.5406650000000 1.0
C      1  0.4401910000000  0.4659700000000  0.4631980000000 1.0
C      1  0.5605290000000  0.5298550000000  0.5326180000000 1.0
C      1  0.5204850000000  0.4656640000000  0.5249670000000 1.0
C      1  0.4741080000000  0.5357960000000  0.4787850000000 1.0
C      1  0.5016390000000  0.5633950000000  0.5086690000000 1.0
C      1  0.5017190000000  0.4347880000000  0.4885900000000 1.0
C      1  0.5766620000000  0.5218090000000  0.5111280000000 1.0
C      1  0.4189580000000  0.4692820000000  0.4812750000000 1.0
C      1  0.5483020000000  0.4836240000000  0.5911590000000 1.0
C      1  0.4358720000000  0.5250570000000  0.4168770000000 1.0
C      1  0.4978990000000  0.4831820000000  0.5232120000000 1.0
C      1  0.4962490000000  0.5176530000000  0.4799450000000 1.0
C      1  0.4618360000000  0.5015450000000  0.5509070000000 1.0
C      1  0.5366240000000  0.5029280000000  0.4574790000000 1.0
C      1  0.4767370000000  0.5566900000000  0.4975790000000 1.0
C      1  0.5219590000000  0.4468310000000  0.5040650000000 1.0
C      1  0.4621800000000  0.4341910000000  0.5224450000000 1.0
C      1  0.5528560000000  0.5672950000000  0.4746880000000 1.0
C      1  0.5507120000000  0.5698310000000  0.5068290000000 1.0
C      1  0.4534270000000  0.4285280000000  0.4917190000000 1.0
C      1  0.4646960000000  0.4535800000000  0.5415940000000 1.0
C      1  0.5277910000000  0.5501110000000  0.4644490000000 1.0
C      1  0.4965330000000  0.4994230000000  0.5007860000000 1.0
END
