TITL C-2622957-9142-691 0.000768484858678217 125000 -518.120202310452 0 0 97 (C1) n - 1
REM
REM in /nfs/bkarasulu/CARBON/AIRSS/Generating-Clusters/AIREBO/with-SteepDescent/Higher-Symm/SD-CG/HFTN-CG
REM
REM
REM
REM
REM
REM ./C.cell (b20cbc046b6831c77cfcea5457e17084)
REM
REM compiler GCC version 9.2.1 20190827 (Red Hat 9.2.1-1)
REM options -cpp -mtune=generic -march=x86-64 -g -O0 -fpre-include=/usr/include/finclude/math-vector-fortran.h
REM seed -435768546 1192210944 107879820 -1202322299 -1780807515 535893701 1048586848 1552300725 -282264783 872287012 1029697624 -580218630 1688406903 -1643452233 2065491488 500436843 496713887 1979643387 423804270 -1989202876 -929197924 1370826192 853904105 -2025208037 -1674760131 705111868 1806530121 -1058236685 1329469599 280811886 -2007329760 -141450921 1959042268
REM
CELL 1.54180   50.00000   50.00000   50.00000   90.00000   90.00000   90.00000
LATT -1
SFAC C  
C      1  0.5237370000000  0.5290240000000  0.4340620000000 1.0
C      1  0.4635250000000  0.5428500000000  0.4266400000000 1.0
C      1  0.4672900000000  0.4620640000000  0.4344010000000 1.0
C      1  0.5460790000000  0.4689330000000  0.4212270000000 1.0
C      1  0.5635070000000  0.4346270000000  0.4969090000000 1.0
C      1  0.5633400000000  0.5769820000000  0.5097830000000 1.0
C      1  0.4308420000000  0.5597630000000  0.5035290000000 1.0
C      1  0.4290770000000  0.4327780000000  0.5033650000000 1.0
C      1  0.4123510000000  0.5371280000000  0.5008860000000 1.0
C      1  0.4559440000000  0.4180370000000  0.5007810000000 1.0
C      1  0.5846350000000  0.4552800000000  0.5002300000000 1.0
C      1  0.5372320000000  0.5885140000000  0.5058120000000 1.0
C      1  0.4715890000000  0.4661840000000  0.5635600000000 1.0
C      1  0.5386600000000  0.4678200000000  0.5658020000000 1.0
C      1  0.5318370000000  0.5376700000000  0.5637210000000 1.0
C      1  0.4619530000000  0.5335960000000  0.5595200000000 1.0
C      1  0.4347760000000  0.5234420000000  0.5456490000000 1.0
C      1  0.4765350000000  0.4382550000000  0.5468110000000 1.0
C      1  0.5645270000000  0.4737210000000  0.5470830000000 1.0
C      1  0.5217140000000  0.5655350000000  0.5489840000000 1.0
C      1  0.4197470000000  0.4499500000000  0.4819680000000 1.0
C      1  0.5396070000000  0.4376740000000  0.4780000000000 1.0
C      1  0.5634120000000  0.5507090000000  0.4887730000000 1.0
C      1  0.4561640000000  0.5546290000000  0.4843060000000 1.0
C      1  0.4476770000000  0.5343500000000  0.4504370000000 1.0
C      1  0.4591840000000  0.4397610000000  0.4480620000000 1.0
C      1  0.5527950000000  0.4700940000000  0.4520090000000 1.0
C      1  0.5323540000000  0.5535080000000  0.4516050000000 1.0
C      1  0.4616740000000  0.4875500000000  0.4736270000000 1.0
C      1  0.4932090000000  0.4748920000000  0.4711560000000 1.0
C      1  0.5146920000000  0.5015190000000  0.4728000000000 1.0
C      1  0.5041190000000  0.5312740000000  0.4688770000000 1.0
C      1  0.4191070000000  0.4996130000000  0.4622930000000 1.0
C      1  0.4964440000000  0.4294470000000  0.4580440000000 1.0
C      1  0.5769250000000  0.5017200000000  0.4756500000000 1.0
C      1  0.5017040000000  0.5798650000000  0.4673920000000 1.0
C      1  0.5351370000000  0.5487090000000  0.5077870000000 1.0
C      1  0.4504160000000  0.5252670000000  0.5008570000000 1.0
C      1  0.4725620000000  0.4551890000000  0.5066040000000 1.0
C      1  0.5480570000000  0.4705550000000  0.5048990000000 1.0
C      1  0.4851460000000  0.5207520000000  0.5419930000000 1.0
C      1  0.4797770000000  0.4901030000000  0.5428150000000 1.0
C      1  0.5188150000000  0.4819310000000  0.5453400000000 1.0
C      1  0.5258830000000  0.5119030000000  0.5433950000000 1.0
C      1  0.4891080000000  0.4864590000000  0.5814670000000 1.0
C      1  0.5204520000000  0.4878420000000  0.5845880000000 1.0
C      1  0.5126640000000  0.5182510000000  0.5805870000000 1.0
C      1  0.4810410000000  0.5172560000000  0.5813310000000 1.0
C      1  0.5600460000000  0.5200950000000  0.4953050000000 1.0
C      1  0.4863930000000  0.5554690000000  0.4854600000000 1.0
C      1  0.4298520000000  0.4805880000000  0.4841020000000 1.0
C      1  0.5076650000000  0.4472420000000  0.4847190000000 1.0
C      1  0.4867380000000  0.5625930000000  0.5248000000000 1.0
C      1  0.4346780000000  0.4749670000000  0.5340700000000 1.0
C      1  0.5187490000000  0.4382270000000  0.5364840000000 1.0
C      1  0.5725090000000  0.5208990000000  0.5345410000000 1.0
C      1  0.5839720000000  0.4749950000000  0.5218030000000 1.0
C      1  0.5184630000000  0.5866040000000  0.5286680000000 1.0
C      1  0.4159300000000  0.5173890000000  0.5211790000000 1.0
C      1  0.4748440000000  0.4187210000000  0.5226040000000 1.0
C      1  0.5095450000000  0.4304290000000  0.4346580000000 1.0
C      1  0.5720560000000  0.5085320000000  0.4474720000000 1.0
C      1  0.4999570000000  0.5783400000000  0.4393870000000 1.0
C      1  0.4242650000000  0.4903400000000  0.4370530000000 1.0
C      1  0.5416830000000  0.4404490000000  0.5176520000000 1.0
C      1  0.5640670000000  0.5481210000000  0.5255400000000 1.0
C      1  0.4555600000000  0.5500030000000  0.5236260000000 1.0
C      1  0.4451520000000  0.4508830000000  0.5204480000000 1.0
C      1  0.5637880000000  0.5317500000000  0.5619800000000 1.0
C      1  0.4676200000000  0.5643190000000  0.5520190000000 1.0
C      1  0.4393930000000  0.4702740000000  0.5652760000000 1.0
C      1  0.5295670000000  0.4371560000000  0.5662280000000 1.0
C      1  0.5213380000000  0.4546670000000  0.4202390000000 1.0
C      1  0.5465550000000  0.5038580000000  0.4319420000000 1.0
C      1  0.4968560000000  0.5497380000000  0.4265820000000 1.0
C      1  0.4519500000000  0.4849230000000  0.4325440000000 1.0
C      1  0.5233680000000  0.4866900000000  0.4481070000000 1.0
C      1  0.4922250000000  0.5199410000000  0.4422900000000 1.0
C      1  0.4657500000000  0.5086440000000  0.4472360000000 1.0
C      1  0.4970390000000  0.4681790000000  0.4380370000000 1.0
C      1  0.5664010000000  0.4725420000000  0.4783760000000 1.0
C      1  0.5287550000000  0.5688490000000  0.4811350000000 1.0
C      1  0.4290080000000  0.5271880000000  0.4739640000000 1.0
C      1  0.4701070000000  0.4354940000000  0.4786180000000 1.0
C      1  0.4175280000000  0.4904230000000  0.5124180000000 1.0
C      1  0.5010130000000  0.4275770000000  0.5118560000000 1.0
C      1  0.5861590000000  0.5034330000000  0.5091370000000 1.0
C      1  0.4977220000000  0.5829660000000  0.5019660000000 1.0
C      1  0.5506440000000  0.4966700000000  0.5261750000000 1.0
C      1  0.5109400000000  0.5392180000000  0.5297290000000 1.0
C      1  0.4529540000000  0.5024890000000  0.5259810000000 1.0
C      1  0.4951270000000  0.4621110000000  0.5311010000000 1.0
C      1  0.4978740000000  0.5280030000000  0.5019030000000 1.0
C      1  0.4727210000000  0.4864620000000  0.5034330000000 1.0
C      1  0.5171700000000  0.4699190000000  0.5063990000000 1.0
C      1  0.5315730000000  0.5066270000000  0.4998150000000 1.0
C      1  0.5002490000000  0.4974620000000  0.5093870000000 1.0
END
