TITL C-2622959-7779-215 0.000263078168857657 125000 -825.614602504655 0 0 156 (C1) n - 1
REM
REM in /nfs/bkarasulu/CARBON/AIRSS/Generating-Clusters/AIREBO/with-SteepDescent/Higher-Symm/SD-CG/HFTN-CG
REM
REM
REM
REM
REM
REM ./C.cell (b20cbc046b6831c77cfcea5457e17084)
REM
REM compiler GCC version 9.2.1 20190827 (Red Hat 9.2.1-1)
REM options -cpp -mtune=generic -march=x86-64 -g -O0 -fpre-include=/usr/include/finclude/math-vector-fortran.h
REM seed -1301997491 115482684 157857493 -2053570599 2127100365 1055452493 -75722797 290224527 -1226994052 1140621432 2108445282 1789117923 2102437565 -1487754952 -414490958 -1813583736 -845588259 1084268652 1918642495 -783862031 1852200677 2106442759 -690283458 -154655736 2064075671 1779224445 -440177755 -1637874502 1774044475 1573799362 1481335822 -1321171190 952987828
REM
CELL 1.54180   50.00000   50.00000   50.00000   90.00000   90.00000   90.00000
LATT -1
SFAC C  
C      1  0.4328330000000  0.4963550000000  0.5514380000000 1.0
C      1  0.4785160000000  0.5621210000000  0.5514560000000 1.0
C      1  0.5547270000000  0.5422360000000  0.5503010000000 1.0
C      1  0.5534640000000  0.4627110000000  0.5506250000000 1.0
C      1  0.4829620000000  0.4362340000000  0.5523020000000 1.0
C      1  0.5493290000000  0.5101880000000  0.5558510000000 1.0
C      1  0.5232760000000  0.4535170000000  0.5597230000000 1.0
C      1  0.4656210000000  0.4639380000000  0.5544130000000 1.0
C      1  0.4510260000000  0.5237610000000  0.5577820000000 1.0
C      1  0.5083030000000  0.5526280000000  0.5608300000000 1.0
C      1  0.4723200000000  0.5945890000000  0.4596270000000 1.0
C      1  0.5801410000000  0.5531020000000  0.4521780000000 1.0
C      1  0.5827230000000  0.4376940000000  0.4610080000000 1.0
C      1  0.4646160000000  0.4089440000000  0.4558110000000 1.0
C      1  0.4003560000000  0.5071030000000  0.4601830000000 1.0
C      1  0.5457980000000  0.4721760000000  0.4165830000000 1.0
C      1  0.4892170000000  0.4505040000000  0.4161630000000 1.0
C      1  0.4528950000000  0.4980470000000  0.4157940000000 1.0
C      1  0.4758900000000  0.5480090000000  0.4119520000000 1.0
C      1  0.5370910000000  0.5314760000000  0.4153900000000 1.0
C      1  0.5814120000000  0.5142170000000  0.5598220000000 1.0
C      1  0.5455370000000  0.4262050000000  0.5632060000000 1.0
C      1  0.4435610000000  0.4390700000000  0.5571280000000 1.0
C      1  0.4183560000000  0.5324000000000  0.5597590000000 1.0
C      1  0.5051900000000  0.5877410000000  0.5650690000000 1.0
C      1  0.5838790000000  0.4679010000000  0.5256020000000 1.0
C      1  0.4984890000000  0.4089300000000  0.5186110000000 1.0
C      1  0.4146580000000  0.4740320000000  0.5236650000000 1.0
C      1  0.4506350000000  0.5695040000000  0.5242610000000 1.0
C      1  0.5504900000000  0.5800660000000  0.5210620000000 1.0
C      1  0.5641880000000  0.4730890000000  0.4626380000000 1.0
C      1  0.4978920000000  0.4384500000000  0.4645080000000 1.0
C      1  0.4349940000000  0.4852440000000  0.4616620000000 1.0
C      1  0.4642600000000  0.5525090000000  0.4658380000000 1.0
C      1  0.5377440000000  0.5470320000000  0.4616570000000 1.0
C      1  0.4344720000000  0.5211190000000  0.4160990000000 1.0
C      1  0.4982320000000  0.5677180000000  0.4155150000000 1.0
C      1  0.5632540000000  0.5186560000000  0.4133520000000 1.0
C      1  0.5421580000000  0.4420620000000  0.4185300000000 1.0
C      1  0.4607900000000  0.4465180000000  0.4138210000000 1.0
C      1  0.4304750000000  0.4426600000000  0.5016760000000 1.0
C      1  0.4220870000000  0.5470130000000  0.5010830000000 1.0
C      1  0.5192970000000  0.5908890000000  0.4988220000000 1.0
C      1  0.5895190000000  0.5018410000000  0.5028240000000 1.0
C      1  0.5341840000000  0.4150400000000  0.4975460000000 1.0
C      1  0.4922940000000  0.5340730000000  0.4362720000000 1.0
C      1  0.5233820000000  0.5222330000000  0.4433300000000 1.0
C      1  0.5289470000000  0.4801840000000  0.4384730000000 1.0
C      1  0.4926210000000  0.4646500000000  0.4435130000000 1.0
C      1  0.4718970000000  0.5079140000000  0.4390610000000 1.0
C      1  0.4666420000000  0.4354620000000  0.5820170000000 1.0
C      1  0.4232390000000  0.5073810000000  0.5811400000000 1.0
C      1  0.4826950000000  0.5732230000000  0.5832630000000 1.0
C      1  0.5657820000000  0.5352260000000  0.5817200000000 1.0
C      1  0.5558700000000  0.4505290000000  0.5822770000000 1.0
C      1  0.5000850000000  0.5784730000000  0.4839250000000 1.0
C      1  0.5707690000000  0.5143130000000  0.4859890000000 1.0
C      1  0.5473650000000  0.4342390000000  0.4792560000000 1.0
C      1  0.4534870000000  0.4429750000000  0.4858290000000 1.0
C      1  0.4272980000000  0.5255790000000  0.4854850000000 1.0
C      1  0.4953460000000  0.5269930000000  0.6042540000000 1.0
C      1  0.5246230000000  0.5129060000000  0.6071060000000 1.0
C      1  0.5183070000000  0.4817190000000  0.6024900000000 1.0
C      1  0.4869020000000  0.4755060000000  0.6086490000000 1.0
C      1  0.4718550000000  0.5027610000000  0.6052360000000 1.0
C      1  0.5186780000000  0.5713460000000  0.4495330000000 1.0
C      1  0.5734860000000  0.5025430000000  0.4484000000000 1.0
C      1  0.5247190000000  0.4336610000000  0.4464990000000 1.0
C      1  0.4438470000000  0.4544160000000  0.4490400000000 1.0
C      1  0.4361070000000  0.5421600000000  0.4500050000000 1.0
C      1  0.5106490000000  0.4374490000000  0.5326010000000 1.0
C      1  0.4479610000000  0.4746550000000  0.5305960000000 1.0
C      1  0.4623150000000  0.5392420000000  0.5345840000000 1.0
C      1  0.5288300000000  0.5579200000000  0.5350940000000 1.0
C      1  0.5590770000000  0.4900130000000  0.5330500000000 1.0
C      1  0.5259050000000  0.4984330000000  0.5258210000000 1.0
C      1  0.5087830000000  0.4694410000000  0.5210400000000 1.0
C      1  0.4802720000000  0.4873970000000  0.5256290000000 1.0
C      1  0.4841220000000  0.5205830000000  0.5197610000000 1.0
C      1  0.5154850000000  0.5303330000000  0.5203090000000 1.0
C      1  0.5324000000000  0.4612100000000  0.4649140000000 1.0
C      1  0.4689100000000  0.4653600000000  0.4661140000000 1.0
C      1  0.4510920000000  0.5148710000000  0.4636780000000 1.0
C      1  0.4981500000000  0.5497160000000  0.4658870000000 1.0
C      1  0.5458130000000  0.5080430000000  0.4637410000000 1.0
C      1  0.5202300000000  0.5042780000000  0.5588360000000 1.0
C      1  0.5112520000000  0.4774380000000  0.5718780000000 1.0
C      1  0.4840410000000  0.4875690000000  0.5594260000000 1.0
C      1  0.4737330000000  0.5129490000000  0.5739620000000 1.0
C      1  0.5043720000000  0.5256740000000  0.5720000000000 1.0
C      1  0.4337760000000  0.5087790000000  0.5207960000000 1.0
C      1  0.4898310000000  0.5633930000000  0.5194150000000 1.0
C      1  0.5670150000000  0.5389030000000  0.5204040000000 1.0
C      1  0.5461370000000  0.4557520000000  0.5181540000000 1.0
C      1  0.4727080000000  0.4387580000000  0.5204580000000 1.0
C      1  0.5386730000000  0.6071630000000  0.5370390000000 1.0
C      1  0.5976310000000  0.4903270000000  0.5435730000000 1.0
C      1  0.5215590000000  0.3969290000000  0.5365040000000 1.0
C      1  0.4161610000000  0.4472830000000  0.5409070000000 1.0
C      1  0.4242610000000  0.5643330000000  0.5394490000000 1.0
C      1  0.5138730000000  0.5283930000000  0.4872160000000 1.0
C      1  0.5306400000000  0.4989670000000  0.4921510000000 1.0
C      1  0.5086800000000  0.4725710000000  0.4871800000000 1.0
C      1  0.4772600000000  0.4860400000000  0.4917800000000 1.0
C      1  0.4750030000000  0.5198650000000  0.4870120000000 1.0
C      1  0.4000680000000  0.5049380000000  0.5230500000000 1.0
C      1  0.4757540000000  0.5931570000000  0.5245520000000 1.0
C      1  0.5760830000000  0.5674130000000  0.5067140000000 1.0
C      1  0.5732370000000  0.4356280000000  0.5240510000000 1.0
C      1  0.4643230000000  0.4060960000000  0.5193270000000 1.0
C      1  0.5112430000000  0.5868350000000  0.5316120000000 1.0
C      1  0.5937960000000  0.5203520000000  0.5286050000000 1.0
C      1  0.5417320000000  0.4239890000000  0.5294770000000 1.0
C      1  0.4365720000000  0.4236790000000  0.5274030000000 1.0
C      1  0.4069120000000  0.5373530000000  0.5282110000000 1.0
C      1  0.4475870000000  0.5474820000000  0.4122690000000 1.0
C      1  0.5274260000000  0.5596260000000  0.4124900000000 1.0
C      1  0.5681670000000  0.4887540000000  0.4115470000000 1.0
C      1  0.5105970000000  0.4333150000000  0.4093140000000 1.0
C      1  0.4432910000000  0.4710660000000  0.4129570000000 1.0
C      1  0.5478160000000  0.5260480000000  0.6004750000000 1.0
C      1  0.5441630000000  0.4629030000000  0.6033780000000 1.0
C      1  0.4754730000000  0.4516960000000  0.6017860000000 1.0
C      1  0.4396540000000  0.5048240000000  0.6024500000000 1.0
C      1  0.4843670000000  0.5567670000000  0.6046460000000 1.0
C      1  0.5753430000000  0.4483770000000  0.4919150000000 1.0
C      1  0.4742350000000  0.4160930000000  0.4876400000000 1.0
C      1  0.4103560000000  0.4965960000000  0.4909440000000 1.0
C      1  0.4689350000000  0.5843890000000  0.4920600000000 1.0
C      1  0.5752120000000  0.5461000000000  0.4820660000000 1.0
C      1  0.5999370000000  0.4715270000000  0.4958500000000 1.0
C      1  0.5054820000000  0.4024070000000  0.4873240000000 1.0
C      1  0.4044990000000  0.4632180000000  0.4938630000000 1.0
C      1  0.4363200000000  0.5749350000000  0.4938880000000 1.0
C      1  0.5482600000000  0.5887510000000  0.4882650000000 1.0
C      1  0.5440470000000  0.5420460000000  0.4949300000000 1.0
C      1  0.5543970000000  0.4749850000000  0.4951440000000 1.0
C      1  0.4930220000000  0.4434390000000  0.4951020000000 1.0
C      1  0.4435980000000  0.4901860000000  0.4941850000000 1.0
C      1  0.4729750000000  0.5509640000000  0.4968380000000 1.0
C      1  0.4968080000000  0.4067720000000  0.4560220000000 1.0
C      1  0.4099850000000  0.4646200000000  0.4635900000000 1.0
C      1  0.4439130000000  0.5793030000000  0.4613390000000 1.0
C      1  0.5561800000000  0.5750650000000  0.4621780000000 1.0
C      1  0.5965070000000  0.4749740000000  0.4639220000000 1.0
C      1  0.5921180000000  0.4791830000000  0.4316820000000 1.0
C      1  0.5115780000000  0.4073300000000  0.4274740000000 1.0
C      1  0.4173240000000  0.4654800000000  0.4308610000000 1.0
C      1  0.4346320000000  0.5693580000000  0.4306650000000 1.0
C      1  0.5449720000000  0.5787070000000  0.4301770000000 1.0
C      1  0.4913240000000  0.5855060000000  0.4410240000000 1.0
C      1  0.5811260000000  0.5309190000000  0.4352570000000 1.0
C      1  0.5582500000000  0.4280330000000  0.4459260000000 1.0
C      1  0.4526740000000  0.4267110000000  0.4375100000000 1.0
C      1  0.4153540000000  0.5193860000000  0.4411050000000 1.0
C      1  0.5022150000000  0.4957600000000  0.4394100000000 1.0
END
