TITL C-2622955-8511-240 -0.000348324795622478 125000 -1007.67354446139 0 0 191 (C1) n - 1
REM
REM in /nfs/bkarasulu/CARBON/AIRSS/Generating-Clusters/AIREBO/with-SteepDescent/Higher-Symm/SD-CG/HFTN-CG
REM
REM
REM
REM
REM
REM ./C.cell (b20cbc046b6831c77cfcea5457e17084)
REM
REM compiler GCC version 9.2.1 20190827 (Red Hat 9.2.1-1)
REM options -cpp -mtune=generic -march=x86-64 -g -O0 -fpre-include=/usr/include/finclude/math-vector-fortran.h
REM seed 721408744 -1216551055 -612176963 1749362570 1553922399 -1364099957 2053044372 -1979380617 1815513687 -1194769524 -828989487 -350745166 -612255719 -1779589559 -1677494494 2039486067 -1915461818 1123787060 1875368012 -5865014 1542927969 1223528475 1051791491 -1807327442 -687389140 1679144185 -586513320 -621073172 1038821005 1858660760 -23936905 -944516616 -1772984372
REM
CELL 1.54180   50.00000   50.00000   50.00000   90.00000   90.00000   90.00000
LATT -1
SFAC C  
C      1  0.5030510000000  0.6074220000000  0.4610120000000 1.0
C      1  0.4618560000000  0.4977000000000  0.6099750000000 1.0
C      1  0.6112300000000  0.4702940000000  0.4913830000000 1.0
C      1  0.4967930000000  0.6023200000000  0.5303840000000 1.0
C      1  0.4900200000000  0.3910010000000  0.5389370000000 1.0
C      1  0.5037000000000  0.3968210000000  0.4668140000000 1.0
C      1  0.5369100000000  0.4982520000000  0.3851790000000 1.0
C      1  0.4571920000000  0.4945760000000  0.3984530000000 1.0
C      1  0.5408180000000  0.4960480000000  0.6019370000000 1.0
C      1  0.3898870000000  0.4586190000000  0.5015930000000 1.0
C      1  0.6094300000000  0.5385370000000  0.4997110000000 1.0
C      1  0.3928010000000  0.5343370000000  0.4963310000000 1.0
C      1  0.4560690000000  0.4923140000000  0.5687950000000 1.0
C      1  0.5491830000000  0.4546930000000  0.5088450000000 1.0
C      1  0.4969920000000  0.5621890000000  0.4486800000000 1.0
C      1  0.5469110000000  0.4993540000000  0.4335600000000 1.0
C      1  0.4557650000000  0.4992890000000  0.4380810000000 1.0
C      1  0.5485350000000  0.5004230000000  0.5629640000000 1.0
C      1  0.4355450000000  0.4551960000000  0.5057990000000 1.0
C      1  0.5699740000000  0.5427600000000  0.5047150000000 1.0
C      1  0.4352640000000  0.5418820000000  0.4932690000000 1.0
C      1  0.5057090000000  0.5638630000000  0.5445980000000 1.0
C      1  0.4907110000000  0.4320190000000  0.5597460000000 1.0
C      1  0.4991600000000  0.4404440000000  0.4542300000000 1.0
C      1  0.5766970000000  0.5018940000000  0.5819770000000 1.0
C      1  0.5874030000000  0.5718020000000  0.5023740000000 1.0
C      1  0.5002690000000  0.5812020000000  0.5735200000000 1.0
C      1  0.4259250000000  0.5022610000000  0.4220500000000 1.0
C      1  0.5711290000000  0.5040020000000  0.4107090000000 1.0
C      1  0.4238230000000  0.4916260000000  0.5789770000000 1.0
C      1  0.4177140000000  0.5710020000000  0.4938780000000 1.0
C      1  0.5779520000000  0.4488240000000  0.4944890000000 1.0
C      1  0.4174820000000  0.4264140000000  0.5044340000000 1.0
C      1  0.4946080000000  0.5814510000000  0.4207540000000 1.0
C      1  0.5219620000000  0.4196440000000  0.4401590000000 1.0
C      1  0.4882580000000  0.4122860000000  0.5867170000000 1.0
C      1  0.4528110000000  0.5349570000000  0.4010380000000 1.0
C      1  0.4025280000000  0.4437450000000  0.5443020000000 1.0
C      1  0.5590550000000  0.4376400000000  0.4178100000000 1.0
C      1  0.5579360000000  0.5421090000000  0.5950200000000 1.0
C      1  0.4397760000000  0.4529510000000  0.5991570000000 1.0
C      1  0.5537940000000  0.4601940000000  0.4015270000000 1.0
C      1  0.5712270000000  0.4447280000000  0.4422580000000 1.0
C      1  0.4032420000000  0.5565360000000  0.4527790000000 1.0
C      1  0.6004040000000  0.5576090000000  0.5446120000000 1.0
C      1  0.4486810000000  0.4058770000000  0.5608840000000 1.0
C      1  0.5402990000000  0.5995830000000  0.5579500000000 1.0
C      1  0.4564240000000  0.5960770000000  0.4412710000000 1.0
C      1  0.4595060000000  0.5637190000000  0.4836570000000 1.0
C      1  0.4762950000000  0.4590070000000  0.5609380000000 1.0
C      1  0.5621000000000  0.4732330000000  0.4491640000000 1.0
C      1  0.5471260000000  0.5666910000000  0.5127650000000 1.0
C      1  0.4574520000000  0.4469680000000  0.5269040000000 1.0
C      1  0.5408770000000  0.4461710000000  0.4798470000000 1.0
C      1  0.5202480000000  0.4593640000000  0.4363000000000 1.0
C      1  0.4773500000000  0.5376280000000  0.4431630000000 1.0
C      1  0.5246310000000  0.5398250000000  0.5554930000000 1.0
C      1  0.4367620000000  0.4854020000000  0.5416630000000 1.0
C      1  0.5614480000000  0.5212360000000  0.5392880000000 1.0
C      1  0.4431320000000  0.5227160000000  0.4573640000000 1.0
C      1  0.5810090000000  0.5268230000000  0.5941450000000 1.0
C      1  0.5977290000000  0.5786730000000  0.5301140000000 1.0
C      1  0.5249340000000  0.5980930000000  0.5783950000000 1.0
C      1  0.4271300000000  0.5247830000000  0.4050580000000 1.0
C      1  0.5738240000000  0.4780570000000  0.3947720000000 1.0
C      1  0.4184280000000  0.4653740000000  0.5925190000000 1.0
C      1  0.4055600000000  0.5777260000000  0.4670760000000 1.0
C      1  0.5817440000000  0.4327330000000  0.4647750000000 1.0
C      1  0.4044600000000  0.4218810000000  0.5309530000000 1.0
C      1  0.4693430000000  0.5927180000000  0.4169140000000 1.0
C      1  0.5390790000000  0.4179650000000  0.4200530000000 1.0
C      1  0.4594090000000  0.4020760000000  0.5838380000000 1.0
C      1  0.5180330000000  0.4240670000000  0.5961130000000 1.0
C      1  0.5922240000000  0.5256980000000  0.4241020000000 1.0
C      1  0.4211030000000  0.5936890000000  0.5180890000000 1.0
C      1  0.4696070000000  0.4190150000000  0.4060290000000 1.0
C      1  0.5226200000000  0.5825700000000  0.4143000000000 1.0
C      1  0.4768140000000  0.5667200000000  0.5909410000000 1.0
C      1  0.4035590000000  0.5174460000000  0.5749610000000 1.0
C      1  0.5939970000000  0.4787010000000  0.5754150000000 1.0
C      1  0.4093880000000  0.4793660000000  0.4336840000000 1.0
C      1  0.5714700000000  0.5927890000000  0.4835640000000 1.0
C      1  0.4302970000000  0.4074690000000  0.4817300000000 1.0
C      1  0.5623880000000  0.4198060000000  0.5391270000000 1.0
C      1  0.5692690000000  0.5088340000000  0.5021290000000 1.0
C      1  0.4989560000000  0.5569980000000  0.5119830000000 1.0
C      1  0.5193880000000  0.4828880000000  0.5591690000000 1.0
C      1  0.4384680000000  0.5196240000000  0.5143340000000 1.0
C      1  0.5520400000000  0.4848110000000  0.5189400000000 1.0
C      1  0.4350650000000  0.4887130000000  0.5000470000000 1.0
C      1  0.5088040000000  0.5574280000000  0.4802120000000 1.0
C      1  0.4845900000000  0.4460070000000  0.4809270000000 1.0
C      1  0.5094030000000  0.4449710000000  0.5044290000000 1.0
C      1  0.4832420000000  0.4794170000000  0.4406480000000 1.0
C      1  0.5230340000000  0.5213310000000  0.4443580000000 1.0
C      1  0.4898850000000  0.4946460000000  0.5719570000000 1.0
C      1  0.4516440000000  0.4692330000000  0.4080060000000 1.0
C      1  0.3965420000000  0.4555320000000  0.4745130000000 1.0
C      1  0.4786930000000  0.4047690000000  0.4586350000000 1.0
C      1  0.5451270000000  0.4696770000000  0.5954340000000 1.0
C      1  0.4574890000000  0.5236980000000  0.6010560000000 1.0
C      1  0.5410160000000  0.5287500000000  0.3925770000000 1.0
C      1  0.5997920000000  0.4557220000000  0.5196190000000 1.0
C      1  0.4033790000000  0.5359890000000  0.5239830000000 1.0
C      1  0.6017540000000  0.5443800000000  0.4735300000000 1.0
C      1  0.5156800000000  0.3944540000000  0.5477280000000 1.0
C      1  0.4699070000000  0.5941750000000  0.5352000000000 1.0
C      1  0.5295920000000  0.6011890000000  0.4620280000000 1.0
C      1  0.4761690000000  0.4092390000000  0.5061960000000 1.0
C      1  0.4886950000000  0.4740610000000  0.3849340000000 1.0
C      1  0.4020960000000  0.5010320000000  0.4756410000000 1.0
C      1  0.5298860000000  0.3985350000000  0.4983090000000 1.0
C      1  0.4746390000000  0.6007260000000  0.4931420000000 1.0
C      1  0.5214670000000  0.6109900000000  0.5082050000000 1.0
C      1  0.4976450000000  0.4693770000000  0.6018010000000 1.0
C      1  0.5051670000000  0.5280640000000  0.6007810000000 1.0
C      1  0.5073960000000  0.5261600000000  0.4005730000000 1.0
C      1  0.6088560000000  0.5032630000000  0.5310810000000 1.0
C      1  0.3814820000000  0.5069770000000  0.5298090000000 1.0
C      1  0.6070810000000  0.4963790000000  0.4690050000000 1.0
C      1  0.5183390000000  0.4500490000000  0.5559440000000 1.0
C      1  0.5644490000000  0.5188040000000  0.4552520000000 1.0
C      1  0.4534210000000  0.5529450000000  0.5301450000000 1.0
C      1  0.4804600000000  0.4496780000000  0.4291250000000 1.0
C      1  0.5290440000000  0.5536780000000  0.4410720000000 1.0
C      1  0.4788720000000  0.5443090000000  0.5483330000000 1.0
C      1  0.4382110000000  0.5303890000000  0.5466590000000 1.0
C      1  0.5656710000000  0.4753940000000  0.5475460000000 1.0
C      1  0.4495980000000  0.4752890000000  0.4613990000000 1.0
C      1  0.5521540000000  0.5461740000000  0.4648590000000 1.0
C      1  0.4507950000000  0.4451230000000  0.4771160000000 1.0
C      1  0.5294320000000  0.4400260000000  0.5291310000000 1.0
C      1  0.5260990000000  0.5039350000000  0.5213810000000 1.0
C      1  0.5319890000000  0.5378630000000  0.4895740000000 1.0
C      1  0.4843530000000  0.5168920000000  0.5492200000000 1.0
C      1  0.4624530000000  0.4986470000000  0.4825190000000 1.0
C      1  0.5516380000000  0.4996780000000  0.4771890000000 1.0
C      1  0.4679540000000  0.5060740000000  0.5143640000000 1.0
C      1  0.4747380000000  0.5372430000000  0.5092540000000 1.0
C      1  0.5110350000000  0.4740630000000  0.4912740000000 1.0
C      1  0.4807430000000  0.4720750000000  0.5024150000000 1.0
C      1  0.4999710000000  0.5179040000000  0.4687630000000 1.0
C      1  0.5021590000000  0.4893360000000  0.4554270000000 1.0
C      1  0.4999050000000  0.4925860000000  0.5338460000000 1.0
C      1  0.3978750000000  0.4792370000000  0.4596130000000 1.0
C      1  0.4607070000000  0.4127010000000  0.4810150000000 1.0
C      1  0.4730820000000  0.4492670000000  0.3969730000000 1.0
C      1  0.5993870000000  0.4782740000000  0.5441780000000 1.0
C      1  0.4127070000000  0.5094230000000  0.5430630000000 1.0
C      1  0.5964890000000  0.5205590000000  0.4546680000000 1.0
C      1  0.5343430000000  0.4080850000000  0.5286970000000 1.0
C      1  0.4518530000000  0.5860050000000  0.5082150000000 1.0
C      1  0.5416960000000  0.5932470000000  0.4905440000000 1.0
C      1  0.5204620000000  0.4536290000000  0.5896900000000 1.0
C      1  0.4798970000000  0.5412610000000  0.6008420000000 1.0
C      1  0.5263110000000  0.5521710000000  0.4075940000000 1.0
C      1  0.4362980000000  0.5253000000000  0.5797160000000 1.0
C      1  0.5746090000000  0.4436060000000  0.5376340000000 1.0
C      1  0.5385090000000  0.5867160000000  0.4402050000000 1.0
C      1  0.5719270000000  0.5347520000000  0.3985040000000 1.0
C      1  0.4365110000000  0.4650360000000  0.4316000000000 1.0
C      1  0.5668680000000  0.4632380000000  0.5799550000000 1.0
C      1  0.4188780000000  0.4360430000000  0.4696630000000 1.0
C      1  0.5768570000000  0.5631930000000  0.4710900000000 1.0
C      1  0.4222920000000  0.5606360000000  0.5259710000000 1.0
C      1  0.4701960000000  0.5755020000000  0.5587130000000 1.0
C      1  0.5174070000000  0.4002920000000  0.5744540000000 1.0
C      1  0.4735870000000  0.4168020000000  0.4347070000000 1.0
C      1  0.4771800000000  0.5855000000000  0.4635550000000 1.0
C      1  0.4662080000000  0.4693330000000  0.5917260000000 1.0
C      1  0.5839800000000  0.4721560000000  0.4704480000000 1.0
C      1  0.5270740000000  0.5868690000000  0.5315150000000 1.0
C      1  0.4690520000000  0.4177520000000  0.5377510000000 1.0
C      1  0.5285710000000  0.4194260000000  0.4720320000000 1.0
C      1  0.5284380000000  0.4799720000000  0.4125730000000 1.0
C      1  0.4763050000000  0.5159970000000  0.4166990000000 1.0
C      1  0.5339730000000  0.5235920000000  0.5831920000000 1.0
C      1  0.4116150000000  0.4690580000000  0.5255930000000 1.0
C      1  0.5919400000000  0.5311200000000  0.5279210000000 1.0
C      1  0.4134220000000  0.5312700000000  0.4694620000000 1.0
C      1  0.4028000000000  0.4961130000000  0.5067200000000 1.0
C      1  0.5035070000000  0.4144790000000  0.5026580000000 1.0
C      1  0.4990770000000  0.4944880000000  0.4034120000000 1.0
C      1  0.5986650000000  0.5001350000000  0.5014180000000 1.0
C      1  0.5026940000000  0.5860370000000  0.4947400000000 1.0
C      1  0.5011000000000  0.4995330000000  0.6011270000000 1.0
C      1  0.5355370000000  0.5365400000000  0.5234540000000 1.0
C      1  0.4699710000000  0.5322520000000  0.4759460000000 1.0
C      1  0.4690800000000  0.4781760000000  0.5337830000000 1.0
C      1  0.5316830000000  0.4749630000000  0.4642710000000 1.0
C      1  0.5217340000000  0.5055580000000  0.4897380000000 1.0
END
