TITL C-2622953-3516-233 0.00571586768313618 125000 -549.019208922904 0 0 105 (C1) n - 1
REM
REM in /nfs/bkarasulu/CARBON/AIRSS/Generating-Clusters/AIREBO/with-SteepDescent/Higher-Symm/SD-CG/HFTN-CG
REM
REM
REM
REM
REM
REM ./C.cell (b20cbc046b6831c77cfcea5457e17084)
REM
REM compiler GCC version 9.2.1 20190827 (Red Hat 9.2.1-1)
REM options -cpp -mtune=generic -march=x86-64 -g -O0 -fpre-include=/usr/include/finclude/math-vector-fortran.h
REM seed -738189167 -446171117 246807507 1363206581 -214557840 1387973655 2115523245 12283521 420851628 -962693304 770354072 -400983036 1047377886 -109537293 -225465831 213236302 184229757 -1591970987 -1032952247 494799093 167030365 -550094390 -1838395819 1467015948 -196973101 56263319 1088325023 -1914156881 -1482111255 -2061569287 -42774128 -1268360112 -1047653582
REM
CELL 1.54180   50.00000   50.00000   50.00000   90.00000   90.00000   90.00000
LATT -1
SFAC C  
C      1  0.6007730000000  0.5255440000000  0.5486270000000 1.0
C      1  0.5837710000000  0.4714650000000  0.4539580000000 1.0
C      1  0.4216320000000  0.4647440000000  0.4632520000000 1.0
C      1  0.4227980000000  0.5384360000000  0.5335190000000 1.0
C      1  0.4879860000000  0.4748460000000  0.5789480000000 1.0
C      1  0.4784700000000  0.5316530000000  0.4133410000000 1.0
C      1  0.4574910000000  0.5126550000000  0.4148600000000 1.0
C      1  0.4666070000000  0.4939070000000  0.5870400000000 1.0
C      1  0.5531640000000  0.4776650000000  0.5104420000000 1.0
C      1  0.5418740000000  0.5240960000000  0.4981890000000 1.0
C      1  0.5661110000000  0.4827440000000  0.4807330000000 1.0
C      1  0.5626330000000  0.5127120000000  0.5525820000000 1.0
C      1  0.5759830000000  0.4502460000000  0.4828250000000 1.0
C      1  0.5723370000000  0.5402560000000  0.5371560000000 1.0
C      1  0.5103470000000  0.4860930000000  0.5536640000000 1.0
C      1  0.5065380000000  0.5119450000000  0.4467880000000 1.0
C      1  0.5376830000000  0.4772950000000  0.6034350000000 1.0
C      1  0.5272420000000  0.5123410000000  0.4047890000000 1.0
C      1  0.5098850000000  0.4242640000000  0.5356320000000 1.0
C      1  0.5112620000000  0.5823910000000  0.4696610000000 1.0
C      1  0.4751400000000  0.4264820000000  0.5191510000000 1.0
C      1  0.4733430000000  0.5729070000000  0.4814520000000 1.0
C      1  0.4466860000000  0.4754000000000  0.4477770000000 1.0
C      1  0.4468510000000  0.5262470000000  0.5542550000000 1.0
C      1  0.4933800000000  0.4525100000000  0.5401720000000 1.0
C      1  0.4982450000000  0.5525540000000  0.4704220000000 1.0
C      1  0.4521010000000  0.5445450000000  0.4995570000000 1.0
C      1  0.4581790000000  0.4601160000000  0.5125860000000 1.0
C      1  0.5296180000000  0.5123320000000  0.4716060000000 1.0
C      1  0.5206450000000  0.4811660000000  0.5131850000000 1.0
C      1  0.5744010000000  0.4632280000000  0.5565280000000 1.0
C      1  0.5619670000000  0.5133500000000  0.4461920000000 1.0
C      1  0.5125350000000  0.5486690000000  0.5175570000000 1.0
C      1  0.5088450000000  0.4502200000000  0.4834290000000 1.0
C      1  0.4918730000000  0.4115650000000  0.4623900000000 1.0
C      1  0.5217440000000  0.5793310000000  0.5290210000000 1.0
C      1  0.5555190000000  0.4489840000000  0.5380830000000 1.0
C      1  0.5517670000000  0.5405940000000  0.4542350000000 1.0
C      1  0.5719500000000  0.4849140000000  0.5318960000000 1.0
C      1  0.5686820000000  0.5146380000000  0.4795310000000 1.0
C      1  0.4681870000000  0.4475220000000  0.4624630000000 1.0
C      1  0.4695430000000  0.5479070000000  0.5409020000000 1.0
C      1  0.5153150000000  0.5364710000000  0.5646990000000 1.0
C      1  0.5238380000000  0.4703680000000  0.4274460000000 1.0
C      1  0.5752260000000  0.4892440000000  0.5711340000000 1.0
C      1  0.5766310000000  0.4800220000000  0.4299270000000 1.0
C      1  0.5020760000000  0.4613630000000  0.4520170000000 1.0
C      1  0.4978840000000  0.5324070000000  0.5381100000000 1.0
C      1  0.5290300000000  0.4240810000000  0.5191800000000 1.0
C      1  0.5300490000000  0.5856290000000  0.4866460000000 1.0
C      1  0.4290040000000  0.5017590000000  0.4792090000000 1.0
C      1  0.4259770000000  0.5013440000000  0.5190710000000 1.0
C      1  0.4225840000000  0.5274020000000  0.4614600000000 1.0
C      1  0.4377510000000  0.4603920000000  0.5397640000000 1.0
C      1  0.5690250000000  0.4383620000000  0.5114310000000 1.0
C      1  0.5628470000000  0.5539700000000  0.4755330000000 1.0
C      1  0.4861470000000  0.4902600000000  0.4553080000000 1.0
C      1  0.4920230000000  0.5029270000000  0.5304500000000 1.0
C      1  0.5808700000000  0.5276440000000  0.5060140000000 1.0
C      1  0.5921980000000  0.5076390000000  0.5261330000000 1.0
C      1  0.5344830000000  0.4806760000000  0.4712200000000 1.0
C      1  0.5308660000000  0.5095160000000  0.5215310000000 1.0
C      1  0.4371990000000  0.5208330000000  0.4351690000000 1.0
C      1  0.4409090000000  0.4850010000000  0.5796340000000 1.0
C      1  0.4901800000000  0.4261950000000  0.4881400000000 1.0
C      1  0.4967870000000  0.5748570000000  0.5060160000000 1.0
C      1  0.4868300000000  0.5096680000000  0.4981970000000 1.0
C      1  0.5033460000000  0.4850560000000  0.4841730000000 1.0
C      1  0.4599770000000  0.4375170000000  0.4908520000000 1.0
C      1  0.4664980000000  0.5679640000000  0.5143930000000 1.0
C      1  0.5314010000000  0.5124720000000  0.5532040000000 1.0
C      1  0.5473310000000  0.4939560000000  0.4223710000000 1.0
C      1  0.4939970000000  0.4693250000000  0.4136630000000 1.0
C      1  0.4914580000000  0.5347220000000  0.5843390000000 1.0
C      1  0.4712300000000  0.5557730000000  0.4272040000000 1.0
C      1  0.4749040000000  0.4467040000000  0.5749840000000 1.0
C      1  0.5197460000000  0.4792680000000  0.5856340000000 1.0
C      1  0.5046870000000  0.5210390000000  0.4176930000000 1.0
C      1  0.5374530000000  0.4440410000000  0.4399720000000 1.0
C      1  0.5345620000000  0.5604050000000  0.5613680000000 1.0
C      1  0.4884840000000  0.4327120000000  0.4397510000000 1.0
C      1  0.4930790000000  0.5713060000000  0.5454630000000 1.0
C      1  0.4094130000000  0.5444830000000  0.4810810000000 1.0
C      1  0.4175570000000  0.4543760000000  0.5150500000000 1.0
C      1  0.4720570000000  0.5314080000000  0.4753630000000 1.0
C      1  0.4726130000000  0.4795890000000  0.5363430000000 1.0
C      1  0.5393060000000  0.4489830000000  0.4985030000000 1.0
C      1  0.5408260000000  0.5579540000000  0.5011310000000 1.0
C      1  0.4548720000000  0.5141090000000  0.5069880000000 1.0
C      1  0.4518800000000  0.4842160000000  0.4940810000000 1.0
C      1  0.4425280000000  0.4933250000000  0.5467890000000 1.0
C      1  0.4562470000000  0.5060140000000  0.4591260000000 1.0
C      1  0.5478610000000  0.4505810000000  0.4656290000000 1.0
C      1  0.5488790000000  0.5591950000000  0.5337310000000 1.0
C      1  0.4249520000000  0.4639110000000  0.4907830000000 1.0
C      1  0.4228550000000  0.5454930000000  0.5066500000000 1.0
C      1  0.4632380000000  0.5572370000000  0.4530100000000 1.0
C      1  0.4624110000000  0.4408670000000  0.5472190000000 1.0
C      1  0.5204480000000  0.5393040000000  0.4560620000000 1.0
C      1  0.5263560000000  0.4605220000000  0.5379630000000 1.0
C      1  0.4694540000000  0.5202320000000  0.5789500000000 1.0
C      1  0.4650510000000  0.4840940000000  0.4205160000000 1.0
C      1  0.4268780000000  0.5353050000000  0.5774600000000 1.0
C      1  0.4620800000000  0.4513590000000  0.4292110000000 1.0
C      1  0.4038250000000  0.4967140000000  0.4995700000000 1.0
END
