TITL C-2622957-9142-184 -0.000292067548084189 125000 -588.137074285324 0 0 111 (C1) n - 1
REM
REM in /nfs/bkarasulu/CARBON/AIRSS/Generating-Clusters/AIREBO/with-SteepDescent/Higher-Symm/SD-CG/HFTN-CG
REM
REM
REM
REM
REM
REM ./C.cell (b20cbc046b6831c77cfcea5457e17084)
REM
REM compiler GCC version 9.2.1 20190827 (Red Hat 9.2.1-1)
REM options -cpp -mtune=generic -march=x86-64 -g -O0 -fpre-include=/usr/include/finclude/math-vector-fortran.h
REM seed -2137546502 -620669267 -1760212789 636079412 264311479 -700895004 -1312136677 -433443539 2058144844 1874649452 -562546243 -467401991 -1808627622 950380492 2073387385 -1236645301 -435192604 1620930566 -5592563 -576062154 923452007 -1101698455 187143875 962505444 936757182 -1493258072 -557002761 1021561409 -443744415 -1973320360 774135937 1946906940 -323686359
REM
CELL 1.54180   50.00000   50.00000   50.00000   90.00000   90.00000   90.00000
LATT -1
SFAC C  
C      1  0.4643140000000  0.4840670000000  0.5507520000000 1.0
C      1  0.5230220000000  0.5522410000000  0.4834360000000 1.0
C      1  0.5056980000000  0.5418270000000  0.5766520000000 1.0
C      1  0.5218830000000  0.4685050000000  0.4230710000000 1.0
C      1  0.4652430000000  0.4818050000000  0.4760760000000 1.0
C      1  0.4950770000000  0.5135010000000  0.5895700000000 1.0
C      1  0.5337630000000  0.4878730000000  0.5280130000000 1.0
C      1  0.4528410000000  0.4660700000000  0.4342770000000 1.0
C      1  0.5137260000000  0.5930830000000  0.4692120000000 1.0
C      1  0.5754810000000  0.4511680000000  0.4705750000000 1.0
C      1  0.4384420000000  0.4555510000000  0.5404500000000 1.0
C      1  0.4296910000000  0.4691670000000  0.4532720000000 1.0
C      1  0.5840630000000  0.5286170000000  0.4850080000000 1.0
C      1  0.5672320000000  0.4870700000000  0.4860210000000 1.0
C      1  0.5523050000000  0.4312400000000  0.4604860000000 1.0
C      1  0.5325180000000  0.5513350000000  0.4412970000000 1.0
C      1  0.5541920000000  0.5536540000000  0.4764360000000 1.0
C      1  0.5451590000000  0.5512440000000  0.5285980000000 1.0
C      1  0.5217630000000  0.4438760000000  0.4684550000000 1.0
C      1  0.5549060000000  0.5158940000000  0.4908740000000 1.0
C      1  0.5356390000000  0.4978610000000  0.4619880000000 1.0
C      1  0.5296580000000  0.5146560000000  0.5074740000000 1.0
C      1  0.4712610000000  0.4458340000000  0.4321880000000 1.0
C      1  0.5437960000000  0.4687040000000  0.4758190000000 1.0
C      1  0.5681690000000  0.5490150000000  0.5070830000000 1.0
C      1  0.5010120000000  0.5277690000000  0.4472920000000 1.0
C      1  0.4339450000000  0.5317610000000  0.4943250000000 1.0
C      1  0.5716660000000  0.5213730000000  0.5266290000000 1.0
C      1  0.4730990000000  0.4109880000000  0.4696440000000 1.0
C      1  0.4813220000000  0.4657510000000  0.5738010000000 1.0
C      1  0.5690890000000  0.4705790000000  0.5352070000000 1.0
C      1  0.5597580000000  0.5328850000000  0.4504310000000 1.0
C      1  0.4265780000000  0.4314320000000  0.4872340000000 1.0
C      1  0.5118470000000  0.5799410000000  0.4997650000000 1.0
C      1  0.4671590000000  0.4519590000000  0.4918010000000 1.0
C      1  0.4678500000000  0.5250240000000  0.5505500000000 1.0
C      1  0.5466180000000  0.5598480000000  0.5604770000000 1.0
C      1  0.4964570000000  0.4396440000000  0.4907700000000 1.0
C      1  0.5758330000000  0.4737360000000  0.4494240000000 1.0
C      1  0.5242500000000  0.4231110000000  0.5349170000000 1.0
C      1  0.5274240000000  0.5961700000000  0.5211230000000 1.0
C      1  0.5919820000000  0.4416110000000  0.4957150000000 1.0
C      1  0.4974580000000  0.4873080000000  0.4374450000000 1.0
C      1  0.4185650000000  0.4596490000000  0.4766590000000 1.0
C      1  0.4886400000000  0.4972810000000  0.5113680000000 1.0
C      1  0.4762170000000  0.5715010000000  0.5417230000000 1.0
C      1  0.4228810000000  0.4551360000000  0.5102150000000 1.0
C      1  0.5514920000000  0.4245450000000  0.5389720000000 1.0
C      1  0.5046920000000  0.4482980000000  0.5423780000000 1.0
C      1  0.4670450000000  0.4931770000000  0.4291840000000 1.0
C      1  0.4688160000000  0.4375240000000  0.5747030000000 1.0
C      1  0.5512220000000  0.4712980000000  0.4368900000000 1.0
C      1  0.4937090000000  0.4054950000000  0.4899660000000 1.0
C      1  0.5215440000000  0.4590330000000  0.5147640000000 1.0
C      1  0.5146910000000  0.5197800000000  0.4773770000000 1.0
C      1  0.4309810000000  0.5569810000000  0.4793820000000 1.0
C      1  0.4056390000000  0.4931340000000  0.4942470000000 1.0
C      1  0.4417520000000  0.5065820000000  0.5388950000000 1.0
C      1  0.4672770000000  0.5204530000000  0.4670670000000 1.0
C      1  0.5413430000000  0.5819350000000  0.5387070000000 1.0
C      1  0.4375430000000  0.5297630000000  0.4416740000000 1.0
C      1  0.4832070000000  0.4199790000000  0.4449230000000 1.0
C      1  0.4945870000000  0.5090180000000  0.5567980000000 1.0
C      1  0.4285310000000  0.5309240000000  0.5254230000000 1.0
C      1  0.4451800000000  0.4993940000000  0.4549690000000 1.0
C      1  0.4530380000000  0.4269460000000  0.4816750000000 1.0
C      1  0.4825650000000  0.5204340000000  0.4209420000000 1.0
C      1  0.4460260000000  0.5643770000000  0.5467550000000 1.0
C      1  0.5694900000000  0.5189140000000  0.4234620000000 1.0
C      1  0.4688210000000  0.5685410000000  0.4513370000000 1.0
C      1  0.5437710000000  0.4677720000000  0.5523230000000 1.0
C      1  0.5041650000000  0.5672410000000  0.4513500000000 1.0
C      1  0.5055710000000  0.5001330000000  0.5358410000000 1.0
C      1  0.5140500000000  0.5345420000000  0.4179490000000 1.0
C      1  0.5420150000000  0.5138260000000  0.5718540000000 1.0
C      1  0.5411530000000  0.5793960000000  0.4584530000000 1.0
C      1  0.5225960000000  0.4452130000000  0.5919040000000 1.0
C      1  0.4218550000000  0.5083220000000  0.4780500000000 1.0
C      1  0.4271410000000  0.4747700000000  0.5604830000000 1.0
C      1  0.4684880000000  0.4950780000000  0.5835090000000 1.0
C      1  0.4393000000000  0.5379630000000  0.5632830000000 1.0
C      1  0.4647410000000  0.5181470000000  0.4991300000000 1.0
C      1  0.5168640000000  0.5015790000000  0.4139350000000 1.0
C      1  0.5005680000000  0.4733610000000  0.4928570000000 1.0
C      1  0.5139080000000  0.5392470000000  0.5226270000000 1.0
C      1  0.5429100000000  0.5015130000000  0.4311610000000 1.0
C      1  0.5047870000000  0.4457440000000  0.4397240000000 1.0
C      1  0.5221320000000  0.4956570000000  0.5822670000000 1.0
C      1  0.5151500000000  0.4645190000000  0.5703920000000 1.0
C      1  0.5781550000000  0.5059160000000  0.4601760000000 1.0
C      1  0.4931650000000  0.5478050000000  0.5481900000000 1.0
C      1  0.4962430000000  0.4927260000000  0.4681620000000 1.0
C      1  0.4462840000000  0.4892510000000  0.5033000000000 1.0
C      1  0.4463410000000  0.5808870000000  0.5174250000000 1.0
C      1  0.4856590000000  0.5445500000000  0.5049170000000 1.0
C      1  0.5774940000000  0.4427450000000  0.5267560000000 1.0
C      1  0.4707300000000  0.4447770000000  0.5415390000000 1.0
C      1  0.5351120000000  0.4335040000000  0.4979630000000 1.0
C      1  0.4689770000000  0.4708470000000  0.5197750000000 1.0
C      1  0.4808140000000  0.5878000000000  0.4759190000000 1.0
C      1  0.4283460000000  0.5791370000000  0.4961540000000 1.0
C      1  0.4199110000000  0.4860310000000  0.5227990000000 1.0
C      1  0.4789480000000  0.5776920000000  0.5083290000000 1.0
C      1  0.4379580000000  0.5046940000000  0.5726320000000 1.0
C      1  0.5628430000000  0.4283400000000  0.5008920000000 1.0
C      1  0.5520800000000  0.5097890000000  0.5459380000000 1.0
C      1  0.5736560000000  0.4923020000000  0.5172550000000 1.0
C      1  0.4857030000000  0.5466080000000  0.4710990000000 1.0
C      1  0.4417210000000  0.5544090000000  0.4539200000000 1.0
C      1  0.5341450000000  0.5412230000000  0.5765830000000 1.0
C      1  0.5158680000000  0.4101060000000  0.5091010000000 1.0
END
