TITL C-2622956-4641-57 0.00406524609358219 125000 -719.695923284223 0 0 136 (C1) n - 1
REM
REM in /nfs/bkarasulu/CARBON/AIRSS/Generating-Clusters/AIREBO/with-SteepDescent/Higher-Symm/SD-CG/HFTN-CG
REM
REM
REM
REM
REM
REM ./C.cell (b20cbc046b6831c77cfcea5457e17084)
REM
REM compiler GCC version 9.2.1 20190827 (Red Hat 9.2.1-1)
REM options -cpp -mtune=generic -march=x86-64 -g -O0 -fpre-include=/usr/include/finclude/math-vector-fortran.h
REM seed -312486206 -301692818 -486081544 -1032736734 173939090 1818593007 -794867568 -1322749845 866669799 -318240913 -441848071 226915700 668821127 -1932619519 1444948015 2105323181 409626657 160945408 1917457725 1873467062 312001039 -775751452 1575321569 390839271 -491380525 1706716524 1711934017 1095250796 394838609 -1700510321 -1299950576 795890381 -21010957
REM
CELL 1.54180   50.00000   50.00000   50.00000   90.00000   90.00000   90.00000
LATT -1
SFAC C  
C      1  0.4275190000000  0.4733200000000  0.5494020000000 1.0
C      1  0.4558510000000  0.5621060000000  0.5518310000000 1.0
C      1  0.5395110000000  0.5719820000000  0.5643560000000 1.0
C      1  0.5856970000000  0.4870690000000  0.5602930000000 1.0
C      1  0.5018870000000  0.4171630000000  0.5455710000000 1.0
C      1  0.4296140000000  0.5306500000000  0.4481850000000 1.0
C      1  0.4524920000000  0.4342040000000  0.4528010000000 1.0
C      1  0.5356060000000  0.4258260000000  0.4367590000000 1.0
C      1  0.5703390000000  0.5266270000000  0.4465790000000 1.0
C      1  0.5114830000000  0.5792730000000  0.4372590000000 1.0
C      1  0.5460260000000  0.4642960000000  0.5134700000000 1.0
C      1  0.4770520000000  0.4415510000000  0.5139770000000 1.0
C      1  0.4408870000000  0.5093420000000  0.5142270000000 1.0
C      1  0.4903830000000  0.5562890000000  0.5157120000000 1.0
C      1  0.5461980000000  0.5260190000000  0.5162420000000 1.0
C      1  0.5385570000000  0.5370370000000  0.4884980000000 1.0
C      1  0.4794470000000  0.5515090000000  0.4868920000000 1.0
C      1  0.4365890000000  0.4981140000000  0.4841350000000 1.0
C      1  0.4909890000000  0.4384370000000  0.4837130000000 1.0
C      1  0.5507330000000  0.4726680000000  0.4843370000000 1.0
C      1  0.5000880000000  0.5773380000000  0.5678010000000 1.0
C      1  0.5600630000000  0.5289900000000  0.5686690000000 1.0
C      1  0.5542860000000  0.4476450000000  0.5669510000000 1.0
C      1  0.4599580000000  0.4349510000000  0.5663220000000 1.0
C      1  0.4278100000000  0.5202110000000  0.5666070000000 1.0
C      1  0.4960590000000  0.4251590000000  0.4310300000000 1.0
C      1  0.5580120000000  0.4611820000000  0.4289190000000 1.0
C      1  0.5455890000000  0.5546380000000  0.4323490000000 1.0
C      1  0.4675020000000  0.5630300000000  0.4312890000000 1.0
C      1  0.4270990000000  0.4859100000000  0.4309310000000 1.0
C      1  0.4033260000000  0.5347230000000  0.5132580000000 1.0
C      1  0.5054710000000  0.6035320000000  0.5162970000000 1.0
C      1  0.5954080000000  0.5307670000000  0.5181880000000 1.0
C      1  0.5681930000000  0.4201910000000  0.5296470000000 1.0
C      1  0.4368930000000  0.4174190000000  0.5120710000000 1.0
C      1  0.3995390000000  0.4705850000000  0.4712240000000 1.0
C      1  0.5057120000000  0.3979100000000  0.4902030000000 1.0
C      1  0.5980680000000  0.4737350000000  0.4808350000000 1.0
C      1  0.5540970000000  0.5860290000000  0.4855810000000 1.0
C      1  0.4403470000000  0.5847540000000  0.4803490000000 1.0
C      1  0.4791610000000  0.5711380000000  0.4591230000000 1.0
C      1  0.5557840000000  0.5512140000000  0.4628270000000 1.0
C      1  0.5551980000000  0.4523510000000  0.4590530000000 1.0
C      1  0.4796160000000  0.4232810000000  0.4566880000000 1.0
C      1  0.4185620000000  0.5026780000000  0.4559290000000 1.0
C      1  0.4713740000000  0.4214390000000  0.5408130000000 1.0
C      1  0.5659530000000  0.4585370000000  0.5404490000000 1.0
C      1  0.5560390000000  0.5438320000000  0.5416810000000 1.0
C      1  0.4829980000000  0.5763920000000  0.5421410000000 1.0
C      1  0.4233690000000  0.5035550000000  0.5411630000000 1.0
C      1  0.4782010000000  0.5171150000000  0.4431380000000 1.0
C      1  0.5089300000000  0.5262650000000  0.4476470000000 1.0
C      1  0.5274300000000  0.4965170000000  0.4448270000000 1.0
C      1  0.5049940000000  0.4709560000000  0.4451600000000 1.0
C      1  0.4736860000000  0.4838930000000  0.4488950000000 1.0
C      1  0.4792360000000  0.4790680000000  0.5520840000000 1.0
C      1  0.5108220000000  0.4677770000000  0.5577510000000 1.0
C      1  0.5321650000000  0.4918580000000  0.5542650000000 1.0
C      1  0.5027890000000  0.5315100000000  0.5558200000000 1.0
C      1  0.4744500000000  0.5127000000000  0.5555530000000 1.0
C      1  0.5158270000000  0.5744920000000  0.5152870000000 1.0
C      1  0.5723540000000  0.5078140000000  0.5127480000000 1.0
C      1  0.5392410000000  0.4332720000000  0.5150620000000 1.0
C      1  0.4456180000000  0.4474450000000  0.5113170000000 1.0
C      1  0.4352860000000  0.5402190000000  0.5127990000000 1.0
C      1  0.5202690000000  0.4264570000000  0.4879400000000 1.0
C      1  0.5737480000000  0.4931990000000  0.4848810000000 1.0
C      1  0.5290970000000  0.5679120000000  0.4874600000000 1.0
C      1  0.4477590000000  0.5535890000000  0.4875670000000 1.0
C      1  0.4308480000000  0.4658170000000  0.4870680000000 1.0
C      1  0.4831230000000  0.3820260000000  0.5423010000000 1.0
C      1  0.4005530000000  0.4715630000000  0.5356440000000 1.0
C      1  0.4450820000000  0.5879300000000  0.5402400000000 1.0
C      1  0.5807070000000  0.5909760000000  0.5413570000000 1.0
C      1  0.6230490000000  0.4570130000000  0.5350100000000 1.0
C      1  0.4895130000000  0.6241380000000  0.4603200000000 1.0
C      1  0.3710300000000  0.5300550000000  0.4603530000000 1.0
C      1  0.4331490000000  0.4155550000000  0.4604860000000 1.0
C      1  0.5690260000000  0.4145430000000  0.4630640000000 1.0
C      1  0.5939790000000  0.5408210000000  0.4589000000000 1.0
C      1  0.5223150000000  0.5103330000000  0.5279500000000 1.0
C      1  0.5197290000000  0.4792760000000  0.5187490000000 1.0
C      1  0.4912810000000  0.4672010000000  0.5231170000000 1.0
C      1  0.4719880000000  0.5102160000000  0.5157830000000 1.0
C      1  0.4946280000000  0.5275530000000  0.5246910000000 1.0
C      1  0.5246850000000  0.4852820000000  0.4768030000000 1.0
C      1  0.5186860000000  0.5167750000000  0.4780990000000 1.0
C      1  0.4878030000000  0.5232140000000  0.4814340000000 1.0
C      1  0.4668520000000  0.5002820000000  0.4774640000000 1.0
C      1  0.5016650000000  0.4685930000000  0.4847270000000 1.0
C      1  0.4379780000000  0.4037570000000  0.4849670000000 1.0
C      1  0.3863730000000  0.5326800000000  0.4858140000000 1.0
C      1  0.4974720000000  0.6146690000000  0.4872610000000 1.0
C      1  0.5948450000000  0.5366420000000  0.4874520000000 1.0
C      1  0.5638860000000  0.4197450000000  0.4959150000000 1.0
C      1  0.4432810000000  0.5870700000000  0.5116280000000 1.0
C      1  0.4027580000000  0.4725780000000  0.5050180000000 1.0
C      1  0.4947820000000  0.3900690000000  0.5167230000000 1.0
C      1  0.6114740000000  0.4648340000000  0.5088720000000 1.0
C      1  0.5679400000000  0.5891880000000  0.5147050000000 1.0
C      1  0.3939670000000  0.5047110000000  0.5276980000000 1.0
C      1  0.4747820000000  0.6056930000000  0.5317790000000 1.0
C      1  0.5826640000000  0.5574880000000  0.5338080000000 1.0
C      1  0.5927560000000  0.4416180000000  0.5352960000000 1.0
C      1  0.4537260000000  0.3953630000000  0.5312730000000 1.0
C      1  0.3878320000000  0.5004570000000  0.4623780000000 1.0
C      1  0.4816420000000  0.3955620000000  0.4702450000000 1.0
C      1  0.5835810000000  0.4441610000000  0.4713040000000 1.0
C      1  0.5806920000000  0.5717270000000  0.4690820000000 1.0
C      1  0.4672190000000  0.5989180000000  0.4666680000000 1.0
C      1  0.5186360000000  0.4388740000000  0.5415240000000 1.0
C      1  0.4517210000000  0.4638990000000  0.5390370000000 1.0
C      1  0.4541240000000  0.5357300000000  0.5407930000000 1.0
C      1  0.5237320000000  0.5542310000000  0.5414460000000 1.0
C      1  0.5623950000000  0.4911080000000  0.5385820000000 1.0
C      1  0.5099100000000  0.5574050000000  0.4613390000000 1.0
C      1  0.4549400000000  0.5358360000000  0.4594710000000 1.0
C      1  0.4512230000000  0.4609860000000  0.4602780000000 1.0
C      1  0.5220270000000  0.4451390000000  0.4595390000000 1.0
C      1  0.5588540000000  0.5028290000000  0.4562420000000 1.0
C      1  0.4693610000000  0.4565870000000  0.5755770000000 1.0
C      1  0.4509720000000  0.5191120000000  0.5769000000000 1.0
C      1  0.5059420000000  0.5545360000000  0.5772260000000 1.0
C      1  0.5476910000000  0.5084970000000  0.5761480000000 1.0
C      1  0.5317630000000  0.4524660000000  0.5767470000000 1.0
C      1  0.4684500000000  0.5395510000000  0.4220990000000 1.0
C      1  0.4513790000000  0.4846490000000  0.4238130000000 1.0
C      1  0.5047470000000  0.4475390000000  0.4235670000000 1.0
C      1  0.5425360000000  0.4795170000000  0.4205280000000 1.0
C      1  0.5274840000000  0.5391810000000  0.4237470000000 1.0
C      1  0.4700700000000  0.6025310000000  0.4994970000000 1.0
C      1  0.5866570000000  0.4435330000000  0.5030430000000 1.0
C      1  0.4672000000000  0.3948340000000  0.5000590000000 1.0
C      1  0.3923790000000  0.5019070000000  0.4950300000000 1.0
C      1  0.5825730000000  0.5641280000000  0.5011770000000 1.0
C      1  0.4822600000000  0.4861320000000  0.5003370000000 1.0
END
