TITL C-2622958-629-464 -0.00043959194373685 125000 -235.340157453506 0 0 40 (C1) n - 1
REM
REM in /nfs/bkarasulu/CARBON/AIRSS/Generating-Clusters/AIREBO/with-SteepDescent/Higher-Symm/SD-CG/HFTN-CG
REM
REM
REM
REM
REM
REM ./C.cell (b20cbc046b6831c77cfcea5457e17084)
REM
REM compiler GCC version 9.2.1 20190827 (Red Hat 9.2.1-1)
REM options -cpp -mtune=generic -march=x86-64 -g -O0 -fpre-include=/usr/include/finclude/math-vector-fortran.h
REM seed -412128026 514919718 806385330 -2059771650 347013037 -1918829213 717760884 -344775802 934798067 1308278957 -1792731735 388766108 730222151 1733530792 -1085204072 -1697632736 685553087 -48362134 -1763381212 -1249851762 840903925 1597461251 -445040525 -1120446059 1996147052 -1939313247 -284178793 192768540 -241305777 -1870641680 -138241161 1178050580 15856809
REM
CELL 1.54180   50.00000   50.00000   50.00000   90.00000   90.00000   90.00000
LATT -1
SFAC C  
C      1  0.5097200000000  0.4576000000000  0.5600180000000 1.0
C      1  0.5122780000000  0.5214560000000  0.5647750000000 1.0
C      1  0.5081680000000  0.5643790000000  0.5284080000000 1.0
C      1  0.5063820000000  0.5667940000000  0.4689660000000 1.0
C      1  0.5097120000000  0.5168850000000  0.4329800000000 1.0
C      1  0.5097770000000  0.4574930000000  0.4502450000000 1.0
C      1  0.5101350000000  0.4316050000000  0.5009830000000 1.0
C      1  0.4830680000000  0.4644220000000  0.4568080000000 1.0
C      1  0.4837700000000  0.4423470000000  0.5035750000000 1.0
C      1  0.4829540000000  0.4640430000000  0.5524110000000 1.0
C      1  0.4844420000000  0.5169550000000  0.5593900000000 1.0
C      1  0.4811780000000  0.5559900000000  0.5252770000000 1.0
C      1  0.4797290000000  0.5573310000000  0.4729170000000 1.0
C      1  0.4831200000000  0.5146670000000  0.4423310000000 1.0
C      1  0.4736220000000  0.4883590000000  0.4454930000000 1.0
C      1  0.4722970000000  0.4500590000000  0.4787610000000 1.0
C      1  0.4746130000000  0.4493250000000  0.5295430000000 1.0
C      1  0.4751060000000  0.4900970000000  0.5608500000000 1.0
C      1  0.4719490000000  0.5387990000000  0.5459980000000 1.0
C      1  0.4702780000000  0.5601110000000  0.4994810000000 1.0
C      1  0.4718430000000  0.5377710000000  0.4540910000000 1.0
C      1  0.5286540000000  0.4665380000000  0.5440910000000 1.0
C      1  0.5343040000000  0.5266740000000  0.5483010000000 1.0
C      1  0.5319710000000  0.5500150000000  0.5290450000000 1.0
C      1  0.5264280000000  0.5500120000000  0.4762850000000 1.0
C      1  0.5354440000000  0.5139230000000  0.4416040000000 1.0
C      1  0.5331230000000  0.4592740000000  0.4654730000000 1.0
C      1  0.5344530000000  0.4415810000000  0.4911420000000 1.0
C      1  0.5524580000000  0.4827860000000  0.4734350000000 1.0
C      1  0.5560400000000  0.4632960000000  0.4976650000000 1.0
C      1  0.5542720000000  0.4751690000000  0.5245100000000 1.0
C      1  0.5577030000000  0.5076530000000  0.5325760000000 1.0
C      1  0.5496070000000  0.5318300000000  0.5119090000000 1.0
C      1  0.5460180000000  0.5318190000000  0.4844300000000 1.0
C      1  0.5484410000000  0.5096200000000  0.4665050000000 1.0
C      1  0.5267730000000  0.4945330000000  0.5259150000000 1.0
C      1  0.4519990000000  0.5045450000000  0.4939160000000 1.0
C      1  0.4263270000000  0.5061140000000  0.4888680000000 1.0
C      1  0.4775310000000  0.5032830000000  0.5016340000000 1.0
C      1  0.5026040000000  0.4986350000000  0.5089460000000 1.0
END
