TITL C-2622953-3516-260 -0.00100757940445666 125000 -682.500865115241 0 0 120 (C1) n - 1
REM
REM in /nfs/bkarasulu/CARBON/AIRSS/Generating-Clusters/AIREBO/with-SteepDescent/Higher-Symm/SD-CG/HFTN-CG
REM
REM
REM
REM
REM
REM ./C.cell (b20cbc046b6831c77cfcea5457e17084)
REM
REM compiler GCC version 9.2.1 20190827 (Red Hat 9.2.1-1)
REM options -cpp -mtune=generic -march=x86-64 -g -O0 -fpre-include=/usr/include/finclude/math-vector-fortran.h
REM seed 831880542 -1176658933 -1410420144 -2052292671 1718408337 -455359766 -1105506426 -1204368052 -231435734 -471149822 -1364544962 -1422517351 479706330 -58640177 714996830 -839481832 2121951045 -373004817 -1895996744 -1079541825 -435128162 508861074 -1358415888 -271832074 -947537258 939287947 419655194 469845712 52395825 1921018513 -922548803 123142493 -1751043103
REM
CELL 1.54180   50.00000   50.00000   50.00000   90.00000   90.00000   90.00000
LATT -1
SFAC C  
C      1  0.4499530000000  0.5384950000000  0.5360910000000 1.0
C      1  0.4965230000000  0.5368550000000  0.4434430000000 1.0
C      1  0.5500270000000  0.5360390000000  0.5204070000000 1.0
C      1  0.4502550000000  0.4617090000000  0.5331200000000 1.0
C      1  0.4962810000000  0.4606780000000  0.4484420000000 1.0
C      1  0.5521310000000  0.4647070000000  0.5207550000000 1.0
C      1  0.5231500000000  0.4539440000000  0.5066910000000 1.0
C      1  0.4732960000000  0.4612350000000  0.5080050000000 1.0
C      1  0.5045750000000  0.4591890000000  0.4793270000000 1.0
C      1  0.5220410000000  0.5458060000000  0.5080310000000 1.0
C      1  0.4708580000000  0.5395830000000  0.5092510000000 1.0
C      1  0.5103460000000  0.5369770000000  0.4713080000000 1.0
C      1  0.4685190000000  0.6049540000000  0.5277370000000 1.0
C      1  0.5017110000000  0.5972600000000  0.4735310000000 1.0
C      1  0.5282670000000  0.6120390000000  0.5215180000000 1.0
C      1  0.4740490000000  0.3970170000000  0.5275730000000 1.0
C      1  0.4952220000000  0.3921100000000  0.4604670000000 1.0
C      1  0.5336250000000  0.3993400000000  0.5055560000000 1.0
C      1  0.4221840000000  0.4426900000000  0.4727640000000 1.0
C      1  0.5619190000000  0.4416490000000  0.4436700000000 1.0
C      1  0.5172590000000  0.4433840000000  0.5782110000000 1.0
C      1  0.4242390000000  0.5583290000000  0.4725770000000 1.0
C      1  0.5636590000000  0.5541210000000  0.4380710000000 1.0
C      1  0.5163120000000  0.5584060000000  0.5807720000000 1.0
C      1  0.5433170000000  0.5587550000000  0.5618150000000 1.0
C      1  0.4222590000000  0.5613080000000  0.5012860000000 1.0
C      1  0.5381200000000  0.5583070000000  0.4260290000000 1.0
C      1  0.5457420000000  0.4428130000000  0.5631570000000 1.0
C      1  0.4208050000000  0.4383950000000  0.5015690000000 1.0
C      1  0.5362430000000  0.4384800000000  0.4303960000000 1.0
C      1  0.4523290000000  0.4371130000000  0.4647710000000 1.0
C      1  0.5561040000000  0.4370790000000  0.4742300000000 1.0
C      1  0.4864260000000  0.4332660000000  0.5692480000000 1.0
C      1  0.4543690000000  0.5642940000000  0.4654180000000 1.0
C      1  0.5630470000000  0.5624220000000  0.4677820000000 1.0
C      1  0.4845810000000  0.5673270000000  0.5731270000000 1.0
C      1  0.4520000000000  0.4845970000000  0.5563370000000 1.0
C      1  0.4747680000000  0.4845290000000  0.4459790000000 1.0
C      1  0.5688930000000  0.4847280000000  0.5037270000000 1.0
C      1  0.4516040000000  0.5144290000000  0.5573760000000 1.0
C      1  0.4756150000000  0.5143340000000  0.4417270000000 1.0
C      1  0.5646000000000  0.5146720000000  0.5009360000000 1.0
C      1  0.4156200000000  0.4704370000000  0.4665100000000 1.0
C      1  0.5717600000000  0.4690640000000  0.4403290000000 1.0
C      1  0.5100020000000  0.4735290000000  0.5733900000000 1.0
C      1  0.4187980000000  0.5307720000000  0.4663570000000 1.0
C      1  0.5715880000000  0.5260880000000  0.4374230000000 1.0
C      1  0.5093030000000  0.5276280000000  0.5738760000000 1.0
C      1  0.4861590000000  0.5188930000000  0.4869450000000 1.0
C      1  0.5255840000000  0.5159400000000  0.4925230000000 1.0
C      1  0.4784220000000  0.5127320000000  0.5255240000000 1.0
C      1  0.4833310000000  0.4849550000000  0.4857640000000 1.0
C      1  0.5299570000000  0.4851280000000  0.4948450000000 1.0
C      1  0.4793980000000  0.4876880000000  0.5253120000000 1.0
C      1  0.4401290000000  0.5816780000000  0.5119240000000 1.0
C      1  0.5241500000000  0.5814070000000  0.4370050000000 1.0
C      1  0.5427580000000  0.5828290000000  0.5442240000000 1.0
C      1  0.4420050000000  0.4211070000000  0.5095360000000 1.0
C      1  0.5199150000000  0.4181750000000  0.4429160000000 1.0
C      1  0.5466540000000  0.4180030000000  0.5470670000000 1.0
C      1  0.5417150000000  0.5132830000000  0.4384550000000 1.0
C      1  0.5339060000000  0.5141790000000  0.5621460000000 1.0
C      1  0.4315000000000  0.5147320000000  0.4913750000000 1.0
C      1  0.5424320000000  0.4836380000000  0.4416790000000 1.0
C      1  0.5343610000000  0.4873640000000  0.5619860000000 1.0
C      1  0.4272240000000  0.4848710000000  0.4932400000000 1.0
C      1  0.5618570000000  0.5604790000000  0.5011480000000 1.0
C      1  0.4564490000000  0.5640020000000  0.5546430000000 1.0
C      1  0.4792520000000  0.5647020000000  0.4441010000000 1.0
C      1  0.5642720000000  0.4376310000000  0.5061380000000 1.0
C      1  0.4580840000000  0.4362340000000  0.5521080000000 1.0
C      1  0.4760360000000  0.4360480000000  0.4416930000000 1.0
C      1  0.5834830000000  0.5146490000000  0.4656940000000 1.0
C      1  0.4800200000000  0.5150560000000  0.5857320000000 1.0
C      1  0.4357490000000  0.5163670000000  0.4432410000000 1.0
C      1  0.5866410000000  0.4828550000000  0.4660890000000 1.0
C      1  0.4801480000000  0.4845190000000  0.5853870000000 1.0
C      1  0.4348240000000  0.4849960000000  0.4444200000000 1.0
C      1  0.4984730000000  0.5871360000000  0.4483300000000 1.0
C      1  0.5465450000000  0.5859640000000  0.5120550000000 1.0
C      1  0.4475630000000  0.5883630000000  0.5393820000000 1.0
C      1  0.4919600000000  0.4110550000000  0.4390650000000 1.0
C      1  0.5542460000000  0.4139450000000  0.5209720000000 1.0
C      1  0.4518140000000  0.4123130000000  0.5346220000000 1.0
C      1  0.4637680000000  0.4548630000000  0.5802590000000 1.0
C      1  0.4485720000000  0.4559300000000  0.4367010000000 1.0
C      1  0.5841270000000  0.4538510000000  0.4836920000000 1.0
C      1  0.4626870000000  0.5441070000000  0.5817030000000 1.0
C      1  0.4516880000000  0.5457760000000  0.4370270000000 1.0
C      1  0.5855200000000  0.5431990000000  0.4825800000000 1.0
C      1  0.5161840000000  0.4258530000000  0.5179110000000 1.0
C      1  0.4885260000000  0.4131550000000  0.5051540000000 1.0
C      1  0.5104990000000  0.4053210000000  0.4841100000000 1.0
C      1  0.5044820000000  0.6004290000000  0.5332700000000 1.0
C      1  0.4877910000000  0.5849100000000  0.5087190000000 1.0
C      1  0.5181620000000  0.5771780000000  0.4955040000000 1.0
C      1  0.5248230000000  0.4325780000000  0.4729680000000 1.0
C      1  0.5127260000000  0.4249380000000  0.5499870000000 1.0
C      1  0.4675500000000  0.4345170000000  0.4926940000000 1.0
C      1  0.5303880000000  0.5640600000000  0.4666130000000 1.0
C      1  0.5100680000000  0.5794100000000  0.5547090000000 1.0
C      1  0.4648190000000  0.5663970000000  0.4948070000000 1.0
C      1  0.5226840000000  0.5342670000000  0.4272120000000 1.0
C      1  0.5488150000000  0.5342960000000  0.5498910000000 1.0
C      1  0.4280560000000  0.5361430000000  0.5135130000000 1.0
C      1  0.5221430000000  0.4633630000000  0.4322550000000 1.0
C      1  0.5501820000000  0.4673220000000  0.5503190000000 1.0
C      1  0.4252450000000  0.4635640000000  0.5148830000000 1.0
C      1  0.4571410000000  0.5201370000000  0.4697050000000 1.0
C      1  0.5502610000000  0.5203920000000  0.4705880000000 1.0
C      1  0.4835360000000  0.5254120000000  0.5533810000000 1.0
C      1  0.4537200000000  0.4803890000000  0.4724050000000 1.0
C      1  0.5534610000000  0.4806910000000  0.4736940000000 1.0
C      1  0.4844970000000  0.4751780000000  0.5529630000000 1.0
C      1  0.4374610000000  0.4722720000000  0.5814180000000 1.0
C      1  0.4717520000000  0.4677150000000  0.4177550000000 1.0
C      1  0.5986030000000  0.4751730000000  0.5033290000000 1.0
C      1  0.4376400000000  0.5250130000000  0.5835630000000 1.0
C      1  0.4620220000000  0.5247820000000  0.4146050000000 1.0
C      1  0.5890910000000  0.5336180000000  0.5127070000000 1.0
END
