TITL C-2622953-3516-609 -8.07729321569898e-05 125000 -324.050268309293 0 0 57 (C1) n - 1
REM
REM in /nfs/bkarasulu/CARBON/AIRSS/Generating-Clusters/AIREBO/with-SteepDescent/Higher-Symm/SD-CG/HFTN-CG
REM
REM
REM
REM
REM
REM ./C.cell (b20cbc046b6831c77cfcea5457e17084)
REM
REM compiler GCC version 9.2.1 20190827 (Red Hat 9.2.1-1)
REM options -cpp -mtune=generic -march=x86-64 -g -O0 -fpre-include=/usr/include/finclude/math-vector-fortran.h
REM seed -1725654397 449700626 -1528221023 -1395419215 -383504753 -1971603864 -364383134 -178278599 487596265 2098937944 950933681 -70193996 354863873 -158610475 656218985 1993399575 1462622576 695895030 -1142205575 -1381732383 -150837007 579134216 1345559353 -2002340249 1750707779 -1225382867 1115739187 185041610 -1994992603 1282581927 1859586072 249775607 1858539381
REM
CELL 1.54180   50.00000   50.00000   50.00000   90.00000   90.00000   90.00000
LATT -1
SFAC C  
C      1  0.4786290000000  0.5286720000000  0.5111210000000 1.0
C      1  0.5330900000000  0.5350020000000  0.4853160000000 1.0
C      1  0.4693090000000  0.4779220000000  0.5116920000000 1.0
C      1  0.5183890000000  0.4863050000000  0.4894780000000 1.0
C      1  0.5328730000000  0.5274850000000  0.5181470000000 1.0
C      1  0.4625820000000  0.5163660000000  0.4857460000000 1.0
C      1  0.5283140000000  0.4665550000000  0.5136220000000 1.0
C      1  0.4732470000000  0.4666470000000  0.4820700000000 1.0
C      1  0.5128170000000  0.5227640000000  0.4610790000000 1.0
C      1  0.4859100000000  0.5277090000000  0.5421000000000 1.0
C      1  0.5157510000000  0.4688000000000  0.4637370000000 1.0
C      1  0.4825430000000  0.4719030000000  0.5395010000000 1.0
C      1  0.4799010000000  0.5177100000000  0.4578360000000 1.0
C      1  0.5170700000000  0.5335300000000  0.5445610000000 1.0
C      1  0.4853180000000  0.4836610000000  0.4592800000000 1.0
C      1  0.5142140000000  0.4792600000000  0.5391820000000 1.0
C      1  0.4884500000000  0.5778120000000  0.5308830000000 1.0
C      1  0.5110940000000  0.5780480000000  0.4612820000000 1.0
C      1  0.4876580000000  0.4196560000000  0.5314360000000 1.0
C      1  0.5113030000000  0.4180510000000  0.4651950000000 1.0
C      1  0.5156740000000  0.5726130000000  0.5362370000000 1.0
C      1  0.4837090000000  0.5783340000000  0.4597350000000 1.0
C      1  0.5141900000000  0.4272910000000  0.5380710000000 1.0
C      1  0.4851260000000  0.4271540000000  0.4579570000000 1.0
C      1  0.4864420000000  0.5213830000000  0.4246650000000 1.0
C      1  0.5304080000000  0.5156280000000  0.5695930000000 1.0
C      1  0.4790910000000  0.4923390000000  0.4271570000000 1.0
C      1  0.5281580000000  0.4889210000000  0.5667770000000 1.0
C      1  0.5220240000000  0.5056630000000  0.4336280000000 1.0
C      1  0.4905660000000  0.5130980000000  0.5695120000000 1.0
C      1  0.5160690000000  0.4790910000000  0.4342760000000 1.0
C      1  0.4884350000000  0.4853170000000  0.5689790000000 1.0
C      1  0.5301320000000  0.4243920000000  0.4912430000000 1.0
C      1  0.4691150000000  0.4269450000000  0.5057390000000 1.0
C      1  0.5330390000000  0.5676270000000  0.4821970000000 1.0
C      1  0.4719750000000  0.5608380000000  0.5071360000000 1.0
C      1  0.4714200000000  0.4389760000000  0.4802920000000 1.0
C      1  0.5286890000000  0.4371800000000  0.5157360000000 1.0
C      1  0.4628560000000  0.5678980000000  0.4810040000000 1.0
C      1  0.5303250000000  0.5612980000000  0.5147120000000 1.0
C      1  0.4834810000000  0.4398250000000  0.4322530000000 1.0
C      1  0.5169400000000  0.4390860000000  0.5639650000000 1.0
C      1  0.4688350000000  0.5497770000000  0.4554210000000 1.0
C      1  0.5206620000000  0.5604990000000  0.5644070000000 1.0
C      1  0.5306160000000  0.4431220000000  0.4655640000000 1.0
C      1  0.4679270000000  0.4444210000000  0.5333740000000 1.0
C      1  0.5232900000000  0.5514300000000  0.4504170000000 1.0
C      1  0.4686310000000  0.5542490000000  0.5399890000000 1.0
C      1  0.4922250000000  0.4646710000000  0.4215520000000 1.0
C      1  0.5141410000000  0.5358010000000  0.4233890000000 1.0
C      1  0.5115090000000  0.4641170000000  0.5760360000000 1.0
C      1  0.5090140000000  0.5357150000000  0.5834630000000 1.0
C      1  0.4392840000000  0.4863110000000  0.5115830000000 1.0
C      1  0.5401210000000  0.5050270000000  0.4839240000000 1.0
C      1  0.5374820000000  0.4979800000000  0.5229240000000 1.0
C      1  0.4356580000000  0.5053220000000  0.4947760000000 1.0
C      1  0.4900860000000  0.4997200000000  0.4968320000000 1.0
END
