TITL C-2622954-8726-684 0.00288470757804012 125000 -421.442464556657 0 0 72 (C1) n - 1
REM
REM in /nfs/bkarasulu/CARBON/AIRSS/Generating-Clusters/AIREBO/with-SteepDescent/Higher-Symm/SD-CG/HFTN-CG
REM
REM
REM
REM
REM
REM ./C.cell (b20cbc046b6831c77cfcea5457e17084)
REM
REM compiler GCC version 9.2.1 20190827 (Red Hat 9.2.1-1)
REM options -cpp -mtune=generic -march=x86-64 -g -O0 -fpre-include=/usr/include/finclude/math-vector-fortran.h
REM seed -1115202944 -1610424126 426557547 281397365 1977132458 -1502314585 -231980342 -1850819798 157104859 -1168655553 -1994921784 582562411 -1131164879 -975577691 807718459 2087376824 46968553 -902616951 780461032 -1366635997 1940184972 -2032694114 -1750289333 119530527 -136931804 662176447 -1648110667 461036028 1498824744 -1616294881 1137688101 -692790148 -1094628675
REM
CELL 1.54180   50.00000   50.00000   50.00000   90.00000   90.00000   90.00000
LATT -1
SFAC C  
C      1  0.5296380000000  0.4525190000000  0.4819890000000 1.0
C      1  0.4841670000000  0.4513390000000  0.4584690000000 1.0
C      1  0.4364920000000  0.4713880000000  0.4876650000000 1.0
C      1  0.4543590000000  0.5145100000000  0.4811630000000 1.0
C      1  0.4867460000000  0.5521920000000  0.4860890000000 1.0
C      1  0.5375110000000  0.5499730000000  0.4663240000000 1.0
C      1  0.5570350000000  0.5151160000000  0.4951530000000 1.0
C      1  0.5154980000000  0.5419850000000  0.4883770000000 1.0
C      1  0.5290390000000  0.5248820000000  0.5095710000000 1.0
C      1  0.5272320000000  0.4941590000000  0.5113590000000 1.0
C      1  0.5138820000000  0.4764600000000  0.4945810000000 1.0
C      1  0.4844640000000  0.4719560000000  0.4992810000000 1.0
C      1  0.4606570000000  0.4869870000000  0.4885530000000 1.0
C      1  0.4669210000000  0.5350360000000  0.5025300000000 1.0
C      1  0.5320080000000  0.4810330000000  0.4438730000000 1.0
C      1  0.5067180000000  0.4617600000000  0.4383810000000 1.0
C      1  0.4603590000000  0.4679750000000  0.4478550000000 1.0
C      1  0.4708230000000  0.4979150000000  0.4388300000000 1.0
C      1  0.4872300000000  0.5272880000000  0.4437720000000 1.0
C      1  0.5149700000000  0.5283470000000  0.4392880000000 1.0
C      1  0.5335960000000  0.5100000000000  0.4489630000000 1.0
C      1  0.4288060000000  0.5266090000000  0.4397510000000 1.0
C      1  0.4652630000000  0.5717850000000  0.4456870000000 1.0
C      1  0.5300720000000  0.5746050000000  0.4187840000000 1.0
C      1  0.5815690000000  0.5264710000000  0.4536540000000 1.0
C      1  0.5739210000000  0.4572140000000  0.4577380000000 1.0
C      1  0.5148130000000  0.4092640000000  0.4599210000000 1.0
C      1  0.4133450000000  0.4529740000000  0.4482960000000 1.0
C      1  0.5229720000000  0.4650170000000  0.5679070000000 1.0
C      1  0.4941640000000  0.4554770000000  0.5762590000000 1.0
C      1  0.4733500000000  0.4720070000000  0.5844160000000 1.0
C      1  0.4693630000000  0.4970610000000  0.5721370000000 1.0
C      1  0.5061680000000  0.5292780000000  0.5672610000000 1.0
C      1  0.5301540000000  0.5129450000000  0.5650950000000 1.0
C      1  0.5364250000000  0.4870290000000  0.5583290000000 1.0
C      1  0.5049680000000  0.5718090000000  0.5244050000000 1.0
C      1  0.5660030000000  0.5404240000000  0.5424080000000 1.0
C      1  0.5701220000000  0.4736940000000  0.5209160000000 1.0
C      1  0.5161340000000  0.4321340000000  0.5235090000000 1.0
C      1  0.4667230000000  0.4437020000000  0.5209520000000 1.0
C      1  0.4350810000000  0.4919870000000  0.5309400000000 1.0
C      1  0.4531000000000  0.5512650000000  0.5363310000000 1.0
C      1  0.4654040000000  0.4960690000000  0.5415990000000 1.0
C      1  0.4759980000000  0.5270650000000  0.5324150000000 1.0
C      1  0.5033110000000  0.5457910000000  0.5403400000000 1.0
C      1  0.5352510000000  0.5342950000000  0.5403050000000 1.0
C      1  0.5449130000000  0.4848390000000  0.5314980000000 1.0
C      1  0.5043560000000  0.4504320000000  0.5445940000000 1.0
C      1  0.4821360000000  0.4708480000000  0.5314380000000 1.0
C      1  0.4789850000000  0.4400470000000  0.4899440000000 1.0
C      1  0.4288500000000  0.4682420000000  0.5154600000000 1.0
C      1  0.4341020000000  0.5296620000000  0.5023540000000 1.0
C      1  0.4823840000000  0.5743530000000  0.5078300000000 1.0
C      1  0.5408750000000  0.5728240000000  0.4891500000000 1.0
C      1  0.5754720000000  0.5028960000000  0.5130750000000 1.0
C      1  0.5389450000000  0.4395060000000  0.5083470000000 1.0
C      1  0.4964140000000  0.4200060000000  0.5084450000000 1.0
C      1  0.4399540000000  0.4442240000000  0.5255590000000 1.0
C      1  0.4225690000000  0.5158750000000  0.5224770000000 1.0
C      1  0.4578890000000  0.5743170000000  0.5216270000000 1.0
C      1  0.5291470000000  0.5799770000000  0.5126490000000 1.0
C      1  0.5840450000000  0.5214340000000  0.5331290000000 1.0
C      1  0.5656560000000  0.4464410000000  0.5151420000000 1.0
C      1  0.5107120000000  0.4340230000000  0.4667360000000 1.0
C      1  0.4350870000000  0.4628040000000  0.4605230000000 1.0
C      1  0.4495750000000  0.5168650000000  0.4520850000000 1.0
C      1  0.4777600000000  0.5502500000000  0.4572780000000 1.0
C      1  0.5264840000000  0.5557970000000  0.4376370000000 1.0
C      1  0.5566400000000  0.5236210000000  0.4659130000000 1.0
C      1  0.5489210000000  0.4639690000000  0.4614900000000 1.0
C      1  0.4998120000000  0.4894600000000  0.4276410000000 1.0
C      1  0.4833820000000  0.5199950000000  0.5806170000000 1.0
END
