TITL C-2622961-1971-737 0.00312953249208923 125000 -281.458523090223 0 0 56 (C1) n - 1
REM
REM in /nfs/bkarasulu/CARBON/AIRSS/Generating-Clusters/AIREBO/with-SteepDescent/Higher-Symm/SD-CG/HFTN-CG
REM
REM
REM
REM
REM
REM ./C.cell (b20cbc046b6831c77cfcea5457e17084)
REM
REM compiler GCC version 9.2.1 20190827 (Red Hat 9.2.1-1)
REM options -cpp -mtune=generic -march=x86-64 -g -O0 -fpre-include=/usr/include/finclude/math-vector-fortran.h
REM seed -326122666 1844298156 -1087556521 -975927454 1768752376 -1305594733 79112211 1828969457 -1507572729 -1365919677 -177843579 1232397517 1391148379 434021690 -1906725575 805289942 418493515 -693572296 1276635885 -216440069 163738956 1699536474 2073539853 -956501760 -1550415802 784174194 1562868885 -462194844 -1311525851 904327766 586559495 376561321 -1446644431
REM
CELL 1.54180   50.00000   50.00000   50.00000   90.00000   90.00000   90.00000
LATT -1
SFAC C  
C      1  0.5456050000000  0.5291100000000  0.5047740000000 1.0
C      1  0.4913820000000  0.5603470000000  0.4989120000000 1.0
C      1  0.4459180000000  0.4986930000000  0.5260020000000 1.0
C      1  0.4790120000000  0.4446520000000  0.5198390000000 1.0
C      1  0.5379640000000  0.4617170000000  0.5122740000000 1.0
C      1  0.4565210000000  0.5342070000000  0.4711230000000 1.0
C      1  0.5136850000000  0.5653540000000  0.4753760000000 1.0
C      1  0.5529060000000  0.5043540000000  0.4826370000000 1.0
C      1  0.5197730000000  0.4513020000000  0.4854840000000 1.0
C      1  0.4568900000000  0.4587140000000  0.4981750000000 1.0
C      1  0.5508100000000  0.5327820000000  0.4640960000000 1.0
C      1  0.4902460000000  0.5633710000000  0.4518310000000 1.0
C      1  0.4526650000000  0.5033960000000  0.4716310000000 1.0
C      1  0.4808920000000  0.4509780000000  0.4762670000000 1.0
C      1  0.5380930000000  0.4613890000000  0.4579310000000 1.0
C      1  0.4616650000000  0.5258680000000  0.5250240000000 1.0
C      1  0.4999970000000  0.5487710000000  0.5298190000000 1.0
C      1  0.5405190000000  0.5097500000000  0.5312620000000 1.0
C      1  0.5176630000000  0.4403260000000  0.5291400000000 1.0
C      1  0.4575650000000  0.4552950000000  0.5439570000000 1.0
C      1  0.4207360000000  0.4814970000000  0.5188750000000 1.0
C      1  0.4915920000000  0.4181000000000  0.5078270000000 1.0
C      1  0.5689300000000  0.4635470000000  0.5047790000000 1.0
C      1  0.5557140000000  0.5573480000000  0.4988280000000 1.0
C      1  0.4639190000000  0.5756130000000  0.4940030000000 1.0
C      1  0.5761260000000  0.4842390000000  0.4914920000000 1.0
C      1  0.5105810000000  0.4212080000000  0.4909720000000 1.0
C      1  0.4267080000000  0.4602900000000  0.5057180000000 1.0
C      1  0.4468040000000  0.5626320000000  0.4801280000000 1.0
C      1  0.5408860000000  0.5742790000000  0.4871760000000 1.0
C      1  0.5317690000000  0.5168930000000  0.4327470000000 1.0
C      1  0.5037500000000  0.5346830000000  0.4274520000000 1.0
C      1  0.4791280000000  0.5112640000000  0.4263560000000 1.0
C      1  0.4911900000000  0.4802490000000  0.4344750000000 1.0
C      1  0.5224370000000  0.4843620000000  0.4283690000000 1.0
C      1  0.4744400000000  0.5043450000000  0.5712680000000 1.0
C      1  0.5017350000000  0.5213380000000  0.5755840000000 1.0
C      1  0.5267400000000  0.5005700000000  0.5674570000000 1.0
C      1  0.5158860000000  0.4696310000000  0.5696430000000 1.0
C      1  0.4818410000000  0.4710700000000  0.5714890000000 1.0
C      1  0.4980710000000  0.4567000000000  0.5452950000000 1.0
C      1  0.5308410000000  0.4791250000000  0.5406160000000 1.0
C      1  0.5197510000000  0.5286380000000  0.5485070000000 1.0
C      1  0.4799370000000  0.5306720000000  0.5504600000000 1.0
C      1  0.4621800000000  0.4852380000000  0.5476390000000 1.0
C      1  0.5043850000000  0.4657550000000  0.4588120000000 1.0
C      1  0.4623750000000  0.4913990000000  0.4467820000000 1.0
C      1  0.4785400000000  0.5351780000000  0.4502110000000 1.0
C      1  0.5223370000000  0.5403790000000  0.4554550000000 1.0
C      1  0.5385170000000  0.4939600000000  0.4559160000000 1.0
C      1  0.4953760000000  0.4684240000000  0.5018510000000 1.0
C      1  0.5142550000000  0.5296150000000  0.5090300000000 1.0
C      1  0.4759900000000  0.5300190000000  0.4983030000000 1.0
C      1  0.4634570000000  0.4920670000000  0.4974810000000 1.0
C      1  0.5283490000000  0.4930700000000  0.5032790000000 1.0
C      1  0.4957450000000  0.5024000000000  0.5004500000000 1.0
END
