TITL C-2622959-7779-203 -0.00197406692096491 125000 -475.255277483686 0 0 84 (C1) n - 1
REM
REM in /nfs/bkarasulu/CARBON/AIRSS/Generating-Clusters/AIREBO/with-SteepDescent/Higher-Symm/SD-CG/HFTN-CG
REM
REM
REM
REM
REM
REM ./C.cell (b20cbc046b6831c77cfcea5457e17084)
REM
REM compiler GCC version 9.2.1 20190827 (Red Hat 9.2.1-1)
REM options -cpp -mtune=generic -march=x86-64 -g -O0 -fpre-include=/usr/include/finclude/math-vector-fortran.h
REM seed -1363391116 -1150264239 643346791 1358943494 1338519882 150303119 -456570274 1578981038 1946791173 -628801304 749038834 1698335471 -636035799 -160908260 -1250018343 1453540516 -173787942 1673582935 2096532194 814303659 641287353 916027308 1177751769 -322099177 -1532565618 -2116645963 418086597 880287740 -588547054 -558070627 186525027 821039275 2004918729
REM
CELL 1.54180   50.00000   50.00000   50.00000   90.00000   90.00000   90.00000
LATT -1
SFAC C  
C      1  0.5595770000000  0.4871870000000  0.4649970000000 1.0
C      1  0.5465080000000  0.4610470000000  0.4803340000000 1.0
C      1  0.5552290000000  0.4627670000000  0.5095090000000 1.0
C      1  0.5414470000000  0.4830040000000  0.5276880000000 1.0
C      1  0.5395330000000  0.5097390000000  0.5130210000000 1.0
C      1  0.5363540000000  0.5273360000000  0.4900130000000 1.0
C      1  0.5584410000000  0.5209490000000  0.4694650000000 1.0
C      1  0.5422790000000  0.5930720000000  0.5050960000000 1.0
C      1  0.5454370000000  0.5354630000000  0.4437950000000 1.0
C      1  0.5483430000000  0.4817810000000  0.4361710000000 1.0
C      1  0.5447940000000  0.4287980000000  0.4696040000000 1.0
C      1  0.5291390000000  0.4111880000000  0.5373590000000 1.0
C      1  0.5575500000000  0.4928770000000  0.5558850000000 1.0
C      1  0.5284900000000  0.5565870000000  0.5644350000000 1.0
C      1  0.4865360000000  0.4171710000000  0.5104560000000 1.0
C      1  0.5063610000000  0.4584640000000  0.5638680000000 1.0
C      1  0.4986080000000  0.5227650000000  0.5839940000000 1.0
C      1  0.4900500000000  0.5757510000000  0.5401170000000 1.0
C      1  0.4952120000000  0.5610540000000  0.4683830000000 1.0
C      1  0.4911820000000  0.5185740000000  0.4015490000000 1.0
C      1  0.5038110000000  0.4561870000000  0.4448840000000 1.0
C      1  0.5210580000000  0.4803800000000  0.4303470000000 1.0
C      1  0.5145670000000  0.4218970000000  0.4827680000000 1.0
C      1  0.5191030000000  0.4277500000000  0.5574170000000 1.0
C      1  0.5314470000000  0.5031950000000  0.5723280000000 1.0
C      1  0.5154350000000  0.5636090000000  0.5407580000000 1.0
C      1  0.5213610000000  0.5758030000000  0.5033190000000 1.0
C      1  0.5158770000000  0.5340890000000  0.4424620000000 1.0
C      1  0.5114860000000  0.5348300000000  0.4737910000000 1.0
C      1  0.5045490000000  0.5064760000000  0.4296330000000 1.0
C      1  0.5147480000000  0.4538970000000  0.4745820000000 1.0
C      1  0.5158940000000  0.4102230000000  0.5129330000000 1.0
C      1  0.5194420000000  0.4819290000000  0.5516090000000 1.0
C      1  0.5253760000000  0.5330920000000  0.5785800000000 1.0
C      1  0.5219570000000  0.5455940000000  0.5148260000000 1.0
C      1  0.4669520000000  0.4707150000000  0.4359990000000 1.0
C      1  0.4524520000000  0.4377860000000  0.4809170000000 1.0
C      1  0.4559690000000  0.4550370000000  0.5589190000000 1.0
C      1  0.4693440000000  0.4994430000000  0.5680310000000 1.0
C      1  0.4610060000000  0.5502680000000  0.5332040000000 1.0
C      1  0.4585170000000  0.5714530000000  0.4799790000000 1.0
C      1  0.4601460000000  0.5227240000000  0.4131970000000 1.0
C      1  0.4881150000000  0.4315280000000  0.5552440000000 1.0
C      1  0.4988440000000  0.4917340000000  0.5844360000000 1.0
C      1  0.4703240000000  0.5642440000000  0.5615690000000 1.0
C      1  0.4964760000000  0.5778050000000  0.4905540000000 1.0
C      1  0.4868930000000  0.5420120000000  0.4265370000000 1.0
C      1  0.4938960000000  0.4677340000000  0.4150570000000 1.0
C      1  0.4807840000000  0.4203250000000  0.4782030000000 1.0
C      1  0.4504700000000  0.4919560000000  0.4552860000000 1.0
C      1  0.4425110000000  0.4549240000000  0.5001410000000 1.0
C      1  0.4608050000000  0.4627070000000  0.5261420000000 1.0
C      1  0.4541170000000  0.4939620000000  0.5378930000000 1.0
C      1  0.4738870000000  0.5200630000000  0.5343130000000 1.0
C      1  0.4558630000000  0.5414600000000  0.4884530000000 1.0
C      1  0.4566140000000  0.5234640000000  0.4444830000000 1.0
C      1  0.5031240000000  0.4937750000000  0.5270320000000 1.0
C      1  0.4986990000000  0.5224280000000  0.5138060000000 1.0
C      1  0.4818940000000  0.5253060000000  0.4857980000000 1.0
C      1  0.4851960000000  0.5116740000000  0.4548020000000 1.0
C      1  0.4788580000000  0.4856550000000  0.4710210000000 1.0
C      1  0.4940030000000  0.4706750000000  0.4875620000000 1.0
C      1  0.4889540000000  0.4735800000000  0.5139790000000 1.0
C      1  0.5867730000000  0.4850270000000  0.4837660000000 1.0
C      1  0.5795180000000  0.4792030000000  0.5111100000000 1.0
C      1  0.5779800000000  0.4982670000000  0.5330450000000 1.0
C      1  0.5885110000000  0.5240400000000  0.5282510000000 1.0
C      1  0.5870510000000  0.5410010000000  0.5063960000000 1.0
C      1  0.5861640000000  0.5301340000000  0.4802540000000 1.0
C      1  0.6034230000000  0.5073180000000  0.4773000000000 1.0
C      1  0.4229360000000  0.5288930000000  0.5220570000000 1.0
C      1  0.4293750000000  0.5332310000000  0.4948090000000 1.0
C      1  0.4155080000000  0.5170590000000  0.4762970000000 1.0
C      1  0.4258050000000  0.4911020000000  0.4722280000000 1.0
C      1  0.4225470000000  0.4733860000000  0.4940120000000 1.0
C      1  0.4102890000000  0.4837130000000  0.5174520000000 1.0
C      1  0.4257100000000  0.5025550000000  0.5317020000000 1.0
C      1  0.4753950000000  0.4323150000000  0.5305740000000 1.0
C      1  0.4768510000000  0.4673870000000  0.5760050000000 1.0
C      1  0.4754950000000  0.5328080000000  0.5657080000000 1.0
C      1  0.4729740000000  0.5720600000000  0.5107600000000 1.0
C      1  0.4686250000000  0.5537850000000  0.4526960000000 1.0
C      1  0.4722270000000  0.4911800000000  0.4092960000000 1.0
C      1  0.4749520000000  0.4465770000000  0.4577540000000 1.0
END
