TITL C-2622961-1971-563 0.00378096622245792 125000 -274.129559194922 0 0 51 (C1) n - 1
REM
REM in /nfs/bkarasulu/CARBON/AIRSS/Generating-Clusters/AIREBO/with-SteepDescent/Higher-Symm/SD-CG/HFTN-CG
REM
REM
REM
REM
REM
REM ./C.cell (b20cbc046b6831c77cfcea5457e17084)
REM
REM compiler GCC version 9.2.1 20190827 (Red Hat 9.2.1-1)
REM options -cpp -mtune=generic -march=x86-64 -g -O0 -fpre-include=/usr/include/finclude/math-vector-fortran.h
REM seed -1167090147 -1122106269 -1759295250 2015588617 1624560780 -319887719 -1126511394 -857900886 -1281528296 600084495 -438047523 1316420290 494199373 1214483115 -889554142 712636939 1166217957 1057908142 -1112378541 1008554023 1494389255 -432547473 -149062571 719397552 1437188618 -2006765764 -1404239687 347989786 -570560849 -1689467192 312785658 -736247614 -623779404
REM
CELL 1.54180   50.00000   50.00000   50.00000   90.00000   90.00000   90.00000
LATT -1
SFAC C  
C      1  0.4513530000000  0.4871120000000  0.4717900000000 1.0
C      1  0.4493690000000  0.4826320000000  0.5293080000000 1.0
C      1  0.4475870000000  0.5340940000000  0.5039980000000 1.0
C      1  0.4478660000000  0.5195050000000  0.4732410000000 1.0
C      1  0.4456000000000  0.5165310000000  0.5304430000000 1.0
C      1  0.4451080000000  0.4697990000000  0.4993830000000 1.0
C      1  0.5182200000000  0.4244080000000  0.5260510000000 1.0
C      1  0.5170970000000  0.5615000000000  0.5535390000000 1.0
C      1  0.5182340000000  0.5165310000000  0.4210630000000 1.0
C      1  0.5179600000000  0.5761290000000  0.5262000000000 1.0
C      1  0.5209830000000  0.4398730000000  0.5532350000000 1.0
C      1  0.5181460000000  0.4849180000000  0.4191510000000 1.0
C      1  0.5109490000000  0.4827360000000  0.4581510000000 1.0
C      1  0.5127450000000  0.4733340000000  0.5334560000000 1.0
C      1  0.5066940000000  0.5425500000000  0.5080020000000 1.0
C      1  0.5115420000000  0.5138600000000  0.4601200000000 1.0
C      1  0.5055390000000  0.5282990000000  0.5347870000000 1.0
C      1  0.5081650000000  0.4576970000000  0.5065150000000 1.0
C      1  0.4827140000000  0.4800530000000  0.5322120000000 1.0
C      1  0.4786820000000  0.5341360000000  0.4936690000000 1.0
C      1  0.4818160000000  0.4768290000000  0.4643350000000 1.0
C      1  0.4779470000000  0.5100170000000  0.5336280000000 1.0
C      1  0.4783240000000  0.4665890000000  0.4928430000000 1.0
C      1  0.4814840000000  0.5177430000000  0.4684210000000 1.0
C      1  0.4615390000000  0.5169570000000  0.4412840000000 1.0
C      1  0.4656890000000  0.4475170000000  0.5163530000000 1.0
C      1  0.4673010000000  0.5397940000000  0.5446660000000 1.0
C      1  0.4614610000000  0.4835040000000  0.4388300000000 1.0
C      1  0.4678100000000  0.5608540000000  0.5109140000000 1.0
C      1  0.4632340000000  0.4576840000000  0.5488400000000 1.0
C      1  0.5328130000000  0.5358670000000  0.5536410000000 1.0
C      1  0.5369590000000  0.5276670000000  0.4430360000000 1.0
C      1  0.5345790000000  0.4365630000000  0.5030330000000 1.0
C      1  0.5377770000000  0.4655520000000  0.5535100000000 1.0
C      1  0.5369540000000  0.4713270000000  0.4404140000000 1.0
C      1  0.5345600000000  0.5618600000000  0.5053020000000 1.0
C      1  0.5027410000000  0.4381240000000  0.4792420000000 1.0
C      1  0.5029640000000  0.5121180000000  0.5645880000000 1.0
C      1  0.5058650000000  0.5473240000000  0.4576990000000 1.0
C      1  0.5046890000000  0.5606010000000  0.4792390000000 1.0
C      1  0.5059360000000  0.4870380000000  0.5638370000000 1.0
C      1  0.5090170000000  0.4487840000000  0.4570100000000 1.0
C      1  0.5526180000000  0.4435450000000  0.4825430000000 1.0
C      1  0.5514070000000  0.5153270000000  0.5568410000000 1.0
C      1  0.5531650000000  0.5438320000000  0.4593430000000 1.0
C      1  0.5524140000000  0.5536600000000  0.4853610000000 1.0
C      1  0.5531670000000  0.4878730000000  0.5605670000000 1.0
C      1  0.5532690000000  0.4546710000000  0.4567720000000 1.0
C      1  0.4894510000000  0.5005150000000  0.4296760000000 1.0
C      1  0.4877280000000  0.5639810000000  0.5360120000000 1.0
C      1  0.4905170000000  0.4405870000000  0.5379070000000 1.0
END
