TITL C-2622965-4321-317 -0.00472783941619667 125000 -624.886228555404 0 0 134 (C1) n - 1
REM
REM in /nfs/bkarasulu/CARBON/AIRSS/Generating-Clusters/AIREBO/with-SteepDescent/Higher-Symm/SD-CG/HFTN-CG
REM
REM
REM
REM
REM
REM ./C.cell (b20cbc046b6831c77cfcea5457e17084)
REM
REM compiler GCC version 9.2.1 20190827 (Red Hat 9.2.1-1)
REM options -cpp -mtune=generic -march=x86-64 -g -O0 -fpre-include=/usr/include/finclude/math-vector-fortran.h
REM seed 371161743 2011565840 65134387 -767219198 -4424077 -1222512663 -1992068300 -1136635527 -525706655 -560907025 -1277754802 -1052459114 -1602838766 -1116424171 1485050808 -1241273937 436294965 -346008894 -2006542988 -1498137507 -1514347277 -1962392653 1851031379 -458465772 -1301612124 -764153997 -98573069 1749379382 1990459940 -1556826962 2034795534 -1001821 -734374750
REM
CELL 1.54180   50.00000   50.00000   50.00000   90.00000   90.00000   90.00000
LATT -1
SFAC C  
C      1  0.5167550000000  0.4397370000000  0.4812190000000 1.0
C      1  0.5640590000000  0.4956290000000  0.4790630000000 1.0
C      1  0.5183630000000  0.5517990000000  0.4767510000000 1.0
C      1  0.4477100000000  0.5441730000000  0.4828290000000 1.0
C      1  0.4507320000000  0.4671650000000  0.4857070000000 1.0
C      1  0.4853250000000  0.4355000000000  0.5300110000000 1.0
C      1  0.4426360000000  0.4960080000000  0.5247620000000 1.0
C      1  0.4666830000000  0.5636700000000  0.5161600000000 1.0
C      1  0.5444280000000  0.5403610000000  0.5191510000000 1.0
C      1  0.5524290000000  0.4663390000000  0.5167190000000 1.0
C      1  0.5298850000000  0.5174320000000  0.5640380000000 1.0
C      1  0.4794180000000  0.5411070000000  0.5614380000000 1.0
C      1  0.4571190000000  0.4982760000000  0.5675080000000 1.0
C      1  0.4879010000000  0.4532910000000  0.5653420000000 1.0
C      1  0.5314610000000  0.4647440000000  0.5657380000000 1.0
C      1  0.4635160000000  0.5252800000000  0.4401850000000 1.0
C      1  0.5161900000000  0.5376590000000  0.4371450000000 1.0
C      1  0.5490430000000  0.4947480000000  0.4406400000000 1.0
C      1  0.5201020000000  0.4627640000000  0.4346430000000 1.0
C      1  0.4605470000000  0.4776940000000  0.4358400000000 1.0
C      1  0.4575140000000  0.5307390000000  0.5124890000000 1.0
C      1  0.4568900000000  0.4596160000000  0.5182830000000 1.0
C      1  0.5331480000000  0.4334170000000  0.5082970000000 1.0
C      1  0.5586640000000  0.5048620000000  0.5103740000000 1.0
C      1  0.5070640000000  0.5538060000000  0.5080780000000 1.0
C      1  0.5492340000000  0.5296040000000  0.4888790000000 1.0
C      1  0.5535370000000  0.4513940000000  0.4877040000000 1.0
C      1  0.4807390000000  0.4449170000000  0.4989140000000 1.0
C      1  0.4450840000000  0.5060180000000  0.4926740000000 1.0
C      1  0.4802140000000  0.5518330000000  0.4872900000000 1.0
C      1  0.4423480000000  0.5518790000000  0.4409050000000 1.0
C      1  0.4317740000000  0.4667410000000  0.4480570000000 1.0
C      1  0.5097410000000  0.4314920000000  0.4262190000000 1.0
C      1  0.5818120000000  0.4856730000000  0.4412230000000 1.0
C      1  0.5350570000000  0.5657930000000  0.4401290000000 1.0
C      1  0.5486140000000  0.5452270000000  0.5583160000000 1.0
C      1  0.5651080000000  0.4617970000000  0.5735880000000 1.0
C      1  0.4873740000000  0.4193040000000  0.5661890000000 1.0
C      1  0.4251780000000  0.4871090000000  0.5641230000000 1.0
C      1  0.4631290000000  0.5708220000000  0.5586310000000 1.0
C      1  0.4564980000000  0.5958020000000  0.5116840000000 1.0
C      1  0.4088720000000  0.4891620000000  0.5278220000000 1.0
C      1  0.4838040000000  0.3989610000000  0.5142790000000 1.0
C      1  0.5910700000000  0.4589300000000  0.5224400000000 1.0
C      1  0.5634980000000  0.5684900000000  0.5202070000000 1.0
C      1  0.5387150000000  0.5835590000000  0.4777910000000 1.0
C      1  0.6021420000000  0.4879530000000  0.4875570000000 1.0
C      1  0.5106250000000  0.4008630000000  0.4754820000000 1.0
C      1  0.4181030000000  0.4553730000000  0.4828270000000 1.0
C      1  0.4274940000000  0.5695050000000  0.4828510000000 1.0
C      1  0.5114150000000  0.4705710000000  0.5926580000000 1.0
C      1  0.5256700000000  0.5057610000000  0.5957060000000 1.0
C      1  0.4998330000000  0.5322270000000  0.5867980000000 1.0
C      1  0.4683390000000  0.5185050000000  0.5924460000000 1.0
C      1  0.4766020000000  0.4713860000000  0.5897030000000 1.0
C      1  0.4789480000000  0.4854390000000  0.4094170000000 1.0
C      1  0.4554880000000  0.5085560000000  0.4116850000000 1.0
C      1  0.4940780000000  0.5326970000000  0.4117920000000 1.0
C      1  0.5374420000000  0.5127310000000  0.4142030000000 1.0
C      1  0.5300730000000  0.4796000000000  0.4085440000000 1.0
C      1  0.4498560000000  0.4394980000000  0.4573910000000 1.0
C      1  0.5424520000000  0.4299650000000  0.4356380000000 1.0
C      1  0.5791460000000  0.5165200000000  0.4553050000000 1.0
C      1  0.5046810000000  0.5788300000000  0.4481520000000 1.0
C      1  0.4198280000000  0.5323060000000  0.4574000000000 1.0
C      1  0.5539870000000  0.4328230000000  0.5595330000000 1.0
C      1  0.4589740000000  0.4299810000000  0.5507840000000 1.0
C      1  0.4263970000000  0.5192560000000  0.5528770000000 1.0
C      1  0.4926010000000  0.5780470000000  0.5429000000000 1.0
C      1  0.5702530000000  0.5231660000000  0.5441260000000 1.0
C      1  0.5205410000000  0.4269490000000  0.5615140000000 1.0
C      1  0.5730240000000  0.4939990000000  0.5631080000000 1.0
C      1  0.5223660000000  0.5672980000000  0.5577770000000 1.0
C      1  0.4346790000000  0.5508520000000  0.5637240000000 1.0
C      1  0.4374210000000  0.4537980000000  0.5631360000000 1.0
C      1  0.4784990000000  0.4389320000000  0.4380060000000 1.0
C      1  0.4201510000000  0.4997230000000  0.4506990000000 1.0
C      1  0.4725410000000  0.5696250000000  0.4408520000000 1.0
C      1  0.5631800000000  0.5446490000000  0.4440660000000 1.0
C      1  0.5621610000000  0.4568090000000  0.4382330000000 1.0
C      1  0.5159050000000  0.4049460000000  0.5067030000000 1.0
C      1  0.5872400000000  0.4899730000000  0.5156830000000 1.0
C      1  0.5321080000000  0.5767350000000  0.5098470000000 1.0
C      1  0.4303170000000  0.5975750000000  0.4946660000000 1.0
C      1  0.4248940000000  0.4614860000000  0.5154950000000 1.0
C      1  0.4836330000000  0.4139480000000  0.4858200000000 1.0
C      1  0.4176680000000  0.4875080000000  0.4950200000000 1.0
C      1  0.4615300000000  0.5799440000000  0.4820270000000 1.0
C      1  0.5590620000000  0.5602180000000  0.4876820000000 1.0
C      1  0.5857070000000  0.4589340000000  0.4912180000000 1.0
C      1  0.5783670000000  0.5383890000000  0.5147860000000 1.0
C      1  0.4892110000000  0.5890150000000  0.5108600000000 1.0
C      1  0.4194970000000  0.5204010000000  0.5195900000000 1.0
C      1  0.4572040000000  0.4197940000000  0.5183820000000 1.0
C      1  0.5669480000000  0.4473550000000  0.5366500000000 1.0
C      1  0.4158350000000  0.5381480000000  0.4907120000000 1.0
C      1  0.5049030000000  0.5827230000000  0.4812720000000 1.0
C      1  0.5875230000000  0.5186590000000  0.4878710000000 1.0
C      1  0.5276990000000  0.4200910000000  0.4597940000000 1.0
C      1  0.4436270000000  0.4342250000000  0.4904240000000 1.0
C      1  0.5181840000000  0.5191520000000  0.5242310000000 1.0
C      1  0.4886080000000  0.5173990000000  0.5155660000000 1.0
C      1  0.4761870000000  0.4926750000000  0.5295830000000 1.0
C      1  0.4981480000000  0.4668740000000  0.5265830000000 1.0
C      1  0.5249530000000  0.4862740000000  0.5187220000000 1.0
C      1  0.4840420000000  0.5180530000000  0.4856100000000 1.0
C      1  0.5135000000000  0.5181580000000  0.4751080000000 1.0
C      1  0.5309570000000  0.4908710000000  0.4855190000000 1.0
C      1  0.5050430000000  0.4696280000000  0.4796640000000 1.0
C      1  0.4774430000000  0.4868980000000  0.4783590000000 1.0
C      1  0.5428000000000  0.5422090000000  0.4164540000000 1.0
C      1  0.4661700000000  0.5484490000000  0.4154060000000 1.0
C      1  0.4316720000000  0.4877620000000  0.4209510000000 1.0
C      1  0.4928550000000  0.4586470000000  0.4146640000000 1.0
C      1  0.5624200000000  0.4795680000000  0.4133010000000 1.0
C      1  0.4593080000000  0.5508240000000  0.5870810000000 1.0
C      1  0.5270190000000  0.5462390000000  0.5840680000000 1.0
C      1  0.5465410000000  0.4872600000000  0.5833390000000 1.0
C      1  0.5050430000000  0.4372810000000  0.5899580000000 1.0
C      1  0.4458620000000  0.4743400000000  0.5888880000000 1.0
C      1  0.4809450000000  0.4490660000000  0.4672950000000 1.0
C      1  0.5403030000000  0.4688500000000  0.4613260000000 1.0
C      1  0.5399720000000  0.5232880000000  0.4567580000000 1.0
C      1  0.4879780000000  0.5434660000000  0.4552510000000 1.0
C      1  0.4528340000000  0.5002840000000  0.4600590000000 1.0
C      1  0.5230260000000  0.4487440000000  0.5369350000000 1.0
C      1  0.4639640000000  0.4695480000000  0.5500420000000 1.0
C      1  0.4583230000000  0.5245220000000  0.5459090000000 1.0
C      1  0.5035920000000  0.5461130000000  0.5389340000000 1.0
C      1  0.5469990000000  0.4983810000000  0.5416530000000 1.0
C      1  0.4946270000000  0.4987660000000  0.5837190000000 1.0
C      1  0.5054320000000  0.5015540000000  0.4167560000000 1.0
C      1  0.4969070000000  0.4954420000000  0.5542050000000 1.0
C      1  0.5084830000000  0.4980350000000  0.4491110000000 1.0
END
