TITL C-2622954-8726-543 0.00198145674824406 125000 -938.810770933121 0 0 182 (C1) n - 1
REM
REM in /nfs/bkarasulu/CARBON/AIRSS/Generating-Clusters/AIREBO/with-SteepDescent/Higher-Symm/SD-CG/HFTN-CG
REM
REM
REM
REM
REM
REM ./C.cell (b20cbc046b6831c77cfcea5457e17084)
REM
REM compiler GCC version 9.2.1 20190827 (Red Hat 9.2.1-1)
REM options -cpp -mtune=generic -march=x86-64 -g -O0 -fpre-include=/usr/include/finclude/math-vector-fortran.h
REM seed 1271783050 -1607736031 1250910560 -773146134 -1123293601 861849789 237060683 1548365440 -1955555254 -156635959 -683330047 1058054574 1935050901 -225505253 -1283935080 220294615 2045688927 775479941 -2004082432 -1189128344 968315333 1478236917 -317601899 -1793930040 -704531830 -423789899 -490355334 -1776735716 2086753632 -1070318838 -1058990241 646517618 -578490226
REM
CELL 1.54180   50.00000   50.00000   50.00000   90.00000   90.00000   90.00000
LATT -1
SFAC C  
C      1  0.4853280000000  0.5422670000000  0.5964610000000 1.0
C      1  0.4137810000000  0.5386720000000  0.5296270000000 1.0
C      1  0.4529870000000  0.5477070000000  0.4229870000000 1.0
C      1  0.5536500000000  0.5370980000000  0.4307470000000 1.0
C      1  0.5799340000000  0.5495810000000  0.5341190000000 1.0
C      1  0.4104300000000  0.4588780000000  0.5668510000000 1.0
C      1  0.4151200000000  0.4629370000000  0.4551250000000 1.0
C      1  0.5320320000000  0.4550330000000  0.4055280000000 1.0
C      1  0.6110550000000  0.4606290000000  0.4962130000000 1.0
C      1  0.5391050000000  0.4582090000000  0.5841930000000 1.0
C      1  0.3977860000000  0.5239140000000  0.4761680000000 1.0
C      1  0.4913490000000  0.5204050000000  0.3981150000000 1.0
C      1  0.6015070000000  0.5188910000000  0.4612550000000 1.0
C      1  0.5620440000000  0.5159730000000  0.5825490000000 1.0
C      1  0.4423190000000  0.5157250000000  0.5993750000000 1.0
C      1  0.5054260000000  0.5242380000000  0.5414790000000 1.0
C      1  0.4673320000000  0.5119930000000  0.5199720000000 1.0
C      1  0.4769100000000  0.5274740000000  0.4712780000000 1.0
C      1  0.5169860000000  0.5109310000000  0.4642910000000 1.0
C      1  0.5424980000000  0.5194670000000  0.5095420000000 1.0
C      1  0.4817840000000  0.5881930000000  0.5332760000000 1.0
C      1  0.4683410000000  0.5945310000000  0.4880880000000 1.0
C      1  0.4955730000000  0.6039250000000  0.4428000000000 1.0
C      1  0.5263900000000  0.6008130000000  0.4879310000000 1.0
C      1  0.5267030000000  0.6003040000000  0.5446130000000 1.0
C      1  0.5169310000000  0.4227230000000  0.4339990000000 1.0
C      1  0.5769460000000  0.4216510000000  0.4721250000000 1.0
C      1  0.5207120000000  0.4196930000000  0.5535930000000 1.0
C      1  0.4487260000000  0.4197750000000  0.5414980000000 1.0
C      1  0.4398180000000  0.4190620000000  0.4671040000000 1.0
C      1  0.4566920000000  0.5093690000000  0.5522940000000 1.0
C      1  0.4355270000000  0.5121600000000  0.4851680000000 1.0
C      1  0.5036470000000  0.5089940000000  0.4343670000000 1.0
C      1  0.5689010000000  0.5071420000000  0.4812030000000 1.0
C      1  0.5332720000000  0.5105120000000  0.5553730000000 1.0
C      1  0.5781630000000  0.4896580000000  0.5050320000000 1.0
C      1  0.5120940000000  0.4914900000000  0.5739650000000 1.0
C      1  0.4310490000000  0.4882890000000  0.5449010000000 1.0
C      1  0.4397390000000  0.4958890000000  0.4584870000000 1.0
C      1  0.5292440000000  0.4872750000000  0.4289630000000 1.0
C      1  0.4733670000000  0.4048450000000  0.5435570000000 1.0
C      1  0.4560910000000  0.4040720000000  0.4877140000000 1.0
C      1  0.5023150000000  0.4042550000000  0.4614310000000 1.0
C      1  0.5348900000000  0.3944400000000  0.4818400000000 1.0
C      1  0.5334150000000  0.3960280000000  0.5360400000000 1.0
C      1  0.4024990000000  0.5005070000000  0.5310420000000 1.0
C      1  0.4496720000000  0.4954730000000  0.4252080000000 1.0
C      1  0.5627730000000  0.4955720000000  0.4243130000000 1.0
C      1  0.5897320000000  0.4966690000000  0.5362280000000 1.0
C      1  0.4926550000000  0.4925500000000  0.6018430000000 1.0
C      1  0.4971420000000  0.6141130000000  0.5503770000000 1.0
C      1  0.4650480000000  0.6128860000000  0.5165310000000 1.0
C      1  0.4722540000000  0.6099240000000  0.4580120000000 1.0
C      1  0.5195960000000  0.6110340000000  0.4562080000000 1.0
C      1  0.5333330000000  0.6150840000000  0.5180070000000 1.0
C      1  0.5601310000000  0.5233530000000  0.4540850000000 1.0
C      1  0.5575690000000  0.5263150000000  0.5375950000000 1.0
C      1  0.4829670000000  0.5248240000000  0.5673680000000 1.0
C      1  0.4323380000000  0.5284950000000  0.5101820000000 1.0
C      1  0.4759770000000  0.5284460000000  0.4375890000000 1.0
C      1  0.4460030000000  0.4247280000000  0.5089270000000 1.0
C      1  0.4829800000000  0.4262770000000  0.4544640000000 1.0
C      1  0.5313970000000  0.4215540000000  0.4647530000000 1.0
C      1  0.5341750000000  0.4154080000000  0.5083260000000 1.0
C      1  0.4952340000000  0.4252300000000  0.5350230000000 1.0
C      1  0.4519140000000  0.5627120000000  0.5402760000000 1.0
C      1  0.4390040000000  0.5537280000000  0.4800340000000 1.0
C      1  0.5080660000000  0.5567490000000  0.4327380000000 1.0
C      1  0.5659230000000  0.5519870000000  0.4838290000000 1.0
C      1  0.5326990000000  0.5519220000000  0.5556040000000 1.0
C      1  0.5259880000000  0.5717550000000  0.5056370000000 1.0
C      1  0.5067700000000  0.5735060000000  0.5510800000000 1.0
C      1  0.4779420000000  0.5675800000000  0.5064800000000 1.0
C      1  0.4581460000000  0.5729580000000  0.4638530000000 1.0
C      1  0.5210590000000  0.5579710000000  0.4637110000000 1.0
C      1  0.4987320000000  0.4507750000000  0.4272520000000 1.0
C      1  0.5799820000000  0.4540980000000  0.4719990000000 1.0
C      1  0.5418350000000  0.4463150000000  0.5524470000000 1.0
C      1  0.4528300000000  0.4482030000000  0.5597030000000 1.0
C      1  0.4297290000000  0.4481970000000  0.4809450000000 1.0
C      1  0.4975330000000  0.4530570000000  0.4611690000000 1.0
C      1  0.5469020000000  0.4473240000000  0.4759750000000 1.0
C      1  0.5356930000000  0.4462330000000  0.5197440000000 1.0
C      1  0.4810610000000  0.4511040000000  0.5423860000000 1.0
C      1  0.4616280000000  0.4488360000000  0.4927540000000 1.0
C      1  0.4912040000000  0.5715790000000  0.5812530000000 1.0
C      1  0.4268900000000  0.5642110000000  0.5271650000000 1.0
C      1  0.4456210000000  0.5779650000000  0.4358580000000 1.0
C      1  0.5464700000000  0.5622610000000  0.4415070000000 1.0
C      1  0.5581330000000  0.5624970000000  0.5117550000000 1.0
C      1  0.4854260000000  0.4811430000000  0.4355910000000 1.0
C      1  0.5622230000000  0.4811370000000  0.4615320000000 1.0
C      1  0.5430490000000  0.4795440000000  0.5452520000000 1.0
C      1  0.4625750000000  0.4797400000000  0.5679270000000 1.0
C      1  0.4276200000000  0.4799820000000  0.4928390000000 1.0
C      1  0.4628460000000  0.5380370000000  0.4985290000000 1.0
C      1  0.4822300000000  0.5559740000000  0.4548310000000 1.0
C      1  0.5384020000000  0.5327340000000  0.4784990000000 1.0
C      1  0.5250940000000  0.5446160000000  0.5244010000000 1.0
C      1  0.4832420000000  0.5498530000000  0.5444570000000 1.0
C      1  0.5543600000000  0.5931960000000  0.5570900000000 1.0
C      1  0.4610460000000  0.5847390000000  0.5600150000000 1.0
C      1  0.4351090000000  0.5986100000000  0.4940340000000 1.0
C      1  0.4932780000000  0.5826780000000  0.4242030000000 1.0
C      1  0.5569490000000  0.5976340000000  0.4738530000000 1.0
C      1  0.4345050000000  0.5251300000000  0.4321160000000 1.0
C      1  0.5433290000000  0.5177580000000  0.4073920000000 1.0
C      1  0.5934950000000  0.5243690000000  0.5176320000000 1.0
C      1  0.5082800000000  0.5225430000000  0.5982350000000 1.0
C      1  0.4133100000000  0.5221890000000  0.5551500000000 1.0
C      1  0.4623350000000  0.4616270000000  0.4443190000000 1.0
C      1  0.5512410000000  0.4449070000000  0.4318070000000 1.0
C      1  0.5847190000000  0.4467840000000  0.5153930000000 1.0
C      1  0.5081380000000  0.4519640000000  0.5731750000000 1.0
C      1  0.4165050000000  0.4501570000000  0.5345470000000 1.0
C      1  0.6050080000000  0.4709710000000  0.5280350000000 1.0
C      1  0.5112780000000  0.4647150000000  0.6032730000000 1.0
C      1  0.3916070000000  0.4724790000000  0.5407120000000 1.0
C      1  0.4326110000000  0.4669110000000  0.4324050000000 1.0
C      1  0.5630510000000  0.4674740000000  0.4105930000000 1.0
C      1  0.5628250000000  0.5734630000000  0.4631480000000 1.0
C      1  0.5596360000000  0.5664130000000  0.5528890000000 1.0
C      1  0.4599880000000  0.5563240000000  0.5786770000000 1.0
C      1  0.4260150000000  0.5734290000000  0.5002700000000 1.0
C      1  0.4679420000000  0.5768110000000  0.4133690000000 1.0
C      1  0.4946110000000  0.4956670000000  0.5284730000000 1.0
C      1  0.4563280000000  0.4857880000000  0.5067310000000 1.0
C      1  0.4866740000000  0.4978140000000  0.4728370000000 1.0
C      1  0.5321600000000  0.4858700000000  0.4748130000000 1.0
C      1  0.5370280000000  0.4886160000000  0.5143750000000 1.0
C      1  0.4232590000000  0.5321930000000  0.4614650000000 1.0
C      1  0.5152010000000  0.5327690000000  0.4142190000000 1.0
C      1  0.5897810000000  0.5324080000000  0.4856950000000 1.0
C      1  0.5343080000000  0.5324630000000  0.5809860000000 1.0
C      1  0.4407020000000  0.5307320000000  0.5733800000000 1.0
C      1  0.4345840000000  0.4749630000000  0.5831480000000 1.0
C      1  0.3992250000000  0.4858880000000  0.4654140000000 1.0
C      1  0.5029840000000  0.4721500000000  0.4011330000000 1.0
C      1  0.6002320000000  0.4807240000000  0.4730440000000 1.0
C      1  0.5577200000000  0.4826910000000  0.5877170000000 1.0
C      1  0.5696310000000  0.4940380000000  0.5577030000000 1.0
C      1  0.4604660000000  0.4915860000000  0.5990560000000 1.0
C      1  0.4002520000000  0.4981620000000  0.4971930000000 1.0
C      1  0.4784740000000  0.4952060000000  0.4065170000000 1.0
C      1  0.5880340000000  0.4964670000000  0.4454870000000 1.0
C      1  0.5660460000000  0.4191710000000  0.4449460000000 1.0
C      1  0.5664630000000  0.4281400000000  0.5376080000000 1.0
C      1  0.4681180000000  0.4256410000000  0.5800320000000 1.0
C      1  0.4089600000000  0.4384720000000  0.5035140000000 1.0
C      1  0.4678500000000  0.4385520000000  0.4199630000000 1.0
C      1  0.4473350000000  0.4637550000000  0.5299650000000 1.0
C      1  0.4629580000000  0.4774450000000  0.4744170000000 1.0
C      1  0.5288550000000  0.4617050000000  0.4511210000000 1.0
C      1  0.5576760000000  0.4637880000000  0.5037230000000 1.0
C      1  0.4982030000000  0.4751920000000  0.5503820000000 1.0
C      1  0.4950690000000  0.4242630000000  0.5749490000000 1.0
C      1  0.4188440000000  0.4167890000000  0.5284050000000 1.0
C      1  0.4558250000000  0.4222880000000  0.4445190000000 1.0
C      1  0.5443670000000  0.4057300000000  0.4305130000000 1.0
C      1  0.5677760000000  0.4192750000000  0.5047870000000 1.0
C      1  0.6096810000000  0.5004610000000  0.4990810000000 1.0
C      1  0.5318930000000  0.4982780000000  0.6013560000000 1.0
C      1  0.4087790000000  0.4929120000000  0.5701830000000 1.0
C      1  0.4122180000000  0.5005410000000  0.4395270000000 1.0
C      1  0.5324850000000  0.4879570000000  0.3951230000000 1.0
C      1  0.5039410000000  0.5215130000000  0.4999400000000 1.0
C      1  0.4941830000000  0.3737950000000  0.5024260000000 1.0
C      1  0.5063080000000  0.3263160000000  0.5224970000000 1.0
C      1  0.4949400000000  0.4559880000000  0.4922470000000 1.0
C      1  0.4954070000000  0.6149090000000  0.4905930000000 1.0
C      1  0.4870100000000  0.4005620000000  0.4891900000000 1.0
C      1  0.5033750000000  0.5504560000000  0.4917680000000 1.0
C      1  0.4974820000000  0.7377970000000  0.5212810000000 1.0
C      1  0.4992110000000  0.3496330000000  0.5117630000000 1.0
C      1  0.5017430000000  0.4250070000000  0.5047530000000 1.0
C      1  0.5010400000000  0.7118950000000  0.5194190000000 1.0
C      1  0.5082900000000  0.6596900000000  0.5121520000000 1.0
C      1  0.5123530000000  0.6331280000000  0.5067850000000 1.0
C      1  0.5072800000000  0.4877200000000  0.4979310000000 1.0
C      1  0.5108980000000  0.3027270000000  0.5339890000000 1.0
C      1  0.5058520000000  0.6860270000000  0.5152650000000 1.0
C      1  0.5176250000000  0.2804930000000  0.5461310000000 1.0
END
