TITL C-2622954-8726-425 0.000942455588613453 125000 -344.567890000524 0 0 65 (C1) n - 1
REM
REM in /nfs/bkarasulu/CARBON/AIRSS/Generating-Clusters/AIREBO/with-SteepDescent/Higher-Symm/SD-CG/HFTN-CG
REM
REM
REM
REM
REM
REM ./C.cell (b20cbc046b6831c77cfcea5457e17084)
REM
REM compiler GCC version 9.2.1 20190827 (Red Hat 9.2.1-1)
REM options -cpp -mtune=generic -march=x86-64 -g -O0 -fpre-include=/usr/include/finclude/math-vector-fortran.h
REM seed 2116614638 1815242326 -1578652692 -1625220700 -223552048 -759127440 -1524922898 -1831563069 1155221911 1748383898 -273889580 1356369990 -290496378 1390362671 -1492538474 1803039556 1433663689 1597786347 740850543 -1671798578 -1607167961 139784581 -310167628 1964426653 918277884 -209607314 -962760846 1473070043 1854836554 2023933405 1052149000 1047374206 -1486190569
REM
CELL 1.54180   50.00000   50.00000   50.00000   90.00000   90.00000   90.00000
LATT -1
SFAC C  
C      1  0.4683350000000  0.5048040000000  0.5582060000000 1.0
C      1  0.5301650000000  0.5090140000000  0.4437950000000 1.0
C      1  0.4521510000000  0.4806210000000  0.4852780000000 1.0
C      1  0.4378550000000  0.5046420000000  0.5279540000000 1.0
C      1  0.4910960000000  0.6008880000000  0.4708820000000 1.0
C      1  0.4864760000000  0.5786430000000  0.4835180000000 1.0
C      1  0.5641100000000  0.5153100000000  0.4758880000000 1.0
C      1  0.4967220000000  0.4601130000000  0.5194130000000 1.0
C      1  0.5181620000000  0.5194060000000  0.5698380000000 1.0
C      1  0.5030500000000  0.5410790000000  0.4723280000000 1.0
C      1  0.5089490000000  0.4342280000000  0.5349010000000 1.0
C      1  0.4577050000000  0.5242790000000  0.4591620000000 1.0
C      1  0.4651830000000  0.4352220000000  0.5139980000000 1.0
C      1  0.5354660000000  0.4396880000000  0.4547160000000 1.0
C      1  0.5807310000000  0.4990860000000  0.4979130000000 1.0
C      1  0.4323270000000  0.5272080000000  0.4818480000000 1.0
C      1  0.4988600000000  0.4947680000000  0.5599600000000 1.0
C      1  0.5055700000000  0.4246110000000  0.5024570000000 1.0
C      1  0.4580940000000  0.5346850000000  0.5485230000000 1.0
C      1  0.5171010000000  0.5522760000000  0.4984580000000 1.0
C      1  0.4807410000000  0.5222410000000  0.4342310000000 1.0
C      1  0.4375610000000  0.5391480000000  0.5224210000000 1.0
C      1  0.4565760000000  0.5446390000000  0.4965680000000 1.0
C      1  0.5365050000000  0.4306110000000  0.5159700000000 1.0
C      1  0.5061270000000  0.4485190000000  0.4415590000000 1.0
C      1  0.4672200000000  0.4858040000000  0.5327310000000 1.0
C      1  0.4400300000000  0.4532310000000  0.5212990000000 1.0
C      1  0.4933500000000  0.4916910000000  0.5148050000000 1.0
C      1  0.5060800000000  0.4269160000000  0.4678170000000 1.0
C      1  0.5507580000000  0.5104670000000  0.5322920000000 1.0
C      1  0.4825670000000  0.4434850000000  0.4859700000000 1.0
C      1  0.5081440000000  0.5360900000000  0.5259060000000 1.0
C      1  0.5444770000000  0.5134270000000  0.5638980000000 1.0
C      1  0.4951700000000  0.5719310000000  0.5141270000000 1.0
C      1  0.5523130000000  0.5421140000000  0.4693410000000 1.0
C      1  0.5508360000000  0.4576330000000  0.5217250000000 1.0
C      1  0.5337380000000  0.4751150000000  0.5397380000000 1.0
C      1  0.4998190000000  0.5690260000000  0.5467980000000 1.0
C      1  0.5614100000000  0.5759150000000  0.5046910000000 1.0
C      1  0.5173420000000  0.5041230000000  0.5329760000000 1.0
C      1  0.5096890000000  0.5436710000000  0.5580090000000 1.0
C      1  0.4487630000000  0.4966610000000  0.4414230000000 1.0
C      1  0.4188380000000  0.5116820000000  0.5006320000000 1.0
C      1  0.5454710000000  0.5587380000000  0.4908390000000 1.0
C      1  0.4636440000000  0.4707230000000  0.4437620000000 1.0
C      1  0.4354100000000  0.5125800000000  0.5609290000000 1.0
C      1  0.4368710000000  0.4770220000000  0.5081450000000 1.0
C      1  0.5456370000000  0.5008780000000  0.5000490000000 1.0
C      1  0.5703330000000  0.4840560000000  0.5264320000000 1.0
C      1  0.5683240000000  0.4678650000000  0.4954430000000 1.0
C      1  0.4696760000000  0.5021510000000  0.4800470000000 1.0
C      1  0.4601630000000  0.4583030000000  0.4695260000000 1.0
C      1  0.5341530000000  0.4477810000000  0.4869820000000 1.0
C      1  0.5020150000000  0.4980310000000  0.4391700000000 1.0
C      1  0.5536290000000  0.4658080000000  0.4668370000000 1.0
C      1  0.4652850000000  0.4535950000000  0.5427900000000 1.0
C      1  0.5290100000000  0.5352250000000  0.4542670000000 1.0
C      1  0.4907860000000  0.4707430000000  0.4353360000000 1.0
C      1  0.5513490000000  0.4939260000000  0.4557090000000 1.0
C      1  0.4997200000000  0.5095320000000  0.4704710000000 1.0
C      1  0.5090930000000  0.4642580000000  0.4906260000000 1.0
C      1  0.5169750000000  0.4951760000000  0.4910950000000 1.0
C      1  0.4968010000000  0.4615640000000  0.5527660000000 1.0
C      1  0.4730020000000  0.5522330000000  0.4710420000000 1.0
C      1  0.4764910000000  0.5450980000000  0.5237770000000 1.0
END
