TITL C-2622962-9663-340 0.0018603967470646 125000 -498.778622496982 0 0 96 (C1) n - 1
REM
REM in /nfs/bkarasulu/CARBON/AIRSS/Generating-Clusters/AIREBO/with-SteepDescent/Higher-Symm/SD-CG/HFTN-CG
REM
REM
REM
REM
REM
REM ./C.cell (b20cbc046b6831c77cfcea5457e17084)
REM
REM compiler GCC version 9.2.1 20190827 (Red Hat 9.2.1-1)
REM options -cpp -mtune=generic -march=x86-64 -g -O0 -fpre-include=/usr/include/finclude/math-vector-fortran.h
REM seed 343459397 -91673306 2050784224 -163315269 364323314 -1873437924 330522753 -363965569 -829307954 -1894493273 1450672711 -1392769627 -14624057 -214622803 -316087488 1394218907 -510828801 -938269675 1019664863 410425103 -1454921159 597391342 -1622937694 -249645315 -1044309541 1737473869 -1136101468 -957389507 2109958072 -2101084243 -1906483915 1086449965 892276660
REM
CELL 1.54180   50.00000   50.00000   50.00000   90.00000   90.00000   90.00000
LATT -1
SFAC C  
C      1  0.5321300000000  0.4223450000000  0.5100180000000 1.0
C      1  0.5297860000000  0.5783260000000  0.4884310000000 1.0
C      1  0.5275490000000  0.4139070000000  0.4796020000000 1.0
C      1  0.5230420000000  0.5840900000000  0.5176530000000 1.0
C      1  0.4770660000000  0.4769450000000  0.5188780000000 1.0
C      1  0.4685830000000  0.5209550000000  0.4869170000000 1.0
C      1  0.4805110000000  0.4771360000000  0.4877700000000 1.0
C      1  0.4709810000000  0.5233560000000  0.5135830000000 1.0
C      1  0.4777600000000  0.5186410000000  0.5525290000000 1.0
C      1  0.5005230000000  0.4786700000000  0.4525670000000 1.0
C      1  0.4885890000000  0.5293780000000  0.4680360000000 1.0
C      1  0.4785240000000  0.4848100000000  0.5604280000000 1.0
C      1  0.5877170000000  0.4698260000000  0.4884050000000 1.0
C      1  0.5799770000000  0.5334210000000  0.5136330000000 1.0
C      1  0.5780050000000  0.4652290000000  0.5144750000000 1.0
C      1  0.5659360000000  0.5360440000000  0.4896020000000 1.0
C      1  0.4983620000000  0.5164950000000  0.5255590000000 1.0
C      1  0.5119330000000  0.4881790000000  0.4815020000000 1.0
C      1  0.5148170000000  0.5191200000000  0.4760310000000 1.0
C      1  0.5071730000000  0.4884950000000  0.5152500000000 1.0
C      1  0.4353390000000  0.5412620000000  0.5145900000000 1.0
C      1  0.4447280000000  0.4558630000000  0.4959950000000 1.0
C      1  0.4302480000000  0.5330670000000  0.4817000000000 1.0
C      1  0.4266290000000  0.4621810000000  0.5242550000000 1.0
C      1  0.4734360000000  0.4392070000000  0.5148940000000 1.0
C      1  0.4725690000000  0.5731460000000  0.4856440000000 1.0
C      1  0.4709940000000  0.4389550000000  0.4825020000000 1.0
C      1  0.4617580000000  0.5629260000000  0.5148410000000 1.0
C      1  0.4753170000000  0.4880080000000  0.4335030000000 1.0
C      1  0.4910880000000  0.5162500000000  0.5813840000000 1.0
C      1  0.4900790000000  0.4887230000000  0.5920050000000 1.0
C      1  0.4783380000000  0.5210420000000  0.4390030000000 1.0
C      1  0.5166660000000  0.4425130000000  0.4570850000000 1.0
C      1  0.5068570000000  0.5540530000000  0.5360830000000 1.0
C      1  0.5218980000000  0.4431830000000  0.5406550000000 1.0
C      1  0.5179890000000  0.5548240000000  0.4589310000000 1.0
C      1  0.5401890000000  0.5073070000000  0.4602520000000 1.0
C      1  0.5327280000000  0.4808970000000  0.5286260000000 1.0
C      1  0.5433310000000  0.5114890000000  0.5355950000000 1.0
C      1  0.5425790000000  0.4775760000000  0.4718650000000 1.0
C      1  0.4183520000000  0.4763970000000  0.4888260000000 1.0
C      1  0.4072470000000  0.5221350000000  0.5133530000000 1.0
C      1  0.4095260000000  0.4909490000000  0.5182620000000 1.0
C      1  0.4079980000000  0.5073740000000  0.4827390000000 1.0
C      1  0.4978460000000  0.4455990000000  0.5603840000000 1.0
C      1  0.5088220000000  0.5445410000000  0.4282160000000 1.0
C      1  0.5012330000000  0.4477670000000  0.4272250000000 1.0
C      1  0.5083710000000  0.5560830000000  0.5688430000000 1.0
C      1  0.5370850000000  0.5131810000000  0.4300900000000 1.0
C      1  0.5347570000000  0.4829090000000  0.5620310000000 1.0
C      1  0.5384780000000  0.5164510000000  0.5677790000000 1.0
C      1  0.5281980000000  0.4804330000000  0.4328060000000 1.0
C      1  0.4955240000000  0.4192780000000  0.4694440000000 1.0
C      1  0.4898850000000  0.5791420000000  0.5252280000000 1.0
C      1  0.5005530000000  0.4235030000000  0.5233980000000 1.0
C      1  0.5009890000000  0.5812790000000  0.4702700000000 1.0
C      1  0.4785080000000  0.4525600000000  0.4520720000000 1.0
C      1  0.4642540000000  0.5490040000000  0.5457830000000 1.0
C      1  0.4713080000000  0.4555450000000  0.5446670000000 1.0
C      1  0.4728220000000  0.5559420000000  0.4577010000000 1.0
C      1  0.5520490000000  0.4288280000000  0.5387630000000 1.0
C      1  0.5491400000000  0.5659690000000  0.4623940000000 1.0
C      1  0.5473220000000  0.4293940000000  0.4558520000000 1.0
C      1  0.5383620000000  0.5643180000000  0.5407060000000 1.0
C      1  0.4305940000000  0.5538280000000  0.5458300000000 1.0
C      1  0.4507490000000  0.4684380000000  0.4405070000000 1.0
C      1  0.4498610000000  0.5329420000000  0.4537670000000 1.0
C      1  0.4247710000000  0.4438440000000  0.5476350000000 1.0
C      1  0.4482000000000  0.4852880000000  0.5266420000000 1.0
C      1  0.4463260000000  0.5049240000000  0.4727040000000 1.0
C      1  0.4538490000000  0.4773040000000  0.4712210000000 1.0
C      1  0.4474850000000  0.5126190000000  0.5272000000000 1.0
C      1  0.5496780000000  0.5413210000000  0.4389740000000 1.0
C      1  0.5549770000000  0.4590440000000  0.5541000000000 1.0
C      1  0.5516240000000  0.5452640000000  0.5553350000000 1.0
C      1  0.5469550000000  0.4566860000000  0.4355060000000 1.0
C      1  0.5253970000000  0.5335400000000  0.5188370000000 1.0
C      1  0.5399510000000  0.4497990000000  0.4820300000000 1.0
C      1  0.5331870000000  0.5444980000000  0.4875650000000 1.0
C      1  0.5464070000000  0.4527710000000  0.5152800000000 1.0
C      1  0.5095540000000  0.4710260000000  0.5746860000000 1.0
C      1  0.5053090000000  0.5112870000000  0.4220010000000 1.0
C      1  0.5006870000000  0.4786110000000  0.4128910000000 1.0
C      1  0.5140520000000  0.5315940000000  0.5806550000000 1.0
C      1  0.4469930000000  0.4413560000000  0.5594200000000 1.0
C      1  0.4886470000000  0.5671640000000  0.4349380000000 1.0
C      1  0.4548720000000  0.4366680000000  0.4309140000000 1.0
C      1  0.4812430000000  0.5686850000000  0.5628510000000 1.0
C      1  0.5721280000000  0.4873150000000  0.4733950000000 1.0
C      1  0.5728210000000  0.5118940000000  0.5300760000000 1.0
C      1  0.5843840000000  0.4862450000000  0.5324190000000 1.0
C      1  0.5697650000000  0.5163870000000  0.4705630000000 1.0
C      1  0.4963570000000  0.5952510000000  0.4398510000000 1.0
C      1  0.4998190000000  0.4136220000000  0.5552290000000 1.0
C      1  0.4808600000000  0.5964030000000  0.5523830000000 1.0
C      1  0.4921470000000  0.4179630000000  0.4374850000000 1.0
END
