TITL C-2622966-9038-494 -0.000767695257740044 125000 -253.43570475255 0 0 49 (C1) n - 1
REM
REM in /nfs/bkarasulu/CARBON/AIRSS/Generating-Clusters/AIREBO/with-SteepDescent/Higher-Symm/SD-CG/HFTN-CG
REM
REM
REM
REM
REM
REM ./C.cell (b20cbc046b6831c77cfcea5457e17084)
REM
REM compiler GCC version 9.2.1 20190827 (Red Hat 9.2.1-1)
REM options -cpp -mtune=generic -march=x86-64 -g -O0 -fpre-include=/usr/include/finclude/math-vector-fortran.h
REM seed -1657514296 1698925053 756369782 -1829450080 940827466 -1473125781 -2035150875 199640864 -1565924868 -1592076087 1726302600 -395815993 899745885 1068887971 -857092176 -108962163 413385800 618638002 -683853326 505480958 -1419423594 616053226 -344239087 502213303 -952020312 1874186114 1261780978 1260920666 1158822947 -264189725 1635864471 -103853269 -1050596138
REM
CELL 1.54180   50.00000   50.00000   50.00000   90.00000   90.00000   90.00000
LATT -1
SFAC C  
C      1  0.5433720000000  0.4726190000000  0.5195270000000 1.0
C      1  0.4929120000000  0.4462950000000  0.5169200000000 1.0
C      1  0.4388270000000  0.4989880000000  0.5060400000000 1.0
C      1  0.4821250000000  0.5394000000000  0.5148160000000 1.0
C      1  0.5323510000000  0.5299650000000  0.5065290000000 1.0
C      1  0.5537920000000  0.5223540000000  0.4812260000000 1.0
C      1  0.4904300000000  0.5575120000000  0.4872570000000 1.0
C      1  0.4382030000000  0.5140440000000  0.4761400000000 1.0
C      1  0.4767550000000  0.4637320000000  0.4926010000000 1.0
C      1  0.5312100000000  0.4694090000000  0.4879120000000 1.0
C      1  0.4926050000000  0.4414250000000  0.4724180000000 1.0
C      1  0.4366610000000  0.4836290000000  0.4677040000000 1.0
C      1  0.4675380000000  0.5543590000000  0.4646760000000 1.0
C      1  0.5394750000000  0.5471550000000  0.4711300000000 1.0
C      1  0.5620730000000  0.4651930000000  0.4706330000000 1.0
C      1  0.5093060000000  0.5735000000000  0.5461140000000 1.0
C      1  0.4365040000000  0.5171680000000  0.5279990000000 1.0
C      1  0.4792330000000  0.4227960000000  0.5299700000000 1.0
C      1  0.5623500000000  0.4516580000000  0.5251350000000 1.0
C      1  0.5550700000000  0.5223980000000  0.5299730000000 1.0
C      1  0.5125870000000  0.4668970000000  0.5328050000000 1.0
C      1  0.4659830000000  0.4787940000000  0.5374340000000 1.0
C      1  0.4595760000000  0.5283260000000  0.5377410000000 1.0
C      1  0.5021660000000  0.5476480000000  0.5410450000000 1.0
C      1  0.5454890000000  0.4979140000000  0.5441060000000 1.0
C      1  0.5115990000000  0.5422850000000  0.4680830000000 1.0
C      1  0.4585890000000  0.5293380000000  0.4572720000000 1.0
C      1  0.4613670000000  0.4725710000000  0.4644800000000 1.0
C      1  0.5140980000000  0.4558870000000  0.4618130000000 1.0
C      1  0.5451030000000  0.4942500000000  0.4692810000000 1.0
C      1  0.4757030000000  0.5131440000000  0.4424750000000 1.0
C      1  0.5047460000000  0.5255040000000  0.4397650000000 1.0
C      1  0.5262960000000  0.4994340000000  0.4432360000000 1.0
C      1  0.5057120000000  0.4757180000000  0.4438190000000 1.0
C      1  0.4786500000000  0.4849010000000  0.4457650000000 1.0
C      1  0.4793590000000  0.4803220000000  0.5664760000000 1.0
C      1  0.5080970000000  0.4750420000000  0.5650480000000 1.0
C      1  0.5236390000000  0.5006820000000  0.5613390000000 1.0
C      1  0.5064610000000  0.5240460000000  0.5580750000000 1.0
C      1  0.4771750000000  0.5119090000000  0.5564200000000 1.0
C      1  0.5193520000000  0.5587600000000  0.5036560000000 1.0
C      1  0.5203700000000  0.4400270000000  0.5011580000000 1.0
C      1  0.4544570000000  0.4769020000000  0.5122970000000 1.0
C      1  0.5565560000000  0.5005000000000  0.5052130000000 1.0
C      1  0.4537920000000  0.5347370000000  0.4966010000000 1.0
C      1  0.5046920000000  0.5090680000000  0.4695770000000 1.0
C      1  0.4953450000000  0.4950070000000  0.5330550000000 1.0
C      1  0.5036600000000  0.5136860000000  0.5092390000000 1.0
C      1  0.5020190000000  0.4866570000000  0.4905050000000 1.0
END
