TITL C-2622968-4806-599 -0.000996562295733738 125000 -928.844797939022 0 0 168 (C1) n - 1
REM
REM in /nfs/bkarasulu/CARBON/AIRSS/Generating-Clusters/AIREBO/with-SteepDescent/Higher-Symm/SD-CG/HFTN-CG
REM
REM
REM
REM
REM
REM ./C.cell (b20cbc046b6831c77cfcea5457e17084)
REM
REM compiler GCC version 9.2.1 20190827 (Red Hat 9.2.1-1)
REM options -cpp -mtune=generic -march=x86-64 -g -O0 -fpre-include=/usr/include/finclude/math-vector-fortran.h
REM seed 321299339 1437983056 1371737963 -553767444 -1385224926 -212380973 -17105298 2106867673 865412869 -711094688 -372345535 -1314886887 1881647356 -913694601 -631560854 -1035212018 -2014244210 1451666901 1491108153 -520269159 1039023702 -1344593392 -282305459 -1078629698 691894165 -1366727688 1108626260 -1617509226 897659472 -2136268966 -1913221531 -24685946 662489418
REM
CELL 1.54180   50.00000   50.00000   50.00000   90.00000   90.00000   90.00000
LATT -1
SFAC C  
C      1  0.5224870000000  0.5187660000000  0.5433390000000 1.0
C      1  0.4821670000000  0.5158820000000  0.4533680000000 1.0
C      1  0.5151260000000  0.4872460000000  0.5535770000000 1.0
C      1  0.4774510000000  0.4825070000000  0.4578510000000 1.0
C      1  0.5240070000000  0.5169560000000  0.4526390000000 1.0
C      1  0.4894840000000  0.5276900000000  0.5423620000000 1.0
C      1  0.5116800000000  0.4867590000000  0.4566970000000 1.0
C      1  0.4880020000000  0.4762390000000  0.5442800000000 1.0
C      1  0.4824920000000  0.4235990000000  0.4542940000000 1.0
C      1  0.5175520000000  0.4223520000000  0.5424530000000 1.0
C      1  0.4770140000000  0.5808940000000  0.4542180000000 1.0
C      1  0.5211890000000  0.5785750000000  0.5431120000000 1.0
C      1  0.4842160000000  0.4207250000000  0.5376280000000 1.0
C      1  0.5155260000000  0.4161200000000  0.4573160000000 1.0
C      1  0.4889530000000  0.5824020000000  0.5354390000000 1.0
C      1  0.5167940000000  0.5844960000000  0.4561560000000 1.0
C      1  0.5184290000000  0.4614970000000  0.4105020000000 1.0
C      1  0.4877820000000  0.4517960000000  0.5879790000000 1.0
C      1  0.5148490000000  0.5396350000000  0.4092320000000 1.0
C      1  0.4869710000000  0.5375740000000  0.5850140000000 1.0
C      1  0.5155960000000  0.4577420000000  0.5905840000000 1.0
C      1  0.4856300000000  0.4635840000000  0.4127780000000 1.0
C      1  0.5180650000000  0.5357380000000  0.5850880000000 1.0
C      1  0.4867120000000  0.5389010000000  0.4108710000000 1.0
C      1  0.5059750000000  0.5739770000000  0.4859720000000 1.0
C      1  0.4829290000000  0.5571300000000  0.5135030000000 1.0
C      1  0.5087710000000  0.4369830000000  0.4821630000000 1.0
C      1  0.4838960000000  0.4412000000000  0.5130730000000 1.0
C      1  0.5174200000000  0.5628230000000  0.5132060000000 1.0
C      1  0.4754700000000  0.5640960000000  0.4837800000000 1.0
C      1  0.5182150000000  0.4414240000000  0.5142940000000 1.0
C      1  0.4756590000000  0.4401340000000  0.4828140000000 1.0
C      1  0.4106700000000  0.5147630000000  0.4394390000000 1.0
C      1  0.5855750000000  0.5115420000000  0.5602850000000 1.0
C      1  0.4135080000000  0.4857410000000  0.4398840000000 1.0
C      1  0.5987860000000  0.4862730000000  0.5599960000000 1.0
C      1  0.4218230000000  0.5118510000000  0.5535290000000 1.0
C      1  0.5798580000000  0.5148530000000  0.4464890000000 1.0
C      1  0.4192340000000  0.4853100000000  0.5553110000000 1.0
C      1  0.5812850000000  0.4888440000000  0.4454870000000 1.0
C      1  0.4863050000000  0.6153030000000  0.4876170000000 1.0
C      1  0.5180960000000  0.6154870000000  0.5103800000000 1.0
C      1  0.4883800000000  0.3860560000000  0.4925410000000 1.0
C      1  0.5173040000000  0.3808060000000  0.5195510000000 1.0
C      1  0.4866970000000  0.6127750000000  0.5202970000000 1.0
C      1  0.5167200000000  0.6114320000000  0.4769320000000 1.0
C      1  0.4873390000000  0.3892820000000  0.5250480000000 1.0
C      1  0.5190770000000  0.3822150000000  0.4896600000000 1.0
C      1  0.4584650000000  0.4932910000000  0.5940660000000 1.0
C      1  0.5551970000000  0.4776110000000  0.3980500000000 1.0
C      1  0.4470590000000  0.5187780000000  0.5940420000000 1.0
C      1  0.5497180000000  0.5045960000000  0.3956320000000 1.0
C      1  0.4534620000000  0.5018590000000  0.3894910000000 1.0
C      1  0.5627900000000  0.4734870000000  0.5996580000000 1.0
C      1  0.4388700000000  0.5244940000000  0.4020520000000 1.0
C      1  0.5501340000000  0.4979500000000  0.6112440000000 1.0
C      1  0.4655610000000  0.5200090000000  0.5652780000000 1.0
C      1  0.5293640000000  0.5149210000000  0.4191220000000 1.0
C      1  0.4662540000000  0.4860610000000  0.5634850000000 1.0
C      1  0.5385250000000  0.4832000000000  0.4272770000000 1.0
C      1  0.4640590000000  0.5176010000000  0.4246400000000 1.0
C      1  0.5319990000000  0.5107380000000  0.5922640000000 1.0
C      1  0.4717760000000  0.4889260000000  0.4080640000000 1.0
C      1  0.5373820000000  0.4804940000000  0.5776710000000 1.0
C      1  0.5207360000000  0.5507790000000  0.4540840000000 1.0
C      1  0.4744470000000  0.5565800000000  0.5521370000000 1.0
C      1  0.5222110000000  0.4551790000000  0.4497050000000 1.0
C      1  0.4775550000000  0.4475390000000  0.5559130000000 1.0
C      1  0.5310280000000  0.5489170000000  0.5565360000000 1.0
C      1  0.4884300000000  0.5491350000000  0.4500100000000 1.0
C      1  0.5223530000000  0.4545530000000  0.5513080000000 1.0
C      1  0.4915080000000  0.4547580000000  0.4441050000000 1.0
C      1  0.4463520000000  0.5278550000000  0.4794180000000 1.0
C      1  0.5388350000000  0.5414620000000  0.5099840000000 1.0
C      1  0.4441140000000  0.4734070000000  0.4980380000000 1.0
C      1  0.5417290000000  0.4656900000000  0.5181490000000 1.0
C      1  0.4517740000000  0.5439580000000  0.5089160000000 1.0
C      1  0.5582610000000  0.5435610000000  0.4865880000000 1.0
C      1  0.4544550000000  0.4554030000000  0.5224400000000 1.0
C      1  0.5544850000000  0.4603730000000  0.4870370000000 1.0
C      1  0.4412530000000  0.5580260000000  0.5606310000000 1.0
C      1  0.5515490000000  0.5597910000000  0.4417800000000 1.0
C      1  0.4447110000000  0.4379820000000  0.5591580000000 1.0
C      1  0.5522950000000  0.4426720000000  0.4398990000000 1.0
C      1  0.4545850000000  0.5484380000000  0.4536040000000 1.0
C      1  0.5544770000000  0.5482420000000  0.5355530000000 1.0
C      1  0.4454040000000  0.4460070000000  0.4372880000000 1.0
C      1  0.5541710000000  0.4456720000000  0.5593890000000 1.0
C      1  0.4426780000000  0.5107760000000  0.4502060000000 1.0
C      1  0.5551680000000  0.5094680000000  0.5450150000000 1.0
C      1  0.4461680000000  0.4772830000000  0.4454570000000 1.0
C      1  0.5535220000000  0.4776470000000  0.5478360000000 1.0
C      1  0.4458680000000  0.5314010000000  0.5399950000000 1.0
C      1  0.5545900000000  0.5302120000000  0.4575860000000 1.0
C      1  0.4447930000000  0.4695540000000  0.5505230000000 1.0
C      1  0.5554480000000  0.4729630000000  0.4550240000000 1.0
C      1  0.5367250000000  0.6018750000000  0.5272000000000 1.0
C      1  0.4664000000000  0.6021520000000  0.4731500000000 1.0
C      1  0.5346400000000  0.3991880000000  0.5315940000000 1.0
C      1  0.4707500000000  0.4009330000000  0.4767630000000 1.0
C      1  0.5460090000000  0.5961740000000  0.4679890000000 1.0
C      1  0.4584560000000  0.5962200000000  0.5307290000000 1.0
C      1  0.5320390000000  0.4046450000000  0.4792380000000 1.0
C      1  0.4576780000000  0.3994650000000  0.5384590000000 1.0
C      1  0.5935490000000  0.5354670000000  0.4635080000000 1.0
C      1  0.4051170000000  0.5296160000000  0.5377620000000 1.0
C      1  0.5944030000000  0.4662440000000  0.4604410000000 1.0
C      1  0.4073890000000  0.4687740000000  0.5347190000000 1.0
C      1  0.5987760000000  0.5337410000000  0.5433970000000 1.0
C      1  0.4096890000000  0.5309260000000  0.4637270000000 1.0
C      1  0.5942440000000  0.4712820000000  0.5361290000000 1.0
C      1  0.4112610000000  0.4676590000000  0.4624850000000 1.0
C      1  0.5193130000000  0.4837620000000  0.5071790000000 1.0
C      1  0.4737260000000  0.4722340000000  0.4900520000000 1.0
C      1  0.5244200000000  0.5132980000000  0.5098360000000 1.0
C      1  0.4799510000000  0.5303770000000  0.4840500000000 1.0
C      1  0.5063360000000  0.4702580000000  0.4828700000000 1.0
C      1  0.4876980000000  0.4866170000000  0.5155040000000 1.0
C      1  0.5128110000000  0.5251590000000  0.4836870000000 1.0
C      1  0.4801980000000  0.5163560000000  0.5150270000000 1.0
C      1  0.5917880000000  0.5777420000000  0.4834850000000 1.0
C      1  0.4153010000000  0.5701680000000  0.5158300000000 1.0
C      1  0.5801470000000  0.4287010000000  0.4826270000000 1.0
C      1  0.4169530000000  0.4255920000000  0.5100110000000 1.0
C      1  0.5861110000000  0.5775740000000  0.5158880000000 1.0
C      1  0.4185240000000  0.5751680000000  0.4822900000000 1.0
C      1  0.5807560000000  0.4275470000000  0.5166430000000 1.0
C      1  0.4218100000000  0.4229690000000  0.4780190000000 1.0
C      1  0.4472700000000  0.4107340000000  0.4887530000000 1.0
C      1  0.5564990000000  0.4083910000000  0.5182650000000 1.0
C      1  0.4426930000000  0.5948690000000  0.4842580000000 1.0
C      1  0.5601340000000  0.5939180000000  0.5157600000000 1.0
C      1  0.4490670000000  0.4224870000000  0.5186300000000 1.0
C      1  0.5496420000000  0.4270070000000  0.4919400000000 1.0
C      1  0.4459730000000  0.5774780000000  0.5107300000000 1.0
C      1  0.5586800000000  0.5775620000000  0.4871960000000 1.0
C      1  0.5800330000000  0.4468920000000  0.5376190000000 1.0
C      1  0.4230730000000  0.4423840000000  0.4574140000000 1.0
C      1  0.5816600000000  0.5551980000000  0.5331150000000 1.0
C      1  0.4229480000000  0.5554400000000  0.4627050000000 1.0
C      1  0.5811360000000  0.4416650000000  0.4581370000000 1.0
C      1  0.4193630000000  0.4422020000000  0.5363060000000 1.0
C      1  0.5812920000000  0.5609820000000  0.4589740000000 1.0
C      1  0.4143700000000  0.5559110000000  0.5396800000000 1.0
C      1  0.4002840000000  0.4859140000000  0.5124620000000 1.0
C      1  0.5799860000000  0.4828500000000  0.4849600000000 1.0
C      1  0.3966020000000  0.5163600000000  0.5146230000000 1.0
C      1  0.5794820000000  0.5169080000000  0.4883160000000 1.0
C      1  0.4184340000000  0.4813090000000  0.4876560000000 1.0
C      1  0.5899710000000  0.4881860000000  0.5139840000000 1.0
C      1  0.4169040000000  0.5138620000000  0.4891900000000 1.0
C      1  0.5787140000000  0.5170250000000  0.5216190000000 1.0
C      1  0.5123890000000  0.5827120000000  0.5755290000000 1.0
C      1  0.4808600000000  0.5835030000000  0.4217460000000 1.0
C      1  0.5139480000000  0.4148050000000  0.5746210000000 1.0
C      1  0.4803010000000  0.4131980000000  0.4216600000000 1.0
C      1  0.5099420000000  0.5849350000000  0.4251630000000 1.0
C      1  0.4852690000000  0.5767100000000  0.5769660000000 1.0
C      1  0.5106150000000  0.4169990000000  0.4267200000000 1.0
C      1  0.4879130000000  0.4119360000000  0.5855600000000 1.0
C      1  0.5276120000000  0.5664280000000  0.5921930000000 1.0
C      1  0.4629170000000  0.5576790000000  0.4216780000000 1.0
C      1  0.5332000000000  0.4348520000000  0.5838670000000 1.0
C      1  0.4648380000000  0.4387540000000  0.4191940000000 1.0
C      1  0.5282140000000  0.5636550000000  0.4171850000000 1.0
C      1  0.4606270000000  0.5586060000000  0.5886750000000 1.0
C      1  0.5292890000000  0.4350700000000  0.4161800000000 1.0
C      1  0.4621560000000  0.4294620000000  0.5871000000000 1.0
END
