TITL C-2622956-4641-132 -0.00384625995452315 125000 -319.796497000593 0 0 56 (C1) n - 1
REM
REM in /nfs/bkarasulu/CARBON/AIRSS/Generating-Clusters/AIREBO/with-SteepDescent/Higher-Symm/SD-CG/HFTN-CG
REM
REM
REM
REM
REM
REM ./C.cell (b20cbc046b6831c77cfcea5457e17084)
REM
REM compiler GCC version 9.2.1 20190827 (Red Hat 9.2.1-1)
REM options -cpp -mtune=generic -march=x86-64 -g -O0 -fpre-include=/usr/include/finclude/math-vector-fortran.h
REM seed 813106833 -2112039053 1774171705 1664229019 1990657968 -325365470 -1954632824 671552105 1048588557 -1145951873 1302558314 741798605 -145473094 1384309172 -415923079 1697722096 985623079 303375418 -1692230426 -1985477751 1950331066 -122083376 1321958909 1999236600 1279489835 -1555409460 -221493558 903952053 32486049 1839475030 1799593586 -1746622 -1965474890
REM
CELL 1.54180   50.00000   50.00000   50.00000   90.00000   90.00000   90.00000
LATT -1
SFAC C  
C      1  0.4438720000000  0.5306500000000  0.4641130000000 1.0
C      1  0.4289360000000  0.5004040000000  0.4632150000000 1.0
C      1  0.4873450000000  0.4352710000000  0.4434160000000 1.0
C      1  0.5078360000000  0.4284310000000  0.4632270000000 1.0
C      1  0.5290340000000  0.4462500000000  0.4663430000000 1.0
C      1  0.5627070000000  0.5044250000000  0.4630710000000 1.0
C      1  0.5614450000000  0.5340250000000  0.4667330000000 1.0
C      1  0.5367440000000  0.5504820000000  0.4648970000000 1.0
C      1  0.4632140000000  0.5584240000000  0.4615940000000 1.0
C      1  0.5768760000000  0.4832090000000  0.4856320000000 1.0
C      1  0.5731730000000  0.5372510000000  0.4934720000000 1.0
C      1  0.5303170000000  0.5671880000000  0.4915890000000 1.0
C      1  0.4793390000000  0.5747560000000  0.4853260000000 1.0
C      1  0.4356060000000  0.5418870000000  0.4917140000000 1.0
C      1  0.4280490000000  0.4959110000000  0.4941730000000 1.0
C      1  0.4481110000000  0.4494870000000  0.4869840000000 1.0
C      1  0.4946000000000  0.4213850000000  0.4920870000000 1.0
C      1  0.5505070000000  0.4377860000000  0.4847470000000 1.0
C      1  0.5395390000000  0.5361510000000  0.5150140000000 1.0
C      1  0.4948660000000  0.5542200000000  0.5246580000000 1.0
C      1  0.4698670000000  0.5400040000000  0.5122030000000 1.0
C      1  0.4531140000000  0.5196260000000  0.5321140000000 1.0
C      1  0.4460860000000  0.4677930000000  0.5297020000000 1.0
C      1  0.4701240000000  0.4479470000000  0.5278300000000 1.0
C      1  0.5168090000000  0.4490740000000  0.5227080000000 1.0
C      1  0.5468120000000  0.4650750000000  0.5235580000000 1.0
C      1  0.5496140000000  0.4947310000000  0.5123130000000 1.0
C      1  0.4800260000000  0.5351490000000  0.4801210000000 1.0
C      1  0.4678030000000  0.5077840000000  0.4652960000000 1.0
C      1  0.4529460000000  0.4769250000000  0.4684510000000 1.0
C      1  0.4809330000000  0.4577960000000  0.4658080000000 1.0
C      1  0.5007570000000  0.4548100000000  0.4932820000000 1.0
C      1  0.5195270000000  0.4753410000000  0.4729640000000 1.0
C      1  0.5389680000000  0.4950930000000  0.4819480000000 1.0
C      1  0.5290660000000  0.5226550000000  0.4924580000000 1.0
C      1  0.5096040000000  0.5371350000000  0.4753260000000 1.0
C      1  0.4676110000000  0.5183480000000  0.5619580000000 1.0
C      1  0.4547260000000  0.4905970000000  0.5500240000000 1.0
C      1  0.4746810000000  0.4633920000000  0.5562360000000 1.0
C      1  0.5029710000000  0.4605300000000  0.5504790000000 1.0
C      1  0.5303270000000  0.4718160000000  0.5525910000000 1.0
C      1  0.5351120000000  0.4991440000000  0.5405970000000 1.0
C      1  0.5295230000000  0.5268430000000  0.5401530000000 1.0
C      1  0.5063160000000  0.5412340000000  0.5468540000000 1.0
C      1  0.4887210000000  0.5334470000000  0.5673500000000 1.0
C      1  0.4673030000000  0.4351410000000  0.5027640000000 1.0
C      1  0.5273790000000  0.4262780000000  0.5009560000000 1.0
C      1  0.5649130000000  0.4593710000000  0.4976590000000 1.0
C      1  0.5768190000000  0.5110390000000  0.5046960000000 1.0
C      1  0.5575450000000  0.5604400000000  0.5078090000000 1.0
C      1  0.5032480000000  0.5704670000000  0.5015910000000 1.0
C      1  0.4516510000000  0.5655890000000  0.4991800000000 1.0
C      1  0.4324060000000  0.5199960000000  0.5088510000000 1.0
C      1  0.4341840000000  0.4704010000000  0.5042500000000 1.0
C      1  0.4903420000000  0.4913850000000  0.5055560000000 1.0
C      1  0.4903240000000  0.4886610000000  0.4751430000000 1.0
END
