TITL C-2622959-7779-408 0.000864124899798044 125000 -328.859958846483 0 0 65 (C1) n - 1
REM
REM in /nfs/bkarasulu/CARBON/AIRSS/Generating-Clusters/AIREBO/with-SteepDescent/Higher-Symm/SD-CG/HFTN-CG
REM
REM
REM
REM
REM
REM ./C.cell (b20cbc046b6831c77cfcea5457e17084)
REM
REM compiler GCC version 9.2.1 20190827 (Red Hat 9.2.1-1)
REM options -cpp -mtune=generic -march=x86-64 -g -O0 -fpre-include=/usr/include/finclude/math-vector-fortran.h
REM seed 1902788181 -2033696847 -1373907242 -2072236670 739405928 1281616578 1213406272 455463582 -305337458 435655482 554732132 1946130443 -1530910386 -1920050855 -772711660 228308547 7464070 74300869 1319639316 -178433183 1452431951 210273068 2066174438 1305706201 -55730997 -1029399169 -1483060328 318526096 -1596457972 -1059781169 900189109 1371924562 1447988104
REM
CELL 1.54180   50.00000   50.00000   50.00000   90.00000   90.00000   90.00000
LATT -1
SFAC C  
C      1  0.4487810000000  0.5300550000000  0.5241710000000 1.0
C      1  0.4467050000000  0.5345000000000  0.4961040000000 1.0
C      1  0.4303970000000  0.5173730000000  0.4792950000000 1.0
C      1  0.4380360000000  0.4924870000000  0.4697010000000 1.0
C      1  0.4443860000000  0.4664280000000  0.4906040000000 1.0
C      1  0.4361010000000  0.4823180000000  0.5195120000000 1.0
C      1  0.4455510000000  0.5035340000000  0.5341840000000 1.0
C      1  0.4639180000000  0.4966900000000  0.5598850000000 1.0
C      1  0.4721990000000  0.5057230000000  0.4855960000000 1.0
C      1  0.4778680000000  0.5371410000000  0.4827280000000 1.0
C      1  0.4693980000000  0.4912410000000  0.4566110000000 1.0
C      1  0.4742290000000  0.4620880000000  0.4734350000000 1.0
C      1  0.4687600000000  0.4576780000000  0.5126590000000 1.0
C      1  0.4724980000000  0.4906550000000  0.5052410000000 1.0
C      1  0.4838590000000  0.5408010000000  0.4427080000000 1.0
C      1  0.4831600000000  0.4820020000000  0.4269200000000 1.0
C      1  0.4805920000000  0.4295990000000  0.4656760000000 1.0
C      1  0.4826290000000  0.4334410000000  0.5320820000000 1.0
C      1  0.4820220000000  0.4728490000000  0.5689630000000 1.0
C      1  0.4865410000000  0.5397930000000  0.5617620000000 1.0
C      1  0.4831590000000  0.5758760000000  0.4909290000000 1.0
C      1  0.5119190000000  0.4328960000000  0.4737170000000 1.0
C      1  0.5161480000000  0.4301850000000  0.5367930000000 1.0
C      1  0.5115500000000  0.4828370000000  0.5744080000000 1.0
C      1  0.5168600000000  0.5444210000000  0.5575700000000 1.0
C      1  0.5130230000000  0.5753420000000  0.4973060000000 1.0
C      1  0.5143450000000  0.5441260000000  0.4378730000000 1.0
C      1  0.5150080000000  0.4772950000000  0.4292040000000 1.0
C      1  0.5009630000000  0.5207240000000  0.5297160000000 1.0
C      1  0.5079610000000  0.5317760000000  0.5014940000000 1.0
C      1  0.5055230000000  0.5216910000000  0.4703440000000 1.0
C      1  0.5025290000000  0.4909670000000  0.4643910000000 1.0
C      1  0.5042980000000  0.4694190000000  0.4879330000000 1.0
C      1  0.5003660000000  0.4673430000000  0.5207070000000 1.0
C      1  0.4844440000000  0.4943300000000  0.5345240000000 1.0
C      1  0.5346510000000  0.4985380000000  0.4560050000000 1.0
C      1  0.5369100000000  0.4630750000000  0.4806130000000 1.0
C      1  0.5324760000000  0.4583960000000  0.5139990000000 1.0
C      1  0.5343250000000  0.4776820000000  0.5420710000000 1.0
C      1  0.5325600000000  0.5114330000000  0.5382480000000 1.0
C      1  0.5363440000000  0.5456600000000  0.5087810000000 1.0
C      1  0.5352300000000  0.5358530000000  0.4702250000000 1.0
C      1  0.5146840000000  0.4550280000000  0.5550050000000 1.0
C      1  0.5145730000000  0.5117500000000  0.5668380000000 1.0
C      1  0.5154490000000  0.5603320000000  0.5277810000000 1.0
C      1  0.5142720000000  0.5603060000000  0.4678300000000 1.0
C      1  0.5152180000000  0.5111400000000  0.4330260000000 1.0
C      1  0.5209480000000  0.4576700000000  0.4521900000000 1.0
C      1  0.5144900000000  0.4317740000000  0.5028520000000 1.0
C      1  0.4750410000000  0.5154640000000  0.4334240000000 1.0
C      1  0.4728300000000  0.4525810000000  0.4408080000000 1.0
C      1  0.4749630000000  0.4271370000000  0.4990380000000 1.0
C      1  0.4757850000000  0.4475720000000  0.5605910000000 1.0
C      1  0.4715100000000  0.5222390000000  0.5760960000000 1.0
C      1  0.4700200000000  0.5698080000000  0.5156480000000 1.0
C      1  0.4747060000000  0.5632630000000  0.4632770000000 1.0
C      1  0.5650060000000  0.4858430000000  0.4637500000000 1.0
C      1  0.5662800000000  0.4727090000000  0.4901900000000 1.0
C      1  0.5730630000000  0.4815190000000  0.5156380000000 1.0
C      1  0.5644270000000  0.5015560000000  0.5315730000000 1.0
C      1  0.5606380000000  0.5307360000000  0.5234150000000 1.0
C      1  0.5626020000000  0.5355480000000  0.4903960000000 1.0
C      1  0.5617450000000  0.5180440000000  0.4625100000000 1.0
C      1  0.5319310000000  0.4921860000000  0.5102250000000 1.0
C      1  0.4756230000000  0.5432960000000  0.5327220000000 1.0
END
