TITL C-2622956-4641-285 -0.000747224524085324 125000 -756.3003168425 0 0 134 (C1) n - 1
REM
REM in /nfs/bkarasulu/CARBON/AIRSS/Generating-Clusters/AIREBO/with-SteepDescent/Higher-Symm/SD-CG/HFTN-CG
REM
REM
REM
REM
REM
REM ./C.cell (b20cbc046b6831c77cfcea5457e17084)
REM
REM compiler GCC version 9.2.1 20190827 (Red Hat 9.2.1-1)
REM options -cpp -mtune=generic -march=x86-64 -g -O0 -fpre-include=/usr/include/finclude/math-vector-fortran.h
REM seed 1191553859 -1704768388 202982339 571500114 -1029336380 1515595162 -947754436 -48306225 1476471037 -1873628826 56987204 1717866701 -702067570 1213786187 -1527033457 1195176338 1023459356 764872072 1330367121 -460387869 1092301366 2052645789 1453659717 1379223837 -1687288043 -793041669 -1724065397 1542955444 813337439 -641627059 288392746 1424539095 -808659035
REM
CELL 1.54180   50.00000   50.00000   50.00000   90.00000   90.00000   90.00000
LATT -1
SFAC C  
C      1  0.5098240000000  0.3870480000000  0.4943560000000 1.0
C      1  0.4985060000000  0.5787070000000  0.4103030000000 1.0
C      1  0.5253290000000  0.5322080000000  0.5988110000000 1.0
C      1  0.4978900000000  0.5339270000000  0.4369710000000 1.0
C      1  0.4899850000000  0.5400320000000  0.5586320000000 1.0
C      1  0.4918220000000  0.4383180000000  0.5147590000000 1.0
C      1  0.4704250000000  0.5234200000000  0.6153590000000 1.0
C      1  0.4854870000000  0.3765680000000  0.4539750000000 1.0
C      1  0.4518650000000  0.5919070000000  0.4423610000000 1.0
C      1  0.4159430000000  0.4739050000000  0.5362850000000 1.0
C      1  0.4259840000000  0.4766070000000  0.4526700000000 1.0
C      1  0.3895220000000  0.5450400000000  0.4949200000000 1.0
C      1  0.4919770000000  0.4560090000000  0.5891760000000 1.0
C      1  0.4900360000000  0.4596650000000  0.4106420000000 1.0
C      1  0.4841040000000  0.5990830000000  0.4888930000000 1.0
C      1  0.5434470000000  0.4875770000000  0.4166170000000 1.0
C      1  0.5493510000000  0.5737520000000  0.5386540000000 1.0
C      1  0.5366590000000  0.4303650000000  0.5522640000000 1.0
C      1  0.5058800000000  0.4312860000000  0.5710570000000 1.0
C      1  0.4998020000000  0.4839890000000  0.3902580000000 1.0
C      1  0.5222680000000  0.5926640000000  0.5406790000000 1.0
C      1  0.5293240000000  0.6022440000000  0.4677560000000 1.0
C      1  0.5312470000000  0.4824610000000  0.6020680000000 1.0
C      1  0.5288670000000  0.4228710000000  0.4251740000000 1.0
C      1  0.5380360000000  0.4369570000000  0.5850040000000 1.0
C      1  0.5262810000000  0.4720670000000  0.3998750000000 1.0
C      1  0.5222500000000  0.5860340000000  0.5121840000000 1.0
C      1  0.5573860000000  0.5314960000000  0.4368790000000 1.0
C      1  0.5743640000000  0.5307920000000  0.5623270000000 1.0
C      1  0.5511010000000  0.4289920000000  0.5048390000000 1.0
C      1  0.5594180000000  0.4534040000000  0.5643060000000 1.0
C      1  0.5559120000000  0.4729460000000  0.4375810000000 1.0
C      1  0.5635470000000  0.5618380000000  0.5143450000000 1.0
C      1  0.5122870000000  0.6002270000000  0.4901000000000 1.0
C      1  0.5200050000000  0.4585530000000  0.5974440000000 1.0
C      1  0.5195030000000  0.4435040000000  0.4094710000000 1.0
C      1  0.5125160000000  0.5301710000000  0.4097210000000 1.0
C      1  0.5029810000000  0.5611550000000  0.5699720000000 1.0
C      1  0.4937730000000  0.4145700000000  0.5283250000000 1.0
C      1  0.5986250000000  0.4896580000000  0.5463550000000 1.0
C      1  0.5895270000000  0.4507880000000  0.4713660000000 1.0
C      1  0.5976500000000  0.5482770000000  0.4817210000000 1.0
C      1  0.5418630000000  0.5833980000000  0.4525820000000 1.0
C      1  0.5391020000000  0.5074250000000  0.5861790000000 1.0
C      1  0.5324650000000  0.4187230000000  0.4519480000000 1.0
C      1  0.4633400000000  0.4615480000000  0.4311370000000 1.0
C      1  0.4407470000000  0.5668410000000  0.5020850000000 1.0
C      1  0.4561090000000  0.4771890000000  0.5657570000000 1.0
C      1  0.4555180000000  0.4264220000000  0.5515740000000 1.0
C      1  0.4513230000000  0.5053510000000  0.3964930000000 1.0
C      1  0.4663190000000  0.5791200000000  0.5442510000000 1.0
C      1  0.5351870000000  0.5251100000000  0.5573560000000 1.0
C      1  0.5216870000000  0.4617370000000  0.4906650000000 1.0
C      1  0.5380240000000  0.5307280000000  0.4715610000000 1.0
C      1  0.4682900000000  0.5059070000000  0.4239340000000 1.0
C      1  0.4723220000000  0.5473350000000  0.5360960000000 1.0
C      1  0.4625540000000  0.4568640000000  0.5441560000000 1.0
C      1  0.5737190000000  0.5151620000000  0.4551370000000 1.0
C      1  0.5687550000000  0.5337810000000  0.5292860000000 1.0
C      1  0.5681110000000  0.4489250000000  0.5146080000000 1.0
C      1  0.4927790000000  0.4742160000000  0.4404220000000 1.0
C      1  0.4693880000000  0.5699770000000  0.4920190000000 1.0
C      1  0.4743770000000  0.4770780000000  0.5864570000000 1.0
C      1  0.4034660000000  0.5297970000000  0.4690980000000 1.0
C      1  0.4154860000000  0.5076980000000  0.5414120000000 1.0
C      1  0.4125180000000  0.4573710000000  0.4740250000000 1.0
C      1  0.4881820000000  0.5093290000000  0.3989430000000 1.0
C      1  0.4973430000000  0.5845960000000  0.5542090000000 1.0
C      1  0.4836520000000  0.4170430000000  0.5548430000000 1.0
C      1  0.4835440000000  0.5046670000000  0.5900110000000 1.0
C      1  0.4764720000000  0.4178340000000  0.4769870000000 1.0
C      1  0.4747440000000  0.5736340000000  0.4596560000000 1.0
C      1  0.5193920000000  0.5566950000000  0.5098380000000 1.0
C      1  0.5208590000000  0.4746800000000  0.5409100000000 1.0
C      1  0.5256030000000  0.4865700000000  0.4595810000000 1.0
C      1  0.5153710000000  0.5493350000000  0.4801450000000 1.0
C      1  0.5189090000000  0.4988830000000  0.5514470000000 1.0
C      1  0.5101320000000  0.4581790000000  0.4579520000000 1.0
C      1  0.4340860000000  0.4450800000000  0.5320910000000 1.0
C      1  0.4368290000000  0.4939370000000  0.4254250000000 1.0
C      1  0.4383550000000  0.5676390000000  0.5308830000000 1.0
C      1  0.5772940000000  0.4823430000000  0.5640670000000 1.0
C      1  0.5642810000000  0.4517070000000  0.4581610000000 1.0
C      1  0.5722030000000  0.5600770000000  0.4871000000000 1.0
C      1  0.5270230000000  0.5548260000000  0.5827660000000 1.0
C      1  0.5158860000000  0.3999720000000  0.5187300000000 1.0
C      1  0.5107640000000  0.5584390000000  0.3967160000000 1.0
C      1  0.5671330000000  0.5061250000000  0.5746140000000 1.0
C      1  0.5410900000000  0.4379390000000  0.4760220000000 1.0
C      1  0.5543820000000  0.5562610000000  0.4600270000000 1.0
C      1  0.4142710000000  0.5132710000000  0.4419810000000 1.0
C      1  0.4175860000000  0.5416320000000  0.5393000000000 1.0
C      1  0.4277690000000  0.4354880000000  0.5000860000000 1.0
C      1  0.4839480000000  0.4980600000000  0.5322560000000 1.0
C      1  0.4690440000000  0.4674300000000  0.4846750000000 1.0
C      1  0.4758450000000  0.5260580000000  0.4829680000000 1.0
C      1  0.4135290000000  0.4658700000000  0.5049870000000 1.0
C      1  0.4050560000000  0.4965050000000  0.4705620000000 1.0
C      1  0.3964180000000  0.5245690000000  0.5188770000000 1.0
C      1  0.5472070000000  0.5144360000000  0.4959090000000 1.0
C      1  0.5507140000000  0.4932670000000  0.5222870000000 1.0
C      1  0.5469620000000  0.4815970000000  0.4925420000000 1.0
C      1  0.5521180000000  0.4645060000000  0.5355440000000 1.0
C      1  0.5590920000000  0.4908890000000  0.4635830000000 1.0
C      1  0.5354050000000  0.5300830000000  0.5237040000000 1.0
C      1  0.4913480000000  0.5111840000000  0.5612230000000 1.0
C      1  0.4925930000000  0.4453560000000  0.4841170000000 1.0
C      1  0.4903300000000  0.5475550000000  0.4642750000000 1.0
C      1  0.5975810000000  0.5256820000000  0.4655900000000 1.0
C      1  0.5964620000000  0.5144790000000  0.5333880000000 1.0
C      1  0.5916020000000  0.4521360000000  0.4992670000000 1.0
C      1  0.5009410000000  0.5255170000000  0.6091060000000 1.0
C      1  0.4910720000000  0.3938590000000  0.4739420000000 1.0
C      1  0.4790010000000  0.5844970000000  0.4282220000000 1.0
C      1  0.4592960000000  0.5108790000000  0.4625060000000 1.0
C      1  0.4346080000000  0.5201610000000  0.5086610000000 1.0
C      1  0.4583010000000  0.4786890000000  0.5088280000000 1.0
C      1  0.4872270000000  0.5457740000000  0.5082280000000 1.0
C      1  0.4900090000000  0.4646330000000  0.5307130000000 1.0
C      1  0.4899500000000  0.5044430000000  0.4492780000000 1.0
C      1  0.4520270000000  0.4260930000000  0.4881340000000 1.0
C      1  0.4411310000000  0.5266340000000  0.4478100000000 1.0
C      1  0.4483000000000  0.5298570000000  0.5382340000000 1.0
C      1  0.5513030000000  0.5546160000000  0.5624350000000 1.0
C      1  0.5385810000000  0.4153610000000  0.5255320000000 1.0
C      1  0.5409800000000  0.5171510000000  0.4181930000000 1.0
C      1  0.5114450000000  0.5099000000000  0.4751440000000 1.0
C      1  0.5071400000000  0.5182290000000  0.5070050000000 1.0
C      1  0.5020520000000  0.4848540000000  0.5061650000000 1.0
C      1  0.4237740000000  0.5442790000000  0.4919140000000 1.0
C      1  0.4448410000000  0.4917970000000  0.5371890000000 1.0
C      1  0.4579550000000  0.4793780000000  0.4592760000000 1.0
C      1  0.4111990000000  0.4984830000000  0.5027690000000 1.0
C      1  0.4641940000000  0.5107030000000  0.5077300000000 1.0
END
