TITL C-2622956-4641-482 0.000133478023613166 125000 -399.45893068038 0 0 83 (T23) n - 1
REM
REM in /nfs/bkarasulu/CARBON/AIRSS/Generating-Clusters/AIREBO/with-SteepDescent/Higher-Symm/SD-CG/HFTN-CG
REM
REM
REM
REM
REM
REM ./C.cell (b20cbc046b6831c77cfcea5457e17084)
REM
REM compiler GCC version 9.2.1 20190827 (Red Hat 9.2.1-1)
REM options -cpp -mtune=generic -march=x86-64 -g -O0 -fpre-include=/usr/include/finclude/math-vector-fortran.h
REM seed -1275419006 -1513793058 -800937864 1957818773 1000928395 -1099799298 -1318470713 -2071789485 -952995585 -1907107174 -1094223908 -982621476 1644870088 1228987153 855986225 -918356360 1905167291 1943827376 -160949989 -497555184 1828127155 -954855621 1191492729 -1405160004 -445094660 -449004386 -1654997153 730917975 -1683130565 1198181273 2077071619 195918213 -1468619001
REM
CELL 1.54180   50.00000   50.00000   50.00000   90.00000   90.00000   90.00000
LATT -1
SFAC C  
C      1  0.5750890000000  0.4871850000000  0.5199760000000 1.0
C      1  0.4866670000000  0.5199610000000  0.5755940000000 1.0
C      1  0.5194450000000  0.5755820000000  0.4871750000000 1.0
C      1  0.4250310000000  0.4871620000000  0.4811170000000 1.0
C      1  0.4249740000000  0.5137580000000  0.5198970000000 1.0
C      1  0.5750860000000  0.5137750000000  0.4810860000000 1.0
C      1  0.5132770000000  0.5198770000000  0.4254860000000 1.0
C      1  0.5132710000000  0.4810800000000  0.5756020000000 1.0
C      1  0.4866940000000  0.4810880000000  0.4255410000000 1.0
C      1  0.4805580000000  0.5755790000000  0.5137690000000 1.0
C      1  0.4806240000000  0.4255150000000  0.4872070000000 1.0
C      1  0.5194070000000  0.4254760000000  0.5138000000000 1.0
C      1  0.4716600000000  0.5549060000000  0.5353110000000 1.0
C      1  0.5544080000000  0.5353100000000  0.4721810000000 1.0
C      1  0.5348130000000  0.4721800000000  0.5549300000000 1.0
C      1  0.5283220000000  0.5547990000000  0.4657880000000 1.0
C      1  0.5283340000000  0.4460950000000  0.5353670000000 1.0
C      1  0.4716010000000  0.4459470000000  0.4654560000000 1.0
C      1  0.4455840000000  0.5353330000000  0.5288280000000 1.0
C      1  0.4454730000000  0.4654170000000  0.4721010000000 1.0
C      1  0.5543110000000  0.4657920000000  0.5288500000000 1.0
C      1  0.4649470000000  0.4720660000000  0.4459770000000 1.0
C      1  0.4652760000000  0.5288250000000  0.5548110000000 1.0
C      1  0.5348440000000  0.5288170000000  0.4461000000000 1.0
C      1  0.5075810000000  0.4350300000000  0.4419750000000 1.0
C      1  0.4345550000000  0.4419350000000  0.5080810000000 1.0
C      1  0.4414560000000  0.5080370000000  0.4350500000000 1.0
C      1  0.4924920000000  0.4350840000000  0.5590030000000 1.0
C      1  0.4924060000000  0.5658770000000  0.4419670000000 1.0
C      1  0.5075490000000  0.5659210000000  0.5589770000000 1.0
C      1  0.5654060000000  0.4419710000000  0.4929380000000 1.0
C      1  0.5654060000000  0.5589830000000  0.5080700000000 1.0
C      1  0.4345730000000  0.5589620000000  0.4929810000000 1.0
C      1  0.5584710000000  0.5080790000000  0.5659300000000 1.0
C      1  0.5584880000000  0.4929770000000  0.4350990000000 1.0
C      1  0.4414650000000  0.4929070000000  0.5659030000000 1.0
C      1  0.4265110000000  0.4687560000000  0.5070740000000 1.0
C      1  0.4682790000000  0.5070390000000  0.4270130000000 1.0
C      1  0.5065790000000  0.4269950000000  0.4687980000000 1.0
C      1  0.5735390000000  0.4687740000000  0.4939770000000 1.0
C      1  0.5735460000000  0.5321870000000  0.5070830000000 1.0
C      1  0.4264440000000  0.5321710000000  0.4939330000000 1.0
C      1  0.5316740000000  0.5070830000000  0.5740640000000 1.0
C      1  0.5316990000000  0.4939190000000  0.4269630000000 1.0
C      1  0.4682650000000  0.4939560000000  0.5740420000000 1.0
C      1  0.4934440000000  0.4269460000000  0.5322150000000 1.0
C      1  0.4934460000000  0.5740190000000  0.4687670000000 1.0
C      1  0.5065570000000  0.5740520000000  0.5321790000000 1.0
C      1  0.4376630000000  0.4850280000000  0.5330350000000 1.0
C      1  0.4845390000000  0.5330070000000  0.4381670000000 1.0
C      1  0.5325390000000  0.4381590000000  0.4850640000000 1.0
C      1  0.5622960000000  0.4850880000000  0.4679630000000 1.0
C      1  0.5622970000000  0.5158990000000  0.5330520000000 1.0
C      1  0.4375470000000  0.5159280000000  0.4679020000000 1.0
C      1  0.5153800000000  0.5330450000000  0.5628080000000 1.0
C      1  0.5154620000000  0.4678840000000  0.4380640000000 1.0
C      1  0.4845900000000  0.4679460000000  0.5628050000000 1.0
C      1  0.4674080000000  0.4380370000000  0.5159700000000 1.0
C      1  0.4674350000000  0.5627750000000  0.4850870000000 1.0
C      1  0.5325270000000  0.5628030000000  0.5158930000000 1.0
C      1  0.5015610000000  0.4664440000000  0.5337170000000 1.0
C      1  0.4659390000000  0.5336880000000  0.5020600000000 1.0
C      1  0.5332030000000  0.5020510000000  0.4664580000000 1.0
C      1  0.4983600000000  0.4664740000000  0.4669590000000 1.0
C      1  0.4984990000000  0.5349050000000  0.5336250000000 1.0
C      1  0.5015920000000  0.5348980000000  0.4672060000000 1.0
C      1  0.5344010000000  0.5336190000000  0.4990150000000 1.0
C      1  0.5344170000000  0.4672010000000  0.5021140000000 1.0
C      1  0.4659930000000  0.4669300000000  0.4988660000000 1.0
C      1  0.4666990000000  0.5020880000000  0.5349190000000 1.0
C      1  0.4664460000000  0.4988330000000  0.4664950000000 1.0
C      1  0.5331180000000  0.4990120000000  0.5349200000000 1.0
C      1  0.4661390000000  0.5002740000000  0.5006910000000 1.0
C      1  0.4997890000000  0.5006700000000  0.4666500000000 1.0
C      1  0.5328940000000  0.5003840000000  0.5006290000000 1.0
C      1  0.4998830000000  0.5006140000000  0.5334040000000 1.0
C      1  0.5001890000000  0.4666320000000  0.5003030000000 1.0
C      1  0.5001100000000  0.5333870000000  0.5003910000000 1.0
C      1  0.4600030000000  0.5404090000000  0.4605470000000 1.0
C      1  0.4600500000000  0.4605000000000  0.5404440000000 1.0
C      1  0.5399400000000  0.4605390000000  0.4605270000000 1.0
C      1  0.5399390000000  0.5404550000000  0.5404560000000 1.0
C      1  0.4997340000000  0.5002270000000  0.5002440000000 1.0
END
