TITL C-2622955-8511-572 -0.00074366328603633 125000 -605.270367634715 0 0 113 (C1) n - 1
REM
REM in /nfs/bkarasulu/CARBON/AIRSS/Generating-Clusters/AIREBO/with-SteepDescent/Higher-Symm/SD-CG/HFTN-CG
REM
REM
REM
REM
REM
REM ./C.cell (b20cbc046b6831c77cfcea5457e17084)
REM
REM compiler GCC version 9.2.1 20190827 (Red Hat 9.2.1-1)
REM options -cpp -mtune=generic -march=x86-64 -g -O0 -fpre-include=/usr/include/finclude/math-vector-fortran.h
REM seed -797342244 -615657718 2140184123 -378496109 -25076112 2100538960 -1523691191 597083396 1309852322 -631659767 862275158 -62746867 -108024412 -1166383389 -127728022 1564066095 -1666160242 352162979 -1570502595 1257758407 -91028244 332756168 -1547296665 1567926280 -1319190847 1096050634 425840607 -1505025938 805725582 1813024960 -267298102 -2062781695 2031287295
REM
CELL 1.54180   50.00000   50.00000   50.00000   90.00000   90.00000   90.00000
LATT -1
SFAC C  
C      1  0.4815290000000  0.4882840000000  0.5635640000000 1.0
C      1  0.4843490000000  0.4399480000000  0.5333850000000 1.0
C      1  0.4762440000000  0.4374460000000  0.4773300000000 1.0
C      1  0.4791900000000  0.4800530000000  0.4345000000000 1.0
C      1  0.4771270000000  0.5360680000000  0.4446470000000 1.0
C      1  0.4941750000000  0.5782840000000  0.4957060000000 1.0
C      1  0.4796460000000  0.5548310000000  0.5489190000000 1.0
C      1  0.5650080000000  0.4942580000000  0.4553140000000 1.0
C      1  0.5560910000000  0.5227300000000  0.4714960000000 1.0
C      1  0.5511570000000  0.5302050000000  0.5034440000000 1.0
C      1  0.5525410000000  0.5232150000000  0.5360160000000 1.0
C      1  0.5579800000000  0.4901220000000  0.5423530000000 1.0
C      1  0.5610170000000  0.4722800000000  0.5174350000000 1.0
C      1  0.5570710000000  0.4658850000000  0.4723000000000 1.0
C      1  0.5050450000000  0.4205890000000  0.4718190000000 1.0
C      1  0.5067510000000  0.4721130000000  0.4179970000000 1.0
C      1  0.5060640000000  0.5428990000000  0.4321700000000 1.0
C      1  0.5260210000000  0.5941650000000  0.4963320000000 1.0
C      1  0.5082830000000  0.5649820000000  0.5637510000000 1.0
C      1  0.5081240000000  0.4887990000000  0.5836500000000 1.0
C      1  0.5122460000000  0.4265250000000  0.5429470000000 1.0
C      1  0.4542030000000  0.5275960000000  0.5096740000000 1.0
C      1  0.4580370000000  0.5220850000000  0.5417300000000 1.0
C      1  0.4424470000000  0.4755050000000  0.5400030000000 1.0
C      1  0.4506390000000  0.4762960000000  0.5084160000000 1.0
C      1  0.4533130000000  0.4752070000000  0.4748010000000 1.0
C      1  0.4462530000000  0.4956780000000  0.4507690000000 1.0
C      1  0.4616850000000  0.5407580000000  0.4812290000000 1.0
C      1  0.5312290000000  0.4481140000000  0.5479440000000 1.0
C      1  0.5239020000000  0.4267160000000  0.4938120000000 1.0
C      1  0.5247190000000  0.4618130000000  0.4401710000000 1.0
C      1  0.5248220000000  0.5210470000000  0.4351480000000 1.0
C      1  0.5215390000000  0.5639050000000  0.4814710000000 1.0
C      1  0.5292810000000  0.5706450000000  0.5410930000000 1.0
C      1  0.5222450000000  0.5160060000000  0.5768240000000 1.0
C      1  0.5231620000000  0.4992380000000  0.4106260000000 1.0
C      1  0.5184750000000  0.5688500000000  0.4486560000000 1.0
C      1  0.5176090000000  0.5927930000000  0.5245360000000 1.0
C      1  0.5092320000000  0.5415720000000  0.5843980000000 1.0
C      1  0.5262370000000  0.4618900000000  0.5770800000000 1.0
C      1  0.5158640000000  0.4105330000000  0.5174280000000 1.0
C      1  0.5201160000000  0.4300800000000  0.4447220000000 1.0
C      1  0.5576150000000  0.5281460000000  0.4296510000000 1.0
C      1  0.5556670000000  0.5638870000000  0.4823870000000 1.0
C      1  0.5598560000000  0.5711580000000  0.5349080000000 1.0
C      1  0.5679410000000  0.4976740000000  0.5802620000000 1.0
C      1  0.5633520000000  0.4435310000000  0.5451140000000 1.0
C      1  0.5554770000000  0.4288470000000  0.4878580000000 1.0
C      1  0.5575890000000  0.4622450000000  0.4326470000000 1.0
C      1  0.4840030000000  0.5180230000000  0.4693390000000 1.0
C      1  0.4927430000000  0.5240700000000  0.5002070000000 1.0
C      1  0.4904540000000  0.5269740000000  0.5326490000000 1.0
C      1  0.4961860000000  0.4936200000000  0.5360050000000 1.0
C      1  0.4949100000000  0.4649910000000  0.5177080000000 1.0
C      1  0.4834890000000  0.4667890000000  0.4880290000000 1.0
C      1  0.4887360000000  0.4891090000000  0.4629130000000 1.0
C      1  0.5523970000000  0.5187310000000  0.5697270000000 1.0
C      1  0.5584980000000  0.4682270000000  0.5683620000000 1.0
C      1  0.5696240000000  0.4402240000000  0.5118620000000 1.0
C      1  0.5517620000000  0.4370570000000  0.4550730000000 1.0
C      1  0.5527230000000  0.4946740000000  0.4250450000000 1.0
C      1  0.5460530000000  0.5496560000000  0.4533120000000 1.0
C      1  0.5699570000000  0.5566100000000  0.5092300000000 1.0
C      1  0.4667870000000  0.5917260000000  0.5398230000000 1.0
C      1  0.4602180000000  0.5267670000000  0.5878720000000 1.0
C      1  0.4703470000000  0.4419530000000  0.5707930000000 1.0
C      1  0.4632070000000  0.4013170000000  0.5068580000000 1.0
C      1  0.4635740000000  0.4366510000000  0.4263990000000 1.0
C      1  0.4656110000000  0.5153510000000  0.4047280000000 1.0
C      1  0.4672610000000  0.5838940000000  0.4559390000000 1.0
C      1  0.4890280000000  0.4997690000000  0.4094720000000 1.0
C      1  0.4857740000000  0.5684820000000  0.4409970000000 1.0
C      1  0.4888100000000  0.5940040000000  0.5253720000000 1.0
C      1  0.4790170000000  0.5448290000000  0.5809510000000 1.0
C      1  0.4920160000000  0.4598010000000  0.5754650000000 1.0
C      1  0.4852230000000  0.4085180000000  0.5205380000000 1.0
C      1  0.4858060000000  0.4301580000000  0.4460320000000 1.0
C      1  0.5221930000000  0.5378200000000  0.5384960000000 1.0
C      1  0.5252050000000  0.4968360000000  0.5484430000000 1.0
C      1  0.5276500000000  0.4716890000000  0.5239960000000 1.0
C      1  0.5309730000000  0.4599960000000  0.4922360000000 1.0
C      1  0.5192530000000  0.4774950000000  0.4667710000000 1.0
C      1  0.5257090000000  0.5087820000000  0.4644720000000 1.0
C      1  0.5209870000000  0.5313660000000  0.4886070000000 1.0
C      1  0.5932010000000  0.4648250000000  0.5130220000000 1.0
C      1  0.5906510000000  0.4673690000000  0.4695380000000 1.0
C      1  0.5987760000000  0.4900890000000  0.4560460000000 1.0
C      1  0.5884350000000  0.5309610000000  0.4713930000000 1.0
C      1  0.5978550000000  0.5533460000000  0.5080740000000 1.0
C      1  0.5849220000000  0.5331270000000  0.5391310000000 1.0
C      1  0.5874590000000  0.5065450000000  0.5465140000000 1.0
C      1  0.4402060000000  0.5641090000000  0.5053040000000 1.0
C      1  0.4305030000000  0.5396980000000  0.5392370000000 1.0
C      1  0.4276290000000  0.4903590000000  0.5655890000000 1.0
C      1  0.4379510000000  0.4454320000000  0.5149810000000 1.0
C      1  0.4349610000000  0.4475810000000  0.4753520000000 1.0
C      1  0.4270380000000  0.4748480000000  0.4338320000000 1.0
C      1  0.4402680000000  0.5339260000000  0.4600220000000 1.0
C      1  0.4555670000000  0.4451710000000  0.5441430000000 1.0
C      1  0.4500390000000  0.4250740000000  0.4923270000000 1.0
C      1  0.4550820000000  0.4627920000000  0.4281520000000 1.0
C      1  0.4523410000000  0.5219280000000  0.4325210000000 1.0
C      1  0.4660540000000  0.5719000000000  0.4846220000000 1.0
C      1  0.4503500000000  0.5650170000000  0.5365650000000 1.0
C      1  0.4563680000000  0.5041140000000  0.5668510000000 1.0
C      1  0.4134510000000  0.4924570000000  0.5347140000000 1.0
C      1  0.4120530000000  0.4676500000000  0.5137110000000 1.0
C      1  0.4150820000000  0.4683950000000  0.4842940000000 1.0
C      1  0.4149220000000  0.4895410000000  0.4624640000000 1.0
C      1  0.4171370000000  0.5205320000000  0.4724450000000 1.0
C      1  0.4237930000000  0.5346370000000  0.5001900000000 1.0
C      1  0.4092040000000  0.5213820000000  0.5265250000000 1.0
C      1  0.4674720000000  0.5012880000000  0.5013630000000 1.0
END
