TITL C-2622958-629-439 0.0058543987133315 125000 -1009.36322266663 0 0 190 (C1) n - 1
REM
REM in /nfs/bkarasulu/CARBON/AIRSS/Generating-Clusters/AIREBO/with-SteepDescent/Higher-Symm/SD-CG/HFTN-CG
REM
REM
REM
REM
REM
REM ./C.cell (b20cbc046b6831c77cfcea5457e17084)
REM
REM compiler GCC version 9.2.1 20190827 (Red Hat 9.2.1-1)
REM options -cpp -mtune=generic -march=x86-64 -g -O0 -fpre-include=/usr/include/finclude/math-vector-fortran.h
REM seed -1494418091 -2058538315 485700644 -1691098876 -1267572738 -58875871 951322278 -828838643 1657405905 655067234 1395800538 2108785187 -796338415 1950862969 1742362564 1035613362 985975163 1770437197 -453002329 834787118 1567781585 -1611208582 -812735250 27003149 -586859276 1751165920 -891877863 -948377229 545368357 -1152674355 900041201 1539388860 -1892984232
REM
CELL 1.54180   50.00000   50.00000   50.00000   90.00000   90.00000   90.00000
LATT -1
SFAC C  
C      1  0.5539470000000  0.5361310000000  0.4286670000000 1.0
C      1  0.4772540000000  0.5425670000000  0.4198430000000 1.0
C      1  0.4109010000000  0.5494980000000  0.4658110000000 1.0
C      1  0.4178400000000  0.5449590000000  0.5402020000000 1.0
C      1  0.4749490000000  0.5464920000000  0.5798130000000 1.0
C      1  0.5697360000000  0.5451290000000  0.5548630000000 1.0
C      1  0.5894740000000  0.5419580000000  0.5002400000000 1.0
C      1  0.4827700000000  0.4350280000000  0.4636100000000 1.0
C      1  0.4703010000000  0.4296090000000  0.4949480000000 1.0
C      1  0.4734150000000  0.4308650000000  0.5265910000000 1.0
C      1  0.5048310000000  0.4265090000000  0.5355260000000 1.0
C      1  0.5293650000000  0.4227140000000  0.5184530000000 1.0
C      1  0.5342530000000  0.4224380000000  0.4885680000000 1.0
C      1  0.5155150000000  0.4286140000000  0.4636720000000 1.0
C      1  0.4332380000000  0.5184220000000  0.4938520000000 1.0
C      1  0.4415550000000  0.5120020000000  0.5470760000000 1.0
C      1  0.5084960000000  0.5140720000000  0.5677150000000 1.0
C      1  0.5612850000000  0.5073840000000  0.5434840000000 1.0
C      1  0.5666100000000  0.5029980000000  0.4736240000000 1.0
C      1  0.5204640000000  0.5096400000000  0.4349670000000 1.0
C      1  0.4582720000000  0.5009900000000  0.4439800000000 1.0
C      1  0.4317760000000  0.4218820000000  0.5229740000000 1.0
C      1  0.4683550000000  0.4279110000000  0.5817850000000 1.0
C      1  0.5407540000000  0.4249380000000  0.5708330000000 1.0
C      1  0.5756850000000  0.4215560000000  0.5077420000000 1.0
C      1  0.5727300000000  0.4306530000000  0.4357700000000 1.0
C      1  0.4965180000000  0.4233370000000  0.4278630000000 1.0
C      1  0.4280040000000  0.4253810000000  0.4493930000000 1.0
C      1  0.5150360000000  0.5457340000000  0.5602910000000 1.0
C      1  0.5653520000000  0.5343350000000  0.5231190000000 1.0
C      1  0.5603300000000  0.5401680000000  0.4579810000000 1.0
C      1  0.5062370000000  0.5404840000000  0.4323830000000 1.0
C      1  0.4393530000000  0.5468800000000  0.4492230000000 1.0
C      1  0.4309940000000  0.5488340000000  0.5089050000000 1.0
C      1  0.4591140000000  0.5409820000000  0.5502620000000 1.0
C      1  0.4993480000000  0.6200650000000  0.4571000000000 1.0
C      1  0.4746250000000  0.6290310000000  0.4692780000000 1.0
C      1  0.4476090000000  0.6049400000000  0.5246800000000 1.0
C      1  0.4681040000000  0.6271180000000  0.5374130000000 1.0
C      1  0.5358690000000  0.6050520000000  0.5305850000000 1.0
C      1  0.5432080000000  0.6129860000000  0.5057260000000 1.0
C      1  0.5270370000000  0.6190590000000  0.4635580000000 1.0
C      1  0.5448370000000  0.4177390000000  0.4503120000000 1.0
C      1  0.4725830000000  0.4075440000000  0.4463750000000 1.0
C      1  0.4500790000000  0.4139060000000  0.4725750000000 1.0
C      1  0.4546090000000  0.4082660000000  0.5435900000000 1.0
C      1  0.4860890000000  0.4106430000000  0.5584690000000 1.0
C      1  0.5444500000000  0.4067120000000  0.5432020000000 1.0
C      1  0.5617760000000  0.4071160000000  0.4810780000000 1.0
C      1  0.5473520000000  0.5302620000000  0.3966270000000 1.0
C      1  0.4595940000000  0.5226100000000  0.4104890000000 1.0
C      1  0.3954980000000  0.5251290000000  0.4724940000000 1.0
C      1  0.4083830000000  0.5267100000000  0.5629460000000 1.0
C      1  0.4900010000000  0.5278790000000  0.6002740000000 1.0
C      1  0.5837520000000  0.5246860000000  0.5715840000000 1.0
C      1  0.6013710000000  0.5210280000000  0.4817150000000 1.0
C      1  0.6008500000000  0.4956850000000  0.4929230000000 1.0
C      1  0.5602600000000  0.5058650000000  0.4172640000000 1.0
C      1  0.4691830000000  0.4977410000000  0.4057560000000 1.0
C      1  0.3950260000000  0.5036630000000  0.4555850000000 1.0
C      1  0.4044580000000  0.4987370000000  0.5533230000000 1.0
C      1  0.4747180000000  0.5033690000000  0.6036320000000 1.0
C      1  0.5729930000000  0.4986910000000  0.5806760000000 1.0
C      1  0.5182790000000  0.4889270000000  0.3844800000000 1.0
C      1  0.4101400000000  0.5020700000000  0.4323480000000 1.0
C      1  0.3829540000000  0.4960100000000  0.5181090000000 1.0
C      1  0.4399840000000  0.4855870000000  0.5950280000000 1.0
C      1  0.5420990000000  0.5016640000000  0.6070640000000 1.0
C      1  0.6117230000000  0.4861750000000  0.5416090000000 1.0
C      1  0.5959130000000  0.4949070000000  0.4314440000000 1.0
C      1  0.5407340000000  0.4376920000000  0.4129650000000 1.0
C      1  0.4589390000000  0.4323650000000  0.4182840000000 1.0
C      1  0.4122440000000  0.4403340000000  0.4827410000000 1.0
C      1  0.4302790000000  0.4338200000000  0.5623630000000 1.0
C      1  0.5051980000000  0.4378060000000  0.5931450000000 1.0
C      1  0.5747560000000  0.4350390000000  0.5526260000000 1.0
C      1  0.5841270000000  0.4381420000000  0.4701480000000 1.0
C      1  0.5919430000000  0.4774350000000  0.4102380000000 1.0
C      1  0.5030160000000  0.4664840000000  0.3940560000000 1.0
C      1  0.4177250000000  0.4744510000000  0.4297420000000 1.0
C      1  0.3874800000000  0.4638030000000  0.5284680000000 1.0
C      1  0.4508570000000  0.4686740000000  0.6136870000000 1.0
C      1  0.5533360000000  0.4702190000000  0.6002550000000 1.0
C      1  0.6023250000000  0.4669230000000  0.5205950000000 1.0
C      1  0.4603550000000  0.5912790000000  0.5531870000000 1.0
C      1  0.5214680000000  0.5845080000000  0.5649450000000 1.0
C      1  0.5739590000000  0.5831230000000  0.5214450000000 1.0
C      1  0.5614070000000  0.5799270000000  0.4601120000000 1.0
C      1  0.5073010000000  0.5807770000000  0.4292670000000 1.0
C      1  0.4508890000000  0.5845260000000  0.4562040000000 1.0
C      1  0.4011310000000  0.5870610000000  0.5152270000000 1.0
C      1  0.5591190000000  0.5754450000000  0.4333640000000 1.0
C      1  0.4834150000000  0.5817140000000  0.4156400000000 1.0
C      1  0.4235640000000  0.5802100000000  0.4644810000000 1.0
C      1  0.4099260000000  0.5778050000000  0.5396440000000 1.0
C      1  0.4692580000000  0.5802020000000  0.5798510000000 1.0
C      1  0.5442810000000  0.5624190000000  0.5651190000000 1.0
C      1  0.5963970000000  0.5716100000000  0.5108510000000 1.0
C      1  0.5443050000000  0.4880970000000  0.5658140000000 1.0
C      1  0.5724050000000  0.4913860000000  0.5052230000000 1.0
C      1  0.5595800000000  0.4812830000000  0.4408260000000 1.0
C      1  0.4854600000000  0.4848070000000  0.4310900000000 1.0
C      1  0.4300570000000  0.4898530000000  0.4756800000000 1.0
C      1  0.4218350000000  0.4942980000000  0.5254960000000 1.0
C      1  0.4831740000000  0.4918350000000  0.5727760000000 1.0
C      1  0.5036290000000  0.5866500000000  0.4625560000000 1.0
C      1  0.4729170000000  0.5954370000000  0.4742320000000 1.0
C      1  0.4673950000000  0.5875460000000  0.5031140000000 1.0
C      1  0.4847430000000  0.5982690000000  0.5305470000000 1.0
C      1  0.5107880000000  0.5868050000000  0.5352320000000 1.0
C      1  0.5489640000000  0.5796130000000  0.5026710000000 1.0
C      1  0.5360120000000  0.5906140000000  0.4737870000000 1.0
C      1  0.5688210000000  0.5775170000000  0.5482940000000 1.0
C      1  0.5751440000000  0.5612620000000  0.4787610000000 1.0
C      1  0.5316730000000  0.5613010000000  0.4234610000000 1.0
C      1  0.4598820000000  0.5677500000000  0.4318760000000 1.0
C      1  0.4125410000000  0.5696450000000  0.4930790000000 1.0
C      1  0.4411120000000  0.5683480000000  0.5461250000000 1.0
C      1  0.4995300000000  0.5687420000000  0.5802030000000 1.0
C      1  0.5863640000000  0.4808170000000  0.4589950000000 1.0
C      1  0.5168000000000  0.4780340000000  0.4229140000000 1.0
C      1  0.4477490000000  0.4725420000000  0.4285700000000 1.0
C      1  0.4050080000000  0.4753560000000  0.5028020000000 1.0
C      1  0.4526140000000  0.4785990000000  0.5658790000000 1.0
C      1  0.5223160000000  0.4801990000000  0.5905510000000 1.0
C      1  0.5734780000000  0.4765640000000  0.5358100000000 1.0
C      1  0.6072960000000  0.4691740000000  0.4797480000000 1.0
C      1  0.5481640000000  0.4768380000000  0.4098320000000 1.0
C      1  0.4639690000000  0.4677120000000  0.4009370000000 1.0
C      1  0.4007890000000  0.4768210000000  0.4714090000000 1.0
C      1  0.4211140000000  0.4741780000000  0.5598700000000 1.0
C      1  0.4936200000000  0.4751590000000  0.6005110000000 1.0
C      1  0.5799370000000  0.4710460000000  0.5676460000000 1.0
C      1  0.5707360000000  0.4519370000000  0.4133610000000 1.0
C      1  0.4854480000000  0.4418000000000  0.4015470000000 1.0
C      1  0.4073350000000  0.4512880000000  0.4509230000000 1.0
C      1  0.4181010000000  0.4506860000000  0.5354670000000 1.0
C      1  0.4753110000000  0.4486230000000  0.6043160000000 1.0
C      1  0.5630860000000  0.4456280000000  0.5818320000000 1.0
C      1  0.5990290000000  0.4435310000000  0.4987960000000 1.0
C      1  0.5279970000000  0.5136870000000  0.5404010000000 1.0
C      1  0.5356690000000  0.5144620000000  0.4999250000000 1.0
C      1  0.5344160000000  0.5109440000000  0.4661030000000 1.0
C      1  0.4937470000000  0.5234940000000  0.4784780000000 1.0
C      1  0.4607570000000  0.5166260000000  0.4739150000000 1.0
C      1  0.4555840000000  0.5134280000000  0.5186470000000 1.0
C      1  0.4956160000000  0.5136560000000  0.5299830000000 1.0
C      1  0.4920830000000  0.4801930000000  0.5309030000000 1.0
C      1  0.5226230000000  0.4842590000000  0.5292510000000 1.0
C      1  0.5337120000000  0.4825910000000  0.5019230000000 1.0
C      1  0.5215450000000  0.4807850000000  0.4735320000000 1.0
C      1  0.4940280000000  0.4950650000000  0.4687240000000 1.0
C      1  0.4686100000000  0.4852170000000  0.4851510000000 1.0
C      1  0.4676120000000  0.4860270000000  0.5144460000000 1.0
C      1  0.5310060000000  0.5444910000000  0.4741000000000 1.0
C      1  0.4998260000000  0.5528650000000  0.4633970000000 1.0
C      1  0.4655080000000  0.5501500000000  0.4707100000000 1.0
C      1  0.4621010000000  0.5569620000000  0.5037530000000 1.0
C      1  0.4806160000000  0.5432340000000  0.5262630000000 1.0
C      1  0.5124780000000  0.5546730000000  0.5281690000000 1.0
C      1  0.5383880000000  0.5475840000000  0.5071530000000 1.0
C      1  0.4322630000000  0.5101820000000  0.5793890000000 1.0
C      1  0.5197300000000  0.5199920000000  0.5979940000000 1.0
C      1  0.5949410000000  0.5076480000000  0.5485730000000 1.0
C      1  0.5873260000000  0.5201370000000  0.4528070000000 1.0
C      1  0.5241820000000  0.5107570000000  0.4011690000000 1.0
C      1  0.4350920000000  0.5212160000000  0.4304760000000 1.0
C      1  0.3998940000000  0.5153190000000  0.4998390000000 1.0
C      1  0.4608330000000  0.4462920000000  0.5541860000000 1.0
C      1  0.5140710000000  0.4442740000000  0.5630070000000 1.0
C      1  0.5563020000000  0.4414480000000  0.5273910000000 1.0
C      1  0.5547350000000  0.4462900000000  0.4765200000000 1.0
C      1  0.5203730000000  0.4464790000000  0.4351370000000 1.0
C      1  0.4547400000000  0.4463410000000  0.4480050000000 1.0
C      1  0.4396920000000  0.4440140000000  0.4983990000000 1.0
C      1  0.5703990000000  0.4018370000000  0.5309810000000 1.0
C      1  0.5826730000000  0.4070990000000  0.4563550000000 1.0
C      1  0.5230460000000  0.4068250000000  0.4311380000000 1.0
C      1  0.4434050000000  0.4005090000000  0.4359510000000 1.0
C      1  0.4343920000000  0.4044820000000  0.4969590000000 1.0
C      1  0.4508090000000  0.4019700000000  0.5744630000000 1.0
C      1  0.5158450000000  0.4028080000000  0.5657410000000 1.0
C      1  0.5568570000000  0.4625030000000  0.5024260000000 1.0
C      1  0.5395520000000  0.4637620000000  0.4566750000000 1.0
C      1  0.4885590000000  0.4657690000000  0.4567430000000 1.0
C      1  0.4488220000000  0.4648620000000  0.4743920000000 1.0
C      1  0.4424560000000  0.4687200000000  0.5200450000000 1.0
C      1  0.4893780000000  0.4634710000000  0.5560590000000 1.0
C      1  0.5371480000000  0.4623310000000  0.5466090000000 1.0
C      1  0.5068880000000  0.5233830000000  0.5036810000000 1.0
END
