TITL C-2622960-5345-264 -0.000774039902461479 125000 -369.213035606798 0 0 68 (C1) n - 1
REM
REM in /nfs/bkarasulu/CARBON/AIRSS/Generating-Clusters/AIREBO/with-SteepDescent/Higher-Symm/SD-CG/HFTN-CG
REM
REM
REM
REM
REM
REM ./C.cell (b20cbc046b6831c77cfcea5457e17084)
REM
REM compiler GCC version 9.2.1 20190827 (Red Hat 9.2.1-1)
REM options -cpp -mtune=generic -march=x86-64 -g -O0 -fpre-include=/usr/include/finclude/math-vector-fortran.h
REM seed -1672852937 -1932735328 2036467372 59214091 -2099340046 1264823248 -1954215413 -287238573 -356407942 -1280440385 -369945743 1192757211 1716603215 490444324 459204742 975663508 -1274197094 -1109297800 1838730595 -462842452 -222584671 -1677705605 959685793 85160100 -1879037876 386179484 -744811223 -1976593532 -817892433 1081096646 -1108489577 226387499 633613250
REM
CELL 1.54180   50.00000   50.00000   50.00000   90.00000   90.00000   90.00000
LATT -1
SFAC C  
C      1  0.4897460000000  0.4765740000000  0.4259650000000 1.0
C      1  0.5317850000000  0.4999580000000  0.4332920000000 1.0
C      1  0.4877640000000  0.5241290000000  0.4305800000000 1.0
C      1  0.5136570000000  0.4771860000000  0.5626620000000 1.0
C      1  0.4742120000000  0.5016160000000  0.5746800000000 1.0
C      1  0.5168350000000  0.5256680000000  0.5685500000000 1.0
C      1  0.4925860000000  0.4277660000000  0.4787770000000 1.0
C      1  0.5703160000000  0.5321700000000  0.4861850000000 1.0
C      1  0.4373640000000  0.5420840000000  0.4890590000000 1.0
C      1  0.5018630000000  0.4216570000000  0.5018300000000 1.0
C      1  0.4344610000000  0.5293470000000  0.5105440000000 1.0
C      1  0.5730990000000  0.5402790000000  0.5102220000000 1.0
C      1  0.4576550000000  0.4350420000000  0.5422410000000 1.0
C      1  0.5721790000000  0.4995100000000  0.5333710000000 1.0
C      1  0.4561080000000  0.5649880000000  0.5397860000000 1.0
C      1  0.5309070000000  0.4344800000000  0.4695060000000 1.0
C      1  0.4334300000000  0.5009090000000  0.4694550000000 1.0
C      1  0.5306370000000  0.5640400000000  0.4683060000000 1.0
C      1  0.5431470000000  0.5275380000000  0.5587720000000 1.0
C      1  0.4601570000000  0.5207970000000  0.5571620000000 1.0
C      1  0.4999890000000  0.4549880000000  0.5530170000000 1.0
C      1  0.4617320000000  0.5231870000000  0.4411710000000 1.0
C      1  0.5418040000000  0.5218370000000  0.4476230000000 1.0
C      1  0.5010350000000  0.4568540000000  0.4436340000000 1.0
C      1  0.5461360000000  0.5053060000000  0.5122760000000 1.0
C      1  0.4717480000000  0.5439420000000  0.5187810000000 1.0
C      1  0.4727250000000  0.4567650000000  0.5206380000000 1.0
C      1  0.4517070000000  0.4963550000000  0.4959180000000 1.0
C      1  0.5162580000000  0.5385900000000  0.4854930000000 1.0
C      1  0.5192920000000  0.4564710000000  0.4926990000000 1.0
C      1  0.4897880000000  0.5672700000000  0.4692760000000 1.0
C      1  0.4533110000000  0.4528380000000  0.4649210000000 1.0
C      1  0.5688210000000  0.4777010000000  0.4695540000000 1.0
C      1  0.5093690000000  0.5642460000000  0.5327120000000 1.0
C      1  0.5521950000000  0.4590310000000  0.5331220000000 1.0
C      1  0.4339180000000  0.4836800000000  0.5433750000000 1.0
C      1  0.5444730000000  0.4744240000000  0.4469410000000 1.0
C      1  0.5015380000000  0.5462810000000  0.4475550000000 1.0
C      1  0.4661440000000  0.4761370000000  0.4467210000000 1.0
C      1  0.4625720000000  0.4810260000000  0.5542270000000 1.0
C      1  0.4987690000000  0.5490160000000  0.5586670000000 1.0
C      1  0.5386990000000  0.4824700000000  0.5466960000000 1.0
C      1  0.4912400000000  0.4614240000000  0.4740790000000 1.0
C      1  0.5409990000000  0.5161080000000  0.4804250000000 1.0
C      1  0.4597760000000  0.5412370000000  0.4659290000000 1.0
C      1  0.5041460000000  0.4472460000000  0.5217260000000 1.0
C      1  0.4603870000000  0.5124210000000  0.5246160000000 1.0
C      1  0.5473800000000  0.5353900000000  0.5280870000000 1.0
C      1  0.4837480000000  0.4880200000000  0.5285490000000 1.0
C      1  0.5160300000000  0.4988900000000  0.5273350000000 1.0
C      1  0.4968380000000  0.5262870000000  0.5334460000000 1.0
C      1  0.5300670000000  0.4841920000000  0.4761510000000 1.0
C      1  0.4776520000000  0.4926340000000  0.4741550000000 1.0
C      1  0.4890510000000  0.5245400000000  0.4705370000000 1.0
C      1  0.4681520000000  0.5473760000000  0.5595330000000 1.0
C      1  0.4725740000000  0.4529000000000  0.5602600000000 1.0
C      1  0.5586720000000  0.5032310000000  0.5595290000000 1.0
C      1  0.5319150000000  0.5474860000000  0.4432560000000 1.0
C      1  0.5278780000000  0.4488380000000  0.4453970000000 1.0
C      1  0.4478220000000  0.5002070000000  0.4461320000000 1.0
C      1  0.4287860000000  0.4886450000000  0.5192380000000 1.0
C      1  0.5476070000000  0.4503730000000  0.5102270000000 1.0
C      1  0.5240350000000  0.5492690000000  0.5152350000000 1.0
C      1  0.5661100000000  0.4852680000000  0.4933930000000 1.0
C      1  0.4641340000000  0.4537320000000  0.4924490000000 1.0
C      1  0.4750510000000  0.5551320000000  0.4919480000000 1.0
C      1  0.5027840000000  0.5011390000000  0.5733320000000 1.0
C      1  0.5038960000000  0.5010850000000  0.4257880000000 1.0
END
