TITL C-2622960-5345-697 -0.000728750266391131 125000 -617.745502625059 0 0 108 (C1) n - 1
REM
REM in /nfs/bkarasulu/CARBON/AIRSS/Generating-Clusters/AIREBO/with-SteepDescent/Higher-Symm/SD-CG/HFTN-CG
REM
REM
REM
REM
REM
REM ./C.cell (b20cbc046b6831c77cfcea5457e17084)
REM
REM compiler GCC version 9.2.1 20190827 (Red Hat 9.2.1-1)
REM options -cpp -mtune=generic -march=x86-64 -g -O0 -fpre-include=/usr/include/finclude/math-vector-fortran.h
REM seed 1893987310 1555160654 -1062578531 564986210 155395433 -1525121166 -223187515 1554446148 -1772340986 1474529704 -1343316361 -338053940 1759138347 -919246114 1434675932 1860161000 2145871638 -1050609877 602251872 351057204 32621011 840213369 321235125 -222984818 -1916211154 536428737 -460626049 798657434 85607660 -366726110 1296771786 125565936 1723478409
REM
CELL 1.54180   50.00000   50.00000   50.00000   90.00000   90.00000   90.00000
LATT -1
SFAC C  
C      1  0.5882430000000  0.5056230000000  0.5504810000000 1.0
C      1  0.5918020000000  0.5329410000000  0.4718410000000 1.0
C      1  0.5924720000000  0.4641070000000  0.4842560000000 1.0
C      1  0.3989100000000  0.4827520000000  0.4432920000000 1.0
C      1  0.4191470000000  0.5429550000000  0.5177550000000 1.0
C      1  0.4079870000000  0.4621790000000  0.5157360000000 1.0
C      1  0.4834910000000  0.4857260000000  0.4713400000000 1.0
C      1  0.4794410000000  0.4829620000000  0.5241260000000 1.0
C      1  0.4811630000000  0.5399620000000  0.4905140000000 1.0
C      1  0.5135150000000  0.4820260000000  0.5282950000000 1.0
C      1  0.5162240000000  0.4873250000000  0.4737990000000 1.0
C      1  0.5137740000000  0.5360150000000  0.4956420000000 1.0
C      1  0.4833080000000  0.5524920000000  0.5197400000000 1.0
C      1  0.4781090000000  0.4895360000000  0.4379770000000 1.0
C      1  0.4752490000000  0.4401040000000  0.5407230000000 1.0
C      1  0.5201210000000  0.5625070000000  0.4752890000000 1.0
C      1  0.5252990000000  0.4875540000000  0.5597060000000 1.0
C      1  0.5324130000000  0.4369920000000  0.4595260000000 1.0
C      1  0.5489290000000  0.5116470000000  0.5638760000000 1.0
C      1  0.5527310000000  0.5588710000000  0.4688420000000 1.0
C      1  0.5583040000000  0.4450730000000  0.4728710000000 1.0
C      1  0.4462000000000  0.4984420000000  0.4336200000000 1.0
C      1  0.4575510000000  0.5644710000000  0.5338040000000 1.0
C      1  0.4508980000000  0.4515250000000  0.5277710000000 1.0
C      1  0.4988790000000  0.5437390000000  0.5480780000000 1.0
C      1  0.4897960000000  0.5215400000000  0.4362960000000 1.0
C      1  0.4945560000000  0.4293830000000  0.5147960000000 1.0
C      1  0.5059820000000  0.5486110000000  0.4473290000000 1.0
C      1  0.5103920000000  0.5179960000000  0.5570400000000 1.0
C      1  0.5116350000000  0.4289670000000  0.4853540000000 1.0
C      1  0.4428600000000  0.5773620000000  0.4899420000000 1.0
C      1  0.4442100000000  0.4537780000000  0.4501620000000 1.0
C      1  0.4410840000000  0.4828400000000  0.5623800000000 1.0
C      1  0.5566690000000  0.5638920000000  0.5142830000000 1.0
C      1  0.5511170000000  0.4584310000000  0.5492960000000 1.0
C      1  0.5562100000000  0.4770180000000  0.4340110000000 1.0
C      1  0.5343740000000  0.5836360000000  0.4977550000000 1.0
C      1  0.5319040000000  0.4530920000000  0.4334440000000 1.0
C      1  0.5286910000000  0.4584940000000  0.5737310000000 1.0
C      1  0.4705610000000  0.5962400000000  0.4957060000000 1.0
C      1  0.4620000000000  0.4557730000000  0.5678490000000 1.0
C      1  0.4676480000000  0.4592630000000  0.4264330000000 1.0
C      1  0.5307940000000  0.4753200000000  0.5011390000000 1.0
C      1  0.5047370000000  0.5132070000000  0.5179580000000 1.0
C      1  0.5311560000000  0.5161900000000  0.4740960000000 1.0
C      1  0.4667180000000  0.4729740000000  0.4980370000000 1.0
C      1  0.4679460000000  0.5151930000000  0.4782230000000 1.0
C      1  0.4737890000000  0.5155910000000  0.5318400000000 1.0
C      1  0.4299080000000  0.4374550000000  0.4723500000000 1.0
C      1  0.4317130000000  0.5124720000000  0.5649550000000 1.0
C      1  0.4309670000000  0.5527590000000  0.4727490000000 1.0
C      1  0.5750680000000  0.4480990000000  0.5290280000000 1.0
C      1  0.5698800000000  0.5058710000000  0.4337730000000 1.0
C      1  0.5683150000000  0.5522870000000  0.5418340000000 1.0
C      1  0.5241350000000  0.4834080000000  0.4424320000000 1.0
C      1  0.5213610000000  0.4504260000000  0.5354820000000 1.0
C      1  0.5267490000000  0.5525770000000  0.5209530000000 1.0
C      1  0.4735610000000  0.4831990000000  0.5552680000000 1.0
C      1  0.4749860000000  0.4534950000000  0.4646170000000 1.0
C      1  0.4738190000000  0.5679820000000  0.4794660000000 1.0
C      1  0.5111150000000  0.4405420000000  0.4155410000000 1.0
C      1  0.5088850000000  0.4380800000000  0.5714070000000 1.0
C      1  0.5146330000000  0.5934010000000  0.5166690000000 1.0
C      1  0.4843540000000  0.4393950000000  0.5832070000000 1.0
C      1  0.4874780000000  0.4385110000000  0.4288170000000 1.0
C      1  0.4917340000000  0.6070040000000  0.5075860000000 1.0
C      1  0.4502820000000  0.4220180000000  0.4842810000000 1.0
C      1  0.4524770000000  0.5283710000000  0.5766530000000 1.0
C      1  0.4431060000000  0.5478560000000  0.4480310000000 1.0
C      1  0.5528030000000  0.4307860000000  0.5204940000000 1.0
C      1  0.5512710000000  0.5254880000000  0.4257410000000 1.0
C      1  0.5490330000000  0.5439600000000  0.5606190000000 1.0
C      1  0.5120330000000  0.5031600000000  0.4229800000000 1.0
C      1  0.5100350000000  0.4210150000000  0.5438920000000 1.0
C      1  0.5119030000000  0.5738000000000  0.5414710000000 1.0
C      1  0.4894280000000  0.5010170000000  0.5730350000000 1.0
C      1  0.4909900000000  0.4257930000000  0.4590670000000 1.0
C      1  0.4825780000000  0.5700420000000  0.4508230000000 1.0
C      1  0.4283250000000  0.4808960000000  0.4493670000000 1.0
C      1  0.4312710000000  0.4727720000000  0.5334850000000 1.0
C      1  0.4350420000000  0.5668670000000  0.5184680000000 1.0
C      1  0.5619360000000  0.4873380000000  0.5439700000000 1.0
C      1  0.5707240000000  0.4716120000000  0.4616240000000 1.0
C      1  0.5708380000000  0.5464890000000  0.4909720000000 1.0
C      1  0.5620280000000  0.5243390000000  0.5141170000000 1.0
C      1  0.5588110000000  0.4987550000000  0.4779180000000 1.0
C      1  0.5597720000000  0.4906400000000  0.5101960000000 1.0
C      1  0.4412680000000  0.5074590000000  0.4930310000000 1.0
C      1  0.4442280000000  0.5019270000000  0.5237950000000 1.0
C      1  0.4374570000000  0.4785420000000  0.4808110000000 1.0
C      1  0.4228030000000  0.5322610000000  0.4909140000000 1.0
C      1  0.4165880000000  0.4567500000000  0.4905980000000 1.0
C      1  0.4245850000000  0.5229880000000  0.5378050000000 1.0
C      1  0.5861940000000  0.5291290000000  0.5361460000000 1.0
C      1  0.5823700000000  0.4668360000000  0.5093360000000 1.0
C      1  0.5811130000000  0.5110910000000  0.4594000000000 1.0
C      1  0.5293940000000  0.5616990000000  0.5666310000000 1.0
C      1  0.5310640000000  0.5162260000000  0.4082940000000 1.0
C      1  0.5392190000000  0.4122670000000  0.5346410000000 1.0
C      1  0.4593570000000  0.5679690000000  0.4359500000000 1.0
C      1  0.4731330000000  0.5145270000000  0.5907900000000 1.0
C      1  0.4668790000000  0.4073980000000  0.4679650000000 1.0
C      1  0.4660360000000  0.4397170000000  0.5021150000000 1.0
C      1  0.4661100000000  0.5402510000000  0.5529430000000 1.0
C      1  0.4590410000000  0.5227540000000  0.4485950000000 1.0
C      1  0.5381570000000  0.4448400000000  0.4979760000000 1.0
C      1  0.5375480000000  0.5374780000000  0.4498670000000 1.0
C      1  0.5351200000000  0.5155990000000  0.5330560000000 1.0
END
