TITL C-2622964-2985-551 0.00250832571592632 125000 -941.662796735303 0 0 179 (C1) n - 1
REM
REM in /nfs/bkarasulu/CARBON/AIRSS/Generating-Clusters/AIREBO/with-SteepDescent/Higher-Symm/SD-CG/HFTN-CG
REM
REM
REM
REM
REM
REM ./C.cell (b20cbc046b6831c77cfcea5457e17084)
REM
REM compiler GCC version 9.2.1 20190827 (Red Hat 9.2.1-1)
REM options -cpp -mtune=generic -march=x86-64 -g -O0 -fpre-include=/usr/include/finclude/math-vector-fortran.h
REM seed -752756577 -1724329955 1076371397 -712620050 -1611279166 -643966504 -1603309821 -691558431 -1297484034 1056237951 -687813742 -1743475686 -1233058809 1055405485 -282497808 2076678517 714578479 -2128550162 1657646698 -1260348740 92551091 -297201840 -1235135509 1508528695 -341092393 1305089231 1283490087 1023438665 -5834089 325944589 181910645 1449009947 1009149610
REM
CELL 1.54180   50.00000   50.00000   50.00000   90.00000   90.00000   90.00000
LATT -1
SFAC C  
C      1  0.5426060000000  0.5768940000000  0.4478700000000 1.0
C      1  0.5378060000000  0.4322020000000  0.5709560000000 1.0
C      1  0.4602330000000  0.5838700000000  0.5572320000000 1.0
C      1  0.4694610000000  0.4244470000000  0.4266230000000 1.0
C      1  0.5426300000000  0.4482020000000  0.5933360000000 1.0
C      1  0.5470460000000  0.5595900000000  0.4231930000000 1.0
C      1  0.4559020000000  0.5582000000000  0.5791090000000 1.0
C      1  0.4611400000000  0.4540070000000  0.4204560000000 1.0
C      1  0.5245170000000  0.4323010000000  0.4394500000000 1.0
C      1  0.4832290000000  0.5596740000000  0.5507250000000 1.0
C      1  0.4792200000000  0.4521770000000  0.5504850000000 1.0
C      1  0.4893510000000  0.5672410000000  0.4573610000000 1.0
C      1  0.5245360000000  0.4497750000000  0.4125410000000 1.0
C      1  0.5119420000000  0.5532210000000  0.5678760000000 1.0
C      1  0.4859520000000  0.5556490000000  0.4253360000000 1.0
C      1  0.4760290000000  0.4518890000000  0.5843450000000 1.0
C      1  0.4080000000000  0.5716440000000  0.5174910000000 1.0
C      1  0.4088500000000  0.4270250000000  0.4889200000000 1.0
C      1  0.5884450000000  0.5695050000000  0.4861910000000 1.0
C      1  0.5873980000000  0.4212580000000  0.5079810000000 1.0
C      1  0.4042100000000  0.5142430000000  0.5799240000000 1.0
C      1  0.4111640000000  0.4792080000000  0.4301660000000 1.0
C      1  0.5878770000000  0.4762060000000  0.5707560000000 1.0
C      1  0.5918470000000  0.5192730000000  0.4276290000000 1.0
C      1  0.4020210000000  0.5551180000000  0.4666770000000 1.0
C      1  0.4055240000000  0.4473120000000  0.5355790000000 1.0
C      1  0.5968980000000  0.5495200000000  0.5341910000000 1.0
C      1  0.5882410000000  0.4383920000000  0.4573110000000 1.0
C      1  0.4023020000000  0.4651160000000  0.5633160000000 1.0
C      1  0.4012110000000  0.5289860000000  0.4447320000000 1.0
C      1  0.5958660000000  0.5219670000000  0.5522580000000 1.0
C      1  0.5961450000000  0.4659250000000  0.4388100000000 1.0
C      1  0.5363080000000  0.4785440000000  0.5046790000000 1.0
C      1  0.5405020000000  0.5180320000000  0.5015870000000 1.0
C      1  0.4656710000000  0.4788170000000  0.5037700000000 1.0
C      1  0.4646230000000  0.5187500000000  0.4996260000000 1.0
C      1  0.5403600000000  0.4949480000000  0.4760010000000 1.0
C      1  0.5563890000000  0.4964560000000  0.5225180000000 1.0
C      1  0.4689520000000  0.4973820000000  0.4735320000000 1.0
C      1  0.4566850000000  0.4999160000000  0.5245130000000 1.0
C      1  0.4837610000000  0.4860800000000  0.5916500000000 1.0
C      1  0.4901070000000  0.5220910000000  0.4217430000000 1.0
C      1  0.5225270000000  0.4781630000000  0.4272560000000 1.0
C      1  0.5105800000000  0.5204720000000  0.5769670000000 1.0
C      1  0.4685610000000  0.5738540000000  0.4824170000000 1.0
C      1  0.4932840000000  0.4253470000000  0.5084340000000 1.0
C      1  0.5159030000000  0.4211060000000  0.4696710000000 1.0
C      1  0.5089490000000  0.5662580000000  0.5095460000000 1.0
C      1  0.4570790000000  0.4216970000000  0.5664610000000 1.0
C      1  0.4628910000000  0.5829830000000  0.4429240000000 1.0
C      1  0.5476840000000  0.4097880000000  0.4302410000000 1.0
C      1  0.5562690000000  0.5746500000000  0.5452700000000 1.0
C      1  0.4544070000000  0.5604400000000  0.4211070000000 1.0
C      1  0.4481730000000  0.4397170000000  0.5884540000000 1.0
C      1  0.5535680000000  0.4384270000000  0.4128160000000 1.0
C      1  0.5431840000000  0.5558860000000  0.5617530000000 1.0
C      1  0.5049690000000  0.4765940000000  0.5102000000000 1.0
C      1  0.5195460000000  0.5331770000000  0.4804910000000 1.0
C      1  0.4986820000000  0.4562030000000  0.4837250000000 1.0
C      1  0.4931540000000  0.5319590000000  0.4971180000000 1.0
C      1  0.5145620000000  0.5238510000000  0.4532710000000 1.0
C      1  0.5028980000000  0.4854970000000  0.5418250000000 1.0
C      1  0.4895080000000  0.4757590000000  0.4581450000000 1.0
C      1  0.4707500000000  0.5196710000000  0.5445090000000 1.0
C      1  0.5839420000000  0.4604790000000  0.5479310000000 1.0
C      1  0.5760550000000  0.5381360000000  0.4421570000000 1.0
C      1  0.4251230000000  0.4568930000000  0.4518530000000 1.0
C      1  0.4161900000000  0.5340480000000  0.5563340000000 1.0
C      1  0.5750470000000  0.5570060000000  0.4646510000000 1.0
C      1  0.5715430000000  0.4321870000000  0.5362950000000 1.0
C      1  0.4260070000000  0.4295110000000  0.4666760000000 1.0
C      1  0.4237830000000  0.5591930000000  0.5368250000000 1.0
C      1  0.4499160000000  0.5930740000000  0.5261620000000 1.0
C      1  0.4493690000000  0.4135660000000  0.4730470000000 1.0
C      1  0.5438010000000  0.5951170000000  0.4774110000000 1.0
C      1  0.5506090000000  0.4114730000000  0.5189930000000 1.0
C      1  0.4485150000000  0.5330340000000  0.6012290000000 1.0
C      1  0.4432640000000  0.4731490000000  0.4007820000000 1.0
C      1  0.5583820000000  0.4718950000000  0.6043700000000 1.0
C      1  0.5477470000000  0.5322800000000  0.3978310000000 1.0
C      1  0.5552260000000  0.4010800000000  0.4934110000000 1.0
C      1  0.5522040000000  0.5911070000000  0.5048750000000 1.0
C      1  0.4475760000000  0.4066270000000  0.5012520000000 1.0
C      1  0.4382560000000  0.6006530000000  0.5011110000000 1.0
C      1  0.5608580000000  0.5069350000000  0.3986610000000 1.0
C      1  0.5562290000000  0.4995330000000  0.5975480000000 1.0
C      1  0.4439990000000  0.5001000000000  0.4046410000000 1.0
C      1  0.4396880000000  0.5029990000000  0.6047470000000 1.0
C      1  0.4868160000000  0.4122930000000  0.4436740000000 1.0
C      1  0.4865640000000  0.5977460000000  0.5407910000000 1.0
C      1  0.5146270000000  0.4192530000000  0.5570860000000 1.0
C      1  0.5151410000000  0.5968080000000  0.4501480000000 1.0
C      1  0.4826950000000  0.4689450000000  0.4041940000000 1.0
C      1  0.4772730000000  0.5510620000000  0.6033050000000 1.0
C      1  0.5304970000000  0.5639080000000  0.3977270000000 1.0
C      1  0.5192720000000  0.4644840000000  0.6011910000000 1.0
C      1  0.4806360000000  0.5199080000000  0.5930630000000 1.0
C      1  0.4955050000000  0.4897910000000  0.4186420000000 1.0
C      1  0.5201130000000  0.5285520000000  0.4127760000000 1.0
C      1  0.5155940000000  0.4868310000000  0.5797280000000 1.0
C      1  0.4776460000000  0.5768090000000  0.5150610000000 1.0
C      1  0.4826360000000  0.4197540000000  0.4765960000000 1.0
C      1  0.5201240000000  0.4196540000000  0.5262160000000 1.0
C      1  0.5155960000000  0.5760970000000  0.4771210000000 1.0
C      1  0.5582340000000  0.6006990000000  0.5544090000000 1.0
C      1  0.5721860000000  0.4007890000000  0.4465870000000 1.0
C      1  0.4361020000000  0.5868830000000  0.4581910000000 1.0
C      1  0.4398920000000  0.4153460000000  0.5454320000000 1.0
C      1  0.5586690000000  0.5374470000000  0.5739090000000 1.0
C      1  0.5719010000000  0.4585940000000  0.4081780000000 1.0
C      1  0.4291220000000  0.4566140000000  0.5967350000000 1.0
C      1  0.4364110000000  0.5407070000000  0.4191150000000 1.0
C      1  0.5293570000000  0.4733430000000  0.5533960000000 1.0
C      1  0.5437200000000  0.5288080000000  0.4372560000000 1.0
C      1  0.4577750000000  0.4661930000000  0.4499490000000 1.0
C      1  0.4490440000000  0.5368830000000  0.5579690000000 1.0
C      1  0.5425370000000  0.5554930000000  0.4745190000000 1.0
C      1  0.5398610000000  0.4443160000000  0.5388250000000 1.0
C      1  0.4662010000000  0.4495180000000  0.4772560000000 1.0
C      1  0.4569910000000  0.5541210000000  0.5297550000000 1.0
C      1  0.5860100000000  0.4797520000000  0.5222710000000 1.0
C      1  0.5856440000000  0.5065540000000  0.4647500000000 1.0
C      1  0.4151970000000  0.4841940000000  0.4695220000000 1.0
C      1  0.4193970000000  0.5051040000000  0.5443500000000 1.0
C      1  0.5868620000000  0.5257120000000  0.4924180000000 1.0
C      1  0.5797770000000  0.4529050000000  0.5032260000000 1.0
C      1  0.4201610000000  0.4775290000000  0.4980840000000 1.0
C      1  0.4176480000000  0.5288150000000  0.5025370000000 1.0
C      1  0.5013260000000  0.4522650000000  0.3926240000000 1.0
C      1  0.5022790000000  0.5639030000000  0.5970260000000 1.0
C      1  0.4965000000000  0.4516690000000  0.6074950000000 1.0
C      1  0.5037870000000  0.5677910000000  0.4017850000000 1.0
C      1  0.5147230000000  0.4008970000000  0.4347620000000 1.0
C      1  0.5035740000000  0.6164790000000  0.5447900000000 1.0
C      1  0.4901970000000  0.6030010000000  0.4398000000000 1.0
C      1  0.4872170000000  0.4211060000000  0.5617390000000 1.0
C      1  0.4819170000000  0.4534950000000  0.5197610000000 1.0
C      1  0.4619930000000  0.5414430000000  0.4744400000000 1.0
C      1  0.5300710000000  0.4482590000000  0.4793670000000 1.0
C      1  0.5158480000000  0.5346280000000  0.5201900000000 1.0
C      1  0.4820510000000  0.5228480000000  0.4547680000000 1.0
C      1  0.4741510000000  0.4827710000000  0.5594670000000 1.0
C      1  0.5234600000000  0.4731420000000  0.4578050000000 1.0
C      1  0.5020770000000  0.5178540000000  0.5441510000000 1.0
C      1  0.4249110000000  0.5102970000000  0.4290760000000 1.0
C      1  0.4229690000000  0.4858910000000  0.5805750000000 1.0
C      1  0.5731010000000  0.5068320000000  0.5706770000000 1.0
C      1  0.5772200000000  0.4889960000000  0.4224830000000 1.0
C      1  0.4274590000000  0.4288410000000  0.5173250000000 1.0
C      1  0.4216340000000  0.5748300000000  0.4865020000000 1.0
C      1  0.5742850000000  0.5683180000000  0.5170990000000 1.0
C      1  0.5798630000000  0.4123350000000  0.4760380000000 1.0
C      1  0.5355280000000  0.5177670000000  0.5999190000000 1.0
C      1  0.5425100000000  0.4848590000000  0.4030800000000 1.0
C      1  0.4645990000000  0.5174520000000  0.4004660000000 1.0
C      1  0.4603890000000  0.4870380000000  0.6150490000000 1.0
C      1  0.5289230000000  0.5891450000000  0.5197320000000 1.0
C      1  0.5326480000000  0.3966460000000  0.4786580000000 1.0
C      1  0.4720030000000  0.4014400000000  0.5116480000000 1.0
C      1  0.4601850000000  0.6068060000000  0.4826970000000 1.0
C      1  0.3953780000000  0.4852940000000  0.5415710000000 1.0
C      1  0.3938770000000  0.5061640000000  0.4664410000000 1.0
C      1  0.6055820000000  0.4822650000000  0.4632100000000 1.0
C      1  0.6076220000000  0.5020810000000  0.5317590000000 1.0
C      1  0.3975030000000  0.5310040000000  0.4840380000000 1.0
C      1  0.3962010000000  0.4697580000000  0.5162270000000 1.0
C      1  0.5949730000000  0.4585750000000  0.4778020000000 1.0
C      1  0.6072680000000  0.5279050000000  0.5147940000000 1.0
C      1  0.4434870000000  0.4544840000000  0.5017410000000 1.0
C      1  0.4412370000000  0.5504380000000  0.4998230000000 1.0
C      1  0.5483410000000  0.4510150000000  0.5065730000000 1.0
C      1  0.5618440000000  0.5422430000000  0.4994020000000 1.0
C      1  0.4416600000000  0.4972310000000  0.4556240000000 1.0
C      1  0.4452760000000  0.4908280000000  0.5552360000000 1.0
C      1  0.5586010000000  0.5004030000000  0.4485650000000 1.0
C      1  0.5503330000000  0.4951810000000  0.5509370000000 1.0
C      1  0.4181710000000  0.5040140000000  0.5146430000000 1.0
C      1  0.5839430000000  0.4933860000000  0.4938030000000 1.0
C      1  0.5008210000000  0.5026720000000  0.4983280000000 1.0
END
