TITL C-2622960-5345-438 -0.00386987813548879 125000 -1098.42399217187 0 0 196 (C1) n - 1
REM
REM in /nfs/bkarasulu/CARBON/AIRSS/Generating-Clusters/AIREBO/with-SteepDescent/Higher-Symm/SD-CG/HFTN-CG
REM
REM
REM
REM
REM
REM ./C.cell (b20cbc046b6831c77cfcea5457e17084)
REM
REM compiler GCC version 9.2.1 20190827 (Red Hat 9.2.1-1)
REM options -cpp -mtune=generic -march=x86-64 -g -O0 -fpre-include=/usr/include/finclude/math-vector-fortran.h
REM seed 305957823 1700174605 877598763 -381600692 -1614811180 1797091953 -36143869 -1686084904 -131803174 362389262 -557468474 -704903491 -167558534 -593994259 989774643 1889080905 499304891 785177363 -304713362 1832301275 -122045374 -370484645 -2117569417 457964546 -551003482 -1375640091 1508658222 -1053051514 1683254703 -1551536299 1559545832 -858830817 1959622383
REM
CELL 1.54180   50.00000   50.00000   50.00000   90.00000   90.00000   90.00000
LATT -1
SFAC C  
C      1  0.4725190000000  0.5035040000000  0.4842160000000 1.0
C      1  0.4593560000000  0.4746430000000  0.4819960000000 1.0
C      1  0.4968370000000  0.4500480000000  0.4869300000000 1.0
C      1  0.5315870000000  0.4695960000000  0.4854870000000 1.0
C      1  0.5461300000000  0.5164790000000  0.4794200000000 1.0
C      1  0.5156230000000  0.5414590000000  0.4790200000000 1.0
C      1  0.4748530000000  0.5496740000000  0.4931840000000 1.0
C      1  0.4282610000000  0.4713290000000  0.4921840000000 1.0
C      1  0.4829570000000  0.4208010000000  0.4976010000000 1.0
C      1  0.5478330000000  0.4443520000000  0.5014680000000 1.0
C      1  0.5764330000000  0.5036790000000  0.5017990000000 1.0
C      1  0.5451940000000  0.5553710000000  0.4884350000000 1.0
C      1  0.4807800000000  0.5830440000000  0.4950090000000 1.0
C      1  0.4250800000000  0.5318180000000  0.4974830000000 1.0
C      1  0.4369060000000  0.5648130000000  0.5631990000000 1.0
C      1  0.3966960000000  0.4915230000000  0.5622660000000 1.0
C      1  0.4468740000000  0.4270640000000  0.5716770000000 1.0
C      1  0.5244220000000  0.4114180000000  0.5658350000000 1.0
C      1  0.5831660000000  0.4642400000000  0.5665880000000 1.0
C      1  0.5795360000000  0.5441440000000  0.5626680000000 1.0
C      1  0.5130070000000  0.5887470000000  0.5724930000000 1.0
C      1  0.5376050000000  0.4292860000000  0.5868060000000 1.0
C      1  0.5785020000000  0.4899880000000  0.5837330000000 1.0
C      1  0.5579830000000  0.5518220000000  0.5835620000000 1.0
C      1  0.4881940000000  0.5741600000000  0.5871290000000 1.0
C      1  0.4323980000000  0.5410780000000  0.5821650000000 1.0
C      1  0.4246460000000  0.4847930000000  0.5804250000000 1.0
C      1  0.4742710000000  0.4261510000000  0.5866550000000 1.0
C      1  0.4073910000000  0.4876180000000  0.4708320000000 1.0
C      1  0.4549880000000  0.4184210000000  0.4783500000000 1.0
C      1  0.5432340000000  0.4160350000000  0.4831910000000 1.0
C      1  0.6013600000000  0.4643300000000  0.4720100000000 1.0
C      1  0.5733530000000  0.5469820000000  0.4712830000000 1.0
C      1  0.5055740000000  0.5964420000000  0.4758620000000 1.0
C      1  0.4267760000000  0.5616190000000  0.4811380000000 1.0
C      1  0.4781590000000  0.5216800000000  0.5448570000000 1.0
C      1  0.4683570000000  0.4938700000000  0.5580480000000 1.0
C      1  0.4849460000000  0.4686590000000  0.5618250000000 1.0
C      1  0.5118650000000  0.4712630000000  0.5471670000000 1.0
C      1  0.5325850000000  0.4907210000000  0.5618680000000 1.0
C      1  0.5266890000000  0.5186290000000  0.5521390000000 1.0
C      1  0.5011960000000  0.5342680000000  0.5606730000000 1.0
C      1  0.4687980000000  0.4958070000000  0.6102450000000 1.0
C      1  0.4838540000000  0.4737230000000  0.6141030000000 1.0
C      1  0.5131510000000  0.4688120000000  0.6159280000000 1.0
C      1  0.5305970000000  0.4898260000000  0.6155650000000 1.0
C      1  0.5290280000000  0.5192200000000  0.6153210000000 1.0
C      1  0.5045600000000  0.5310990000000  0.6149170000000 1.0
C      1  0.4772270000000  0.5223180000000  0.6204940000000 1.0
C      1  0.4697380000000  0.6018590000000  0.4590880000000 1.0
C      1  0.4022620000000  0.5441180000000  0.4549600000000 1.0
C      1  0.4105710000000  0.4506700000000  0.4558960000000 1.0
C      1  0.4908850000000  0.3909540000000  0.4624020000000 1.0
C      1  0.5587230000000  0.4227340000000  0.4571620000000 1.0
C      1  0.5986410000000  0.4892260000000  0.4576740000000 1.0
C      1  0.5585950000000  0.5863430000000  0.4530640000000 1.0
C      1  0.4441980000000  0.4223110000000  0.4361670000000 1.0
C      1  0.5157210000000  0.4152410000000  0.4329500000000 1.0
C      1  0.5755930000000  0.4641960000000  0.4137940000000 1.0
C      1  0.5866610000000  0.5419320000000  0.4235650000000 1.0
C      1  0.5288110000000  0.6020280000000  0.4290750000000 1.0
C      1  0.4437050000000  0.5874610000000  0.4318890000000 1.0
C      1  0.4171520000000  0.5026170000000  0.4194300000000 1.0
C      1  0.5489370000000  0.4965510000000  0.5891190000000 1.0
C      1  0.5495040000000  0.5299630000000  0.5974760000000 1.0
C      1  0.4896180000000  0.5434780000000  0.5889990000000 1.0
C      1  0.4583020000000  0.5308270000000  0.5945580000000 1.0
C      1  0.4524160000000  0.4992750000000  0.5827890000000 1.0
C      1  0.4881040000000  0.4528410000000  0.5892710000000 1.0
C      1  0.5199030000000  0.4454380000000  0.5994620000000 1.0
C      1  0.4337550000000  0.4745250000000  0.4157150000000 1.0
C      1  0.4757650000000  0.4255680000000  0.4226520000000 1.0
C      1  0.5361580000000  0.4361730000000  0.4064340000000 1.0
C      1  0.5711240000000  0.4966850000000  0.4081100000000 1.0
C      1  0.5552790000000  0.5524560000000  0.4133300000000 1.0
C      1  0.4996090000000  0.5777000000000  0.4182890000000 1.0
C      1  0.4380680000000  0.5574480000000  0.4169380000000 1.0
C      1  0.4355830000000  0.4623560000000  0.5481530000000 1.0
C      1  0.4897120000000  0.4221360000000  0.5492740000000 1.0
C      1  0.5507780000000  0.4451330000000  0.5472410000000 1.0
C      1  0.5766240000000  0.5059710000000  0.5438020000000 1.0
C      1  0.5388610000000  0.5615650000000  0.5403100000000 1.0
C      1  0.4725170000000  0.5714670000000  0.5458250000000 1.0
C      1  0.4265360000000  0.5258240000000  0.5425140000000 1.0
C      1  0.5110740000000  0.4106960000000  0.4813440000000 1.0
C      1  0.5810890000000  0.4447750000000  0.4643540000000 1.0
C      1  0.5850970000000  0.5147640000000  0.4728150000000 1.0
C      1  0.5337380000000  0.5818920000000  0.4704970000000 1.0
C      1  0.4549600000000  0.5780770000000  0.4734260000000 1.0
C      1  0.4110080000000  0.5189730000000  0.4702230000000 1.0
C      1  0.4349100000000  0.4433540000000  0.4739980000000 1.0
C      1  0.5635480000000  0.4441410000000  0.3942600000000 1.0
C      1  0.5708860000000  0.5248440000000  0.4007440000000 1.0
C      1  0.5264530000000  0.5649960000000  0.4016240000000 1.0
C      1  0.4683070000000  0.5738420000000  0.4127690000000 1.0
C      1  0.4375200000000  0.5281110000000  0.4158020000000 1.0
C      1  0.4503070000000  0.4464280000000  0.4129920000000 1.0
C      1  0.5032760000000  0.4274840000000  0.4053630000000 1.0
C      1  0.4602110000000  0.4916410000000  0.5262070000000 1.0
C      1  0.4798600000000  0.4716210000000  0.5069920000000 1.0
C      1  0.5117240000000  0.4769960000000  0.5136400000000 1.0
C      1  0.5361610000000  0.4981810000000  0.5033260000000 1.0
C      1  0.5234440000000  0.5196600000000  0.5214670000000 1.0
C      1  0.5018980000000  0.5358650000000  0.5078050000000 1.0
C      1  0.4803740000000  0.5125370000000  0.5119660000000 1.0
C      1  0.5385300000000  0.5685100000000  0.5715310000000 1.0
C      1  0.4618110000000  0.5819410000000  0.5745980000000 1.0
C      1  0.4164880000000  0.5167450000000  0.5717480000000 1.0
C      1  0.4283170000000  0.4531550000000  0.5800690000000 1.0
C      1  0.4942980000000  0.4047950000000  0.5766020000000 1.0
C      1  0.5621370000000  0.4409750000000  0.5771760000000 1.0
C      1  0.5913320000000  0.5150000000000  0.5718220000000 1.0
C      1  0.4850550000000  0.4021480000000  0.5259560000000 1.0
C      1  0.5647020000000  0.4282120000000  0.5262190000000 1.0
C      1  0.6002420000000  0.5026460000000  0.5227670000000 1.0
C      1  0.5532330000000  0.5742610000000  0.5155570000000 1.0
C      1  0.4685300000000  0.5941720000000  0.5247200000000 1.0
C      1  0.4048240000000  0.5392270000000  0.5237700000000 1.0
C      1  0.4156740000000  0.4580900000000  0.5209130000000 1.0
C      1  0.4520370000000  0.5439520000000  0.5099610000000 1.0
C      1  0.4321790000000  0.5004100000000  0.5093810000000 1.0
C      1  0.4690370000000  0.4438960000000  0.5180060000000 1.0
C      1  0.5167370000000  0.4376250000000  0.5113330000000 1.0
C      1  0.5600710000000  0.4757950000000  0.5124640000000 1.0
C      1  0.5589500000000  0.5307800000000  0.5074830000000 1.0
C      1  0.5022510000000  0.5672560000000  0.5163170000000 1.0
C      1  0.5056360000000  0.4272270000000  0.4555650000000 1.0
C      1  0.5651010000000  0.4595540000000  0.4435430000000 1.0
C      1  0.5725160000000  0.5182710000000  0.4434870000000 1.0
C      1  0.5242980000000  0.5703010000000  0.4404780000000 1.0
C      1  0.4651880000000  0.5646620000000  0.4453490000000 1.0
C      1  0.4312700000000  0.5178920000000  0.4465940000000 1.0
C      1  0.4492160000000  0.4543530000000  0.4463900000000 1.0
C      1  0.3841610000000  0.4947260000000  0.5340080000000 1.0
C      1  0.4384920000000  0.4154290000000  0.5428950000000 1.0
C      1  0.5322880000000  0.3926100000000  0.5425680000000 1.0
C      1  0.6021380000000  0.4563690000000  0.5419550000000 1.0
C      1  0.5947200000000  0.5518240000000  0.5358810000000 1.0
C      1  0.5165860000000  0.6035240000000  0.5422550000000 1.0
C      1  0.4223830000000  0.5820680000000  0.5424650000000 1.0
C      1  0.6120370000000  0.5317390000000  0.5278960000000 1.0
C      1  0.5415730000000  0.6003930000000  0.5311760000000 1.0
C      1  0.4390150000000  0.6020570000000  0.5322000000000 1.0
C      1  0.3800830000000  0.5206100000000  0.5263130000000 1.0
C      1  0.4169820000000  0.4284680000000  0.5324200000000 1.0
C      1  0.5093640000000  0.3824830000000  0.5299420000000 1.0
C      1  0.5948450000000  0.4317560000000  0.5316120000000 1.0
C      1  0.4647880000000  0.4449490000000  0.5488790000000 1.0
C      1  0.5184110000000  0.4396700000000  0.5442580000000 1.0
C      1  0.5584070000000  0.4781800000000  0.5448340000000 1.0
C      1  0.5556590000000  0.5326100000000  0.5411240000000 1.0
C      1  0.5058900000000  0.5655770000000  0.5486460000000 1.0
C      1  0.4547840000000  0.5428630000000  0.5409680000000 1.0
C      1  0.4233910000000  0.4919960000000  0.5411350000000 1.0
C      1  0.4661680000000  0.4834410000000  0.4177240000000 1.0
C      1  0.4933640000000  0.4644750000000  0.4251750000000 1.0
C      1  0.5257930000000  0.4615120000000  0.4216160000000 1.0
C      1  0.5409650000000  0.4877630000000  0.4150790000000 1.0
C      1  0.5128930000000  0.5406510000000  0.4300720000000 1.0
C      1  0.4820450000000  0.5379860000000  0.4329790000000 1.0
C      1  0.4663780000000  0.5174390000000  0.4166940000000 1.0
C      1  0.4786820000000  0.5088340000000  0.3894950000000 1.0
C      1  0.4750470000000  0.4796880000000  0.3846150000000 1.0
C      1  0.4989750000000  0.4579860000000  0.3922720000000 1.0
C      1  0.5138630000000  0.4829290000000  0.3768160000000 1.0
C      1  0.5258840000000  0.5016060000000  0.3932630000000 1.0
C      1  0.5220640000000  0.5324140000000  0.3997260000000 1.0
C      1  0.4971730000000  0.5258780000000  0.3798990000000 1.0
C      1  0.4961090000000  0.6095830000000  0.5244930000000 1.0
C      1  0.4056940000000  0.5695140000000  0.5243200000000 1.0
C      1  0.3898960000000  0.4747760000000  0.5161020000000 1.0
C      1  0.4537190000000  0.4003320000000  0.5253690000000 1.0
C      1  0.5541960000000  0.3994050000000  0.5267360000000 1.0
C      1  0.6108570000000  0.4745500000000  0.5225900000000 1.0
C      1  0.5833200000000  0.5674170000000  0.5160770000000 1.0
C      1  0.4133510000000  0.4767980000000  0.4414250000000 1.0
C      1  0.4695600000000  0.4070350000000  0.4504870000000 1.0
C      1  0.5458030000000  0.4168670000000  0.4329230000000 1.0
C      1  0.5937850000000  0.4869790000000  0.4306470000000 1.0
C      1  0.5691100000000  0.5610070000000  0.4432010000000 1.0
C      1  0.4983740000000  0.6002920000000  0.4441280000000 1.0
C      1  0.4242640000000  0.5640140000000  0.4473100000000 1.0
C      1  0.5454810000000  0.5042340000000  0.4417880000000 1.0
C      1  0.5254230000000  0.5246170000000  0.4536760000000 1.0
C      1  0.4844970000000  0.5366300000000  0.4659570000000 1.0
C      1  0.4599370000000  0.5149390000000  0.4568800000000 1.0
C      1  0.4637080000000  0.4828760000000  0.4512800000000 1.0
C      1  0.5055930000000  0.4584250000000  0.4559210000000 1.0
C      1  0.5362490000000  0.4728880000000  0.4519100000000 1.0
C      1  0.4066490000000  0.5784610000000  0.4983460000000 1.0
C      1  0.3839170000000  0.4771110000000  0.4896100000000 1.0
C      1  0.4447100000000  0.3969960000000  0.4997420000000 1.0
C      1  0.5543480000000  0.3921350000000  0.5000720000000 1.0
C      1  0.6158620000000  0.4649440000000  0.4963680000000 1.0
C      1  0.5923340000000  0.5645160000000  0.4903500000000 1.0
C      1  0.5027160000000  0.6179920000000  0.4993940000000 1.0
END
