TITL C-2622957-9142-539 -0.00335114677463008 125000 -419.066353501261 0 0 79 (C1) n - 1
REM
REM in /nfs/bkarasulu/CARBON/AIRSS/Generating-Clusters/AIREBO/with-SteepDescent/Higher-Symm/SD-CG/HFTN-CG
REM
REM
REM
REM
REM
REM ./C.cell (b20cbc046b6831c77cfcea5457e17084)
REM
REM compiler GCC version 9.2.1 20190827 (Red Hat 9.2.1-1)
REM options -cpp -mtune=generic -march=x86-64 -g -O0 -fpre-include=/usr/include/finclude/math-vector-fortran.h
REM seed 1953839006 -645354509 -2120924624 -187939932 1771036339 1480102366 1837277165 1361357665 50035820 -1367941833 -253017913 707123982 1349357702 2143980277 -160209266 692665403 885790867 -759761215 -1525357990 1515866 -1452143662 -115087294 1239464014 -15651533 1292240104 1820977761 2055220076 837765561 -2057985145 1429918898 125739246 954989669 1555805706
REM
CELL 1.54180   50.00000   50.00000   50.00000   90.00000   90.00000   90.00000
LATT -1
SFAC C  
C      1  0.4879350000000  0.5299250000000  0.4821310000000 1.0
C      1  0.4973750000000  0.5166210000000  0.4563890000000 1.0
C      1  0.5276580000000  0.5189910000000  0.4912460000000 1.0
C      1  0.5150360000000  0.5236550000000  0.5310460000000 1.0
C      1  0.4801120000000  0.5209000000000  0.5307910000000 1.0
C      1  0.5066750000000  0.5617790000000  0.4423680000000 1.0
C      1  0.5306830000000  0.5528200000000  0.4928790000000 1.0
C      1  0.5228350000000  0.5591550000000  0.5475520000000 1.0
C      1  0.4672090000000  0.5588090000000  0.5419870000000 1.0
C      1  0.4659240000000  0.5626980000000  0.4867560000000 1.0
C      1  0.5780190000000  0.5190530000000  0.5078290000000 1.0
C      1  0.5212680000000  0.5223060000000  0.5795770000000 1.0
C      1  0.4330590000000  0.5013650000000  0.5401070000000 1.0
C      1  0.4431430000000  0.5202170000000  0.4458810000000 1.0
C      1  0.5358400000000  0.5276170000000  0.4261590000000 1.0
C      1  0.4336670000000  0.4546690000000  0.5222730000000 1.0
C      1  0.4551760000000  0.4500540000000  0.4463480000000 1.0
C      1  0.5363030000000  0.4524970000000  0.4404030000000 1.0
C      1  0.5665600000000  0.4434910000000  0.5148460000000 1.0
C      1  0.5063830000000  0.4530560000000  0.5613910000000 1.0
C      1  0.5495330000000  0.5413040000000  0.4670220000000 1.0
C      1  0.5508290000000  0.5402640000000  0.5435860000000 1.0
C      1  0.4723620000000  0.5361630000000  0.5668220000000 1.0
C      1  0.4451720000000  0.5378640000000  0.4972040000000 1.0
C      1  0.4868860000000  0.5402710000000  0.4260860000000 1.0
C      1  0.4418770000000  0.4433520000000  0.4971850000000 1.0
C      1  0.4807340000000  0.4379820000000  0.4480780000000 1.0
C      1  0.5457680000000  0.4399460000000  0.4663300000000 1.0
C      1  0.5436760000000  0.4408110000000  0.5299200000000 1.0
C      1  0.4849830000000  0.4394160000000  0.5474510000000 1.0
C      1  0.5349500000000  0.4552650000000  0.5529040000000 1.0
C      1  0.4535760000000  0.4524800000000  0.5476090000000 1.0
C      1  0.4344280000000  0.4626100000000  0.4701090000000 1.0
C      1  0.5032020000000  0.4588510000000  0.4378520000000 1.0
C      1  0.5679550000000  0.4578790000000  0.4849950000000 1.0
C      1  0.5300590000000  0.5151780000000  0.4572820000000 1.0
C      1  0.5462870000000  0.5164310000000  0.5197600000000 1.0
C      1  0.4980180000000  0.5151710000000  0.5592370000000 1.0
C      1  0.4514650000000  0.5240880000000  0.5265300000000 1.0
C      1  0.4727690000000  0.5118060000000  0.4369520000000 1.0
C      1  0.4353140000000  0.5170860000000  0.4775790000000 1.0
C      1  0.5096500000000  0.5174700000000  0.4184610000000 1.0
C      1  0.5644530000000  0.5125640000000  0.4774710000000 1.0
C      1  0.5482450000000  0.5134190000000  0.5611400000000 1.0
C      1  0.4591570000000  0.5061770000000  0.5613660000000 1.0
C      1  0.4943010000000  0.4830720000000  0.5654790000000 1.0
C      1  0.4259540000000  0.4820260000000  0.5179700000000 1.0
C      1  0.4572390000000  0.4831970000000  0.4448110000000 1.0
C      1  0.5331570000000  0.4829430000000  0.4481070000000 1.0
C      1  0.5540590000000  0.4836000000000  0.5155390000000 1.0
C      1  0.4925460000000  0.4283680000000  0.5227950000000 1.0
C      1  0.4718430000000  0.4315570000000  0.4987830000000 1.0
C      1  0.4884730000000  0.4272110000000  0.4730400000000 1.0
C      1  0.5195570000000  0.4336780000000  0.4801340000000 1.0
C      1  0.5193980000000  0.4360520000000  0.5118760000000 1.0
C      1  0.5474420000000  0.4834740000000  0.4760020000000 1.0
C      1  0.5434880000000  0.4872240000000  0.5469030000000 1.0
C      1  0.4714140000000  0.4809100000000  0.5421610000000 1.0
C      1  0.4375230000000  0.4889270000000  0.4914280000000 1.0
C      1  0.4854200000000  0.4749820000000  0.4619740000000 1.0
C      1  0.5322980000000  0.4655130000000  0.5005940000000 1.0
C      1  0.5126560000000  0.4845600000000  0.5380800000000 1.0
C      1  0.4729480000000  0.4619650000000  0.5139540000000 1.0
C      1  0.4660700000000  0.4783550000000  0.4884170000000 1.0
C      1  0.5023250000000  0.4622900000000  0.4863040000000 1.0
C      1  0.4257340000000  0.4921760000000  0.4540480000000 1.0
C      1  0.5072980000000  0.4909860000000  0.4274850000000 1.0
C      1  0.5813600000000  0.4872820000000  0.4956020000000 1.0
C      1  0.5486730000000  0.5171760000000  0.5950140000000 1.0
C      1  0.4393690000000  0.4784530000000  0.5644260000000 1.0
C      1  0.4536610000000  0.5630330000000  0.5184680000000 1.0
C      1  0.4779090000000  0.5512300000000  0.4570740000000 1.0
C      1  0.5332980000000  0.5626470000000  0.4478810000000 1.0
C      1  0.5397360000000  0.5620920000000  0.5199860000000 1.0
C      1  0.4969910000000  0.5544220000000  0.5519510000000 1.0
C      1  0.4995340000000  0.5584340000000  0.4897140000000 1.0
C      1  0.4980930000000  0.5109190000000  0.5044590000000 1.0
C      1  0.4980310000000  0.4817730000000  0.5122000000000 1.0
C      1  0.4940510000000  0.5895980000000  0.4952560000000 1.0
END
