TITL C-2622965-4321-777 0.00228606109541388 125000 -429.527563641727 0 0 89 (C1) n - 1
REM
REM in /nfs/bkarasulu/CARBON/AIRSS/Generating-Clusters/AIREBO/with-SteepDescent/Higher-Symm/SD-CG/HFTN-CG
REM
REM
REM
REM
REM
REM ./C.cell (b20cbc046b6831c77cfcea5457e17084)
REM
REM compiler GCC version 9.2.1 20190827 (Red Hat 9.2.1-1)
REM options -cpp -mtune=generic -march=x86-64 -g -O0 -fpre-include=/usr/include/finclude/math-vector-fortran.h
REM seed -603371426 1554353329 -429148830 904208804 1864907716 789288156 591500321 140883020 860163769 -147257589 601665903 -241765598 1469032976 -214049849 489343115 605574685 1090278232 1412431052 413914451 -545043994 1693016874 -360476783 950484334 -1409974727 -530967697 -1324194384 -1761296002 785513583 -1245669705 -1138546124 -189790445 -1140983336 -116062997
REM
CELL 1.54180   50.00000   50.00000   50.00000   90.00000   90.00000   90.00000
LATT -1
SFAC C  
C      1  0.4346680000000  0.5280950000000  0.5087530000000 1.0
C      1  0.4355290000000  0.4928330000000  0.4717040000000 1.0
C      1  0.4322670000000  0.4760520000000  0.5228740000000 1.0
C      1  0.4688280000000  0.4967100000000  0.4801120000000 1.0
C      1  0.4657050000000  0.4785060000000  0.5154900000000 1.0
C      1  0.4684520000000  0.5213870000000  0.5115820000000 1.0
C      1  0.4866570000000  0.4397090000000  0.4507430000000 1.0
C      1  0.4838680000000  0.4864680000000  0.5751210000000 1.0
C      1  0.4841800000000  0.5706970000000  0.4743110000000 1.0
C      1  0.5434570000000  0.4462630000000  0.4556290000000 1.0
C      1  0.5443980000000  0.4890740000000  0.5703250000000 1.0
C      1  0.5480480000000  0.5685180000000  0.4739630000000 1.0
C      1  0.5189750000000  0.5265630000000  0.5794120000000 1.0
C      1  0.5188120000000  0.5559200000000  0.4371630000000 1.0
C      1  0.5242870000000  0.4151950000000  0.4829610000000 1.0
C      1  0.4631900000000  0.4680870000000  0.5464830000000 1.0
C      1  0.4640110000000  0.5543400000000  0.5044750000000 1.0
C      1  0.4661010000000  0.4734320000000  0.4555460000000 1.0
C      1  0.4418040000000  0.5381310000000  0.5404520000000 1.0
C      1  0.4418630000000  0.5147770000000  0.4465120000000 1.0
C      1  0.4363360000000  0.4435290000000  0.5138100000000 1.0
C      1  0.5646340000000  0.5504830000000  0.5414820000000 1.0
C      1  0.5644850000000  0.5118720000000  0.4354950000000 1.0
C      1  0.5608350000000  0.4400420000000  0.5223330000000 1.0
C      1  0.4632690000000  0.4240040000000  0.5208490000000 1.0
C      1  0.4710170000000  0.5518570000000  0.5513670000000 1.0
C      1  0.4707040000000  0.5180720000000  0.4286860000000 1.0
C      1  0.4853720000000  0.4547320000000  0.5657690000000 1.0
C      1  0.4854520000000  0.5793810000000  0.5064810000000 1.0
C      1  0.4876270000000  0.4684320000000  0.4325640000000 1.0
C      1  0.5624030000000  0.4518260000000  0.4982870000000 1.0
C      1  0.5646450000000  0.5237520000000  0.5439130000000 1.0
C      1  0.5656610000000  0.5273870000000  0.4573300000000 1.0
C      1  0.4350470000000  0.4836470000000  0.5559090000000 1.0
C      1  0.4360040000000  0.5545480000000  0.4874150000000 1.0
C      1  0.4361900000000  0.4608960000000  0.4600310000000 1.0
C      1  0.5214850000000  0.5065750000000  0.4643910000000 1.0
C      1  0.5209670000000  0.4739400000000  0.5136010000000 1.0
C      1  0.5215040000000  0.5299420000000  0.5210090000000 1.0
C      1  0.5591530000000  0.4742640000000  0.4593840000000 1.0
C      1  0.5574510000000  0.4784480000000  0.5426060000000 1.0
C      1  0.5606110000000  0.5500630000000  0.4967560000000 1.0
C      1  0.4977690000000  0.5477150000000  0.5050820000000 1.0
C      1  0.5000590000000  0.4802410000000  0.4619270000000 1.0
C      1  0.4975080000000  0.4701210000000  0.5379680000000 1.0
C      1  0.5211000000000  0.5369220000000  0.4149530000000 1.0
C      1  0.5200550000000  0.4056620000000  0.5111590000000 1.0
C      1  0.5219560000000  0.5550080000000  0.5735280000000 1.0
C      1  0.4877680000000  0.4924530000000  0.4139390000000 1.0
C      1  0.4862420000000  0.4321420000000  0.5429990000000 1.0
C      1  0.4875540000000  0.5784470000000  0.5379420000000 1.0
C      1  0.4246350000000  0.5248330000000  0.4753780000000 1.0
C      1  0.4239380000000  0.4669270000000  0.4911910000000 1.0
C      1  0.4249370000000  0.5079830000000  0.5343880000000 1.0
C      1  0.4566890000000  0.5491280000000  0.4326850000000 1.0
C      1  0.4551090000000  0.4149180000000  0.4890200000000 1.0
C      1  0.4572280000000  0.5337160000000  0.5770540000000 1.0
C      1  0.4568650000000  0.4338790000000  0.4605490000000 1.0
C      1  0.4543190000000  0.4992730000000  0.5792320000000 1.0
C      1  0.4545780000000  0.5673790000000  0.4619290000000 1.0
C      1  0.5393830000000  0.5588600000000  0.5220820000000 1.0
C      1  0.5385620000000  0.4920670000000  0.4387920000000 1.0
C      1  0.5346020000000  0.4535400000000  0.5371630000000 1.0
C      1  0.4919690000000  0.4230610000000  0.5049500000000 1.0
C      1  0.5039620000000  0.5441150000000  0.5467820000000 1.0
C      1  0.5034700000000  0.5190420000000  0.4379040000000 1.0
C      1  0.5034090000000  0.4421080000000  0.4792100000000 1.0
C      1  0.5047530000000  0.5049400000000  0.5599690000000 1.0
C      1  0.5047510000000  0.5479600000000  0.4654670000000 1.0
C      1  0.5693910000000  0.5266250000000  0.4862760000000 1.0
C      1  0.5680520000000  0.4769110000000  0.4847500000000 1.0
C      1  0.5677080000000  0.4992970000000  0.5283720000000 1.0
C      1  0.5351910000000  0.5374310000000  0.4685880000000 1.0
C      1  0.5320950000000  0.4594790000000  0.4848440000000 1.0
C      1  0.5335270000000  0.5102060000000  0.5459670000000 1.0
C      1  0.4594260000000  0.4485340000000  0.4897930000000 1.0
C      1  0.4607270000000  0.5135340000000  0.5511700000000 1.0
C      1  0.4609520000000  0.5357370000000  0.4628730000000 1.0
C      1  0.4828630000000  0.5005940000000  0.5343000000000 1.0
C      1  0.4831920000000  0.5274720000000  0.4819750000000 1.0
C      1  0.4851400000000  0.4686180000000  0.4901930000000 1.0
C      1  0.5147270000000  0.4279880000000  0.5338670000000 1.0
C      1  0.5202080000000  0.5739660000000  0.5457540000000 1.0
C      1  0.5199150000000  0.5032800000000  0.4126630000000 1.0
C      1  0.5388970000000  0.5833850000000  0.4985310000000 1.0
C      1  0.5385910000000  0.4595810000000  0.4287330000000 1.0
C      1  0.5364970000000  0.4596450000000  0.5705640000000 1.0
C      1  0.5595850000000  0.5015010000000  0.4995740000000 1.0
C      1  0.5263200000000  0.5042270000000  0.4985140000000 1.0
END
