TITL C-2622962-9663-422 -0.00128689301385822 125000 -372.407681044016 0 0 67 (C1) n - 1
REM
REM in /nfs/bkarasulu/CARBON/AIRSS/Generating-Clusters/AIREBO/with-SteepDescent/Higher-Symm/SD-CG/HFTN-CG
REM
REM
REM
REM
REM
REM ./C.cell (b20cbc046b6831c77cfcea5457e17084)
REM
REM compiler GCC version 9.2.1 20190827 (Red Hat 9.2.1-1)
REM options -cpp -mtune=generic -march=x86-64 -g -O0 -fpre-include=/usr/include/finclude/math-vector-fortran.h
REM seed 47632136 1061096464 -1279109508 436256983 1153741972 1848179711 -1164532374 -1496844378 -1802276716 -764545706 1933315207 1901937208 537420913 433296078 1295818686 1216054351 -1156470767 -745527680 -586513182 -1071356340 156802839 -596215710 -2044998267 1547339751 944068995 -721953080 -854492943 -1987884588 -2003781594 413645142 -1999599264 -1577050779 1851907279
REM
CELL 1.54180   50.00000   50.00000   50.00000   90.00000   90.00000   90.00000
LATT -1
SFAC C  
C      1  0.4618510000000  0.5390980000000  0.5681980000000 1.0
C      1  0.4746460000000  0.5370750000000  0.4373580000000 1.0
C      1  0.5634390000000  0.5413520000000  0.4991570000000 1.0
C      1  0.5527100000000  0.5103510000000  0.5584780000000 1.0
C      1  0.4267490000000  0.5198010000000  0.5176110000000 1.0
C      1  0.5187190000000  0.5099900000000  0.4201580000000 1.0
C      1  0.4528160000000  0.4591250000000  0.4815280000000 1.0
C      1  0.5412460000000  0.4630850000000  0.4713290000000 1.0
C      1  0.5064440000000  0.4470650000000  0.5578680000000 1.0
C      1  0.4562540000000  0.5236570000000  0.5319040000000 1.0
C      1  0.4911430000000  0.5218320000000  0.4210880000000 1.0
C      1  0.5498470000000  0.5128950000000  0.5279380000000 1.0
C      1  0.4896720000000  0.4703990000000  0.4532280000000 1.0
C      1  0.5338650000000  0.4693780000000  0.5100710000000 1.0
C      1  0.4688190000000  0.4682150000000  0.5345740000000 1.0
C      1  0.4970460000000  0.4422260000000  0.4703930000000 1.0
C      1  0.5270360000000  0.4366390000000  0.5129790000000 1.0
C      1  0.4760690000000  0.4389300000000  0.5199870000000 1.0
C      1  0.4587010000000  0.4877440000000  0.4937590000000 1.0
C      1  0.5308990000000  0.4862770000000  0.4526360000000 1.0
C      1  0.5166920000000  0.4767380000000  0.5556010000000 1.0
C      1  0.5142930000000  0.5083580000000  0.4726510000000 1.0
C      1  0.5183860000000  0.5205820000000  0.5175110000000 1.0
C      1  0.4773880000000  0.5069830000000  0.5146660000000 1.0
C      1  0.4838690000000  0.5550360000000  0.4564480000000 1.0
C      1  0.5325640000000  0.5491540000000  0.5056990000000 1.0
C      1  0.4661130000000  0.5533430000000  0.5381090000000 1.0
C      1  0.5240740000000  0.4438180000000  0.4810660000000 1.0
C      1  0.5048720000000  0.4330890000000  0.5322890000000 1.0
C      1  0.4721740000000  0.4398700000000  0.4905690000000 1.0
C      1  0.5613380000000  0.4835610000000  0.5191430000000 1.0
C      1  0.4553670000000  0.4944340000000  0.5493540000000 1.0
C      1  0.4848490000000  0.4898140000000  0.4265080000000 1.0
C      1  0.5470720000000  0.4804310000000  0.5499030000000 1.0
C      1  0.4382760000000  0.4900670000000  0.5208460000000 1.0
C      1  0.5163470000000  0.4796200000000  0.4255320000000 1.0
C      1  0.5302270000000  0.5210300000000  0.5711760000000 1.0
C      1  0.4249940000000  0.5269750000000  0.4908900000000 1.0
C      1  0.5420060000000  0.5201670000000  0.4323270000000 1.0
C      1  0.4474240000000  0.5411520000000  0.4715730000000 1.0
C      1  0.5386000000000  0.5270070000000  0.4629020000000 1.0
C      1  0.5064010000000  0.5253100000000  0.5491500000000 1.0
C      1  0.4600620000000  0.4392330000000  0.5500470000000 1.0
C      1  0.4728460000000  0.4412210000000  0.4466260000000 1.0
C      1  0.5585670000000  0.4461150000000  0.5044850000000 1.0
C      1  0.4906320000000  0.4860660000000  0.4821730000000 1.0
C      1  0.5121310000000  0.4887640000000  0.5072460000000 1.0
C      1  0.4955680000000  0.4868100000000  0.5338000000000 1.0
C      1  0.5094770000000  0.5666170000000  0.4585210000000 1.0
C      1  0.5168840000000  0.5673300000000  0.5259490000000 1.0
C      1  0.4670430000000  0.5669520000000  0.5092870000000 1.0
C      1  0.4487810000000  0.5197730000000  0.4450940000000 1.0
C      1  0.5649710000000  0.5239820000000  0.4778920000000 1.0
C      1  0.4804520000000  0.5175460000000  0.5700370000000 1.0
C      1  0.4406110000000  0.5047000000000  0.4737560000000 1.0
C      1  0.5607500000000  0.4983180000000  0.4460510000000 1.0
C      1  0.5074710000000  0.4990800000000  0.5792540000000 1.0
C      1  0.4561660000000  0.4882000000000  0.4408460000000 1.0
C      1  0.5762460000000  0.4981040000000  0.4711230000000 1.0
C      1  0.4793830000000  0.4832100000000  0.5700760000000 1.0
C      1  0.4505160000000  0.4626420000000  0.4519330000000 1.0
C      1  0.5667020000000  0.4744740000000  0.4878110000000 1.0
C      1  0.4796940000000  0.4527050000000  0.5697360000000 1.0
C      1  0.4976180000000  0.5541580000000  0.5405470000000 1.0
C      1  0.4744460000000  0.5481350000000  0.4851710000000 1.0
C      1  0.5282490000000  0.5543350000000  0.4735820000000 1.0
C      1  0.4938530000000  0.5252940000000  0.4944180000000 1.0
END
