TITL C-2622955-8511-420 -0.00211338334600931 125000 -534.056613975463 0 0 99 (C1) n - 1
REM
REM in /nfs/bkarasulu/CARBON/AIRSS/Generating-Clusters/AIREBO/with-SteepDescent/Higher-Symm/SD-CG/HFTN-CG
REM
REM
REM
REM
REM
REM ./C.cell (b20cbc046b6831c77cfcea5457e17084)
REM
REM compiler GCC version 9.2.1 20190827 (Red Hat 9.2.1-1)
REM options -cpp -mtune=generic -march=x86-64 -g -O0 -fpre-include=/usr/include/finclude/math-vector-fortran.h
REM seed 25384159 434573010 -500216877 -1556159099 1628730680 -461651597 1488487192 -39636155 -1788546244 -871013058 144753564 960344796 1934917573 -1036679875 -2020676958 -1328719969 -1122448476 -1379179039 2064055993 -713016454 786923285 1983871262 878454754 202238285 1721053687 -1530684872 1282597713 1304354753 816418948 1447126009 -1503464555 -597829360 420649473
REM
CELL 1.54180   50.00000   50.00000   50.00000   90.00000   90.00000   90.00000
LATT -1
SFAC C  
C      1  0.5576320000000  0.5486330000000  0.4575290000000 1.0
C      1  0.5802330000000  0.5299130000000  0.5595700000000 1.0
C      1  0.4805180000000  0.4343580000000  0.4792620000000 1.0
C      1  0.5018470000000  0.4610610000000  0.4588370000000 1.0
C      1  0.4643600000000  0.4996920000000  0.5759360000000 1.0
C      1  0.5532000000000  0.5323840000000  0.4824780000000 1.0
C      1  0.5668660000000  0.4631980000000  0.5085940000000 1.0
C      1  0.4400150000000  0.5513200000000  0.4803680000000 1.0
C      1  0.4490790000000  0.4367390000000  0.5161740000000 1.0
C      1  0.4718220000000  0.5735380000000  0.5155620000000 1.0
C      1  0.5016580000000  0.5618970000000  0.5067970000000 1.0
C      1  0.5152010000000  0.5097960000000  0.5086640000000 1.0
C      1  0.5297930000000  0.4720780000000  0.4188210000000 1.0
C      1  0.4950260000000  0.4459410000000  0.5782100000000 1.0
C      1  0.5571980000000  0.4381160000000  0.4921790000000 1.0
C      1  0.4859870000000  0.5527930000000  0.4549700000000 1.0
C      1  0.4955180000000  0.5381410000000  0.4832450000000 1.0
C      1  0.5112980000000  0.5844850000000  0.4871660000000 1.0
C      1  0.5117980000000  0.5163160000000  0.5943600000000 1.0
C      1  0.4955320000000  0.5098960000000  0.4110800000000 1.0
C      1  0.5503310000000  0.4821340000000  0.4423070000000 1.0
C      1  0.4541850000000  0.5536130000000  0.4565000000000 1.0
C      1  0.5817640000000  0.4817940000000  0.4444860000000 1.0
C      1  0.5211180000000  0.5073280000000  0.5482830000000 1.0
C      1  0.4488010000000  0.4424430000000  0.5466520000000 1.0
C      1  0.4452580000000  0.4927550000000  0.5330690000000 1.0
C      1  0.4599000000000  0.4682050000000  0.5378880000000 1.0
C      1  0.4906250000000  0.5226870000000  0.4398270000000 1.0
C      1  0.5587950000000  0.4792420000000  0.5374870000000 1.0
C      1  0.5506230000000  0.4369310000000  0.5518470000000 1.0
C      1  0.5106030000000  0.5515600000000  0.4315470000000 1.0
C      1  0.4661410000000  0.4313340000000  0.5669840000000 1.0
C      1  0.5034370000000  0.5330830000000  0.5235620000000 1.0
C      1  0.4236600000000  0.5399920000000  0.5296750000000 1.0
C      1  0.4640480000000  0.4614520000000  0.4398390000000 1.0
C      1  0.5854830000000  0.5115610000000  0.5193070000000 1.0
C      1  0.5599900000000  0.5306990000000  0.5157650000000 1.0
C      1  0.4688670000000  0.5200610000000  0.4732860000000 1.0
C      1  0.5447220000000  0.4212390000000  0.5328040000000 1.0
C      1  0.5369750000000  0.5524900000000  0.5578140000000 1.0
C      1  0.5300080000000  0.6030270000000  0.4942090000000 1.0
C      1  0.5923190000000  0.5015630000000  0.4609350000000 1.0
C      1  0.4919000000000  0.5396360000000  0.5879650000000 1.0
C      1  0.5741400000000  0.5089310000000  0.4810890000000 1.0
C      1  0.4754020000000  0.5105470000000  0.3925430000000 1.0
C      1  0.5456020000000  0.5082090000000  0.4230250000000 1.0
C      1  0.4964260000000  0.4350250000000  0.5266520000000 1.0
C      1  0.4435250000000  0.5925720000000  0.5122250000000 1.0
C      1  0.4332970000000  0.5661690000000  0.5202130000000 1.0
C      1  0.4202670000000  0.4876680000000  0.4519390000000 1.0
C      1  0.5020010000000  0.4273060000000  0.4547240000000 1.0
C      1  0.4743330000000  0.4257690000000  0.5081920000000 1.0
C      1  0.4863500000000  0.5269710000000  0.5478230000000 1.0
C      1  0.5210440000000  0.4992610000000  0.4072190000000 1.0
C      1  0.4414200000000  0.5345690000000  0.5536510000000 1.0
C      1  0.4560900000000  0.5234860000000  0.4428110000000 1.0
C      1  0.4560290000000  0.5447370000000  0.5067830000000 1.0
C      1  0.5593140000000  0.4864130000000  0.4885590000000 1.0
C      1  0.5321400000000  0.4837370000000  0.4710270000000 1.0
C      1  0.4824390000000  0.4417190000000  0.4303390000000 1.0
C      1  0.4423120000000  0.4619540000000  0.4953410000000 1.0
C      1  0.4943520000000  0.4238590000000  0.5546750000000 1.0
C      1  0.4617170000000  0.5144200000000  0.5120630000000 1.0
C      1  0.4970650000000  0.4619540000000  0.4904480000000 1.0
C      1  0.5040220000000  0.5010400000000  0.4625630000000 1.0
C      1  0.4913950000000  0.4910400000000  0.4992650000000 1.0
C      1  0.5899690000000  0.4875230000000  0.5141400000000 1.0
C      1  0.5203740000000  0.4816030000000  0.5269760000000 1.0
C      1  0.4445450000000  0.5073810000000  0.5587390000000 1.0
C      1  0.5229720000000  0.4336310000000  0.5123290000000 1.0
C      1  0.5296020000000  0.4320790000000  0.4730810000000 1.0
C      1  0.4154590000000  0.5221490000000  0.5062860000000 1.0
C      1  0.5369990000000  0.5566080000000  0.4342260000000 1.0
C      1  0.4971660000000  0.5829240000000  0.4638470000000 1.0
C      1  0.5149020000000  0.4653670000000  0.5775020000000 1.0
C      1  0.4511700000000  0.4403570000000  0.4712360000000 1.0
C      1  0.5512740000000  0.5230630000000  0.5485530000000 1.0
C      1  0.4954840000000  0.5045700000000  0.5693990000000 1.0
C      1  0.4366920000000  0.4635570000000  0.4387770000000 1.0
C      1  0.4223580000000  0.4582840000000  0.4685380000000 1.0
C      1  0.5537110000000  0.4947850000000  0.5672970000000 1.0
C      1  0.5172250000000  0.5688640000000  0.5363670000000 1.0
C      1  0.4704070000000  0.5495860000000  0.5633050000000 1.0
C      1  0.5240940000000  0.5213550000000  0.4810540000000 1.0
C      1  0.5567590000000  0.5326010000000  0.4291180000000 1.0
C      1  0.5475900000000  0.5568850000000  0.5276330000000 1.0
C      1  0.4266060000000  0.4965310000000  0.5074800000000 1.0
C      1  0.5299530000000  0.4908540000000  0.5840130000000 1.0
C      1  0.5281480000000  0.4643590000000  0.4987220000000 1.0
C      1  0.4535090000000  0.4929700000000  0.4869710000000 1.0
C      1  0.5108590000000  0.4552140000000  0.4278050000000 1.0
C      1  0.4193550000000  0.5318560000000  0.4788400000000 1.0
C      1  0.5336100000000  0.4636270000000  0.5526340000000 1.0
C      1  0.4757540000000  0.4820330000000  0.4636420000000 1.0
C      1  0.5407160000000  0.4100870000000  0.4953900000000 1.0
C      1  0.4845940000000  0.4987750000000  0.5316360000000 1.0
C      1  0.4861100000000  0.5688320000000  0.5429360000000 1.0
C      1  0.4266850000000  0.5136720000000  0.4568130000000 1.0
C      1  0.4905290000000  0.4655410000000  0.5297050000000 1.0
END
