TITL C-2622967-6265-85 0.00363403421479231 125000 -435.513367284016 0 0 79 (C1) n - 1
REM
REM in /nfs/bkarasulu/CARBON/AIRSS/Generating-Clusters/AIREBO/with-SteepDescent/Higher-Symm/SD-CG/HFTN-CG
REM
REM
REM
REM
REM
REM ./C.cell (b20cbc046b6831c77cfcea5457e17084)
REM
REM compiler GCC version 9.2.1 20190827 (Red Hat 9.2.1-1)
REM options -cpp -mtune=generic -march=x86-64 -g -O0 -fpre-include=/usr/include/finclude/math-vector-fortran.h
REM seed 1888360895 -960253222 -901729957 2002661880 945923254 -1245842845 -1458145201 -1493346427 233363111 2086494921 1297429444 -2090979804 1446350348 2089369119 1036572156 -201217915 -2112810918 -1553508339 1217643999 -1327720324 1393590024 1277995085 -335418387 421165353 891462819 1294896720 1033065337 296268848 -965824218 -811986732 -169400189 234117596 -1065941430
REM
CELL 1.54180   50.00000   50.00000   50.00000   90.00000   90.00000   90.00000
LATT -1
SFAC C  
C      1  0.5076640000000  0.5789850000000  0.5277460000000 1.0
C      1  0.5010780000000  0.4710040000000  0.4189680000000 1.0
C      1  0.5098930000000  0.4458850000000  0.5657830000000 1.0
C      1  0.4426100000000  0.5673190000000  0.4939590000000 1.0
C      1  0.4281220000000  0.4788120000000  0.4380720000000 1.0
C      1  0.4379430000000  0.4561180000000  0.5439710000000 1.0
C      1  0.5788590000000  0.4582840000000  0.4937600000000 1.0
C      1  0.5913060000000  0.5262200000000  0.5268720000000 1.0
C      1  0.5896010000000  0.5270880000000  0.4636650000000 1.0
C      1  0.5199010000000  0.5427150000000  0.4360180000000 1.0
C      1  0.5332210000000  0.4318020000000  0.4921190000000 1.0
C      1  0.5281650000000  0.5369070000000  0.5601300000000 1.0
C      1  0.4697530000000  0.4813570000000  0.5059580000000 1.0
C      1  0.4687900000000  0.5128080000000  0.5126030000000 1.0
C      1  0.4670990000000  0.5038920000000  0.4822460000000 1.0
C      1  0.5156450000000  0.4672500000000  0.5819760000000 1.0
C      1  0.5214720000000  0.5847200000000  0.5040660000000 1.0
C      1  0.5086380000000  0.4455180000000  0.4282300000000 1.0
C      1  0.4713640000000  0.4812140000000  0.4202730000000 1.0
C      1  0.4800300000000  0.4414540000000  0.5573890000000 1.0
C      1  0.4774330000000  0.5787180000000  0.5217940000000 1.0
C      1  0.5178580000000  0.5148130000000  0.5148600000000 1.0
C      1  0.5177190000000  0.5086600000000  0.4693240000000 1.0
C      1  0.5064620000000  0.4675710000000  0.4989900000000 1.0
C      1  0.5390720000000  0.4614130000000  0.4953520000000 1.0
C      1  0.5397050000000  0.5247550000000  0.5329400000000 1.0
C      1  0.5388010000000  0.5277020000000  0.4575440000000 1.0
C      1  0.4526810000000  0.4673220000000  0.4358920000000 1.0
C      1  0.4617890000000  0.4625320000000  0.5552650000000 1.0
C      1  0.4698690000000  0.5722290000000  0.4953520000000 1.0
C      1  0.4906950000000  0.4704860000000  0.5289720000000 1.0
C      1  0.4942780000000  0.5313650000000  0.5106100000000 1.0
C      1  0.4775850000000  0.4833000000000  0.4625980000000 1.0
C      1  0.4758610000000  0.4546050000000  0.4903360000000 1.0
C      1  0.4747380000000  0.5215600000000  0.5439610000000 1.0
C      1  0.4875830000000  0.5219750000000  0.4620090000000 1.0
C      1  0.4771780000000  0.4104590000000  0.5055540000000 1.0
C      1  0.4700290000000  0.5458380000000  0.5673100000000 1.0
C      1  0.4655120000000  0.5383800000000  0.4444080000000 1.0
C      1  0.4940410000000  0.4968460000000  0.4397730000000 1.0
C      1  0.5037820000000  0.4393330000000  0.5330920000000 1.0
C      1  0.4893350000000  0.5507270000000  0.5339770000000 1.0
C      1  0.5321680000000  0.4762380000000  0.6257210000000 1.0
C      1  0.5520040000000  0.6125290000000  0.4807550000000 1.0
C      1  0.5216470000000  0.4036210000000  0.4095640000000 1.0
C      1  0.5366790000000  0.4670180000000  0.6007220000000 1.0
C      1  0.5455440000000  0.5988180000000  0.5031370000000 1.0
C      1  0.5274860000000  0.4295270000000  0.4145830000000 1.0
C      1  0.4384770000000  0.5329300000000  0.4542200000000 1.0
C      1  0.4603740000000  0.4319220000000  0.5033070000000 1.0
C      1  0.4502210000000  0.5446580000000  0.5392090000000 1.0
C      1  0.5635810000000  0.5347270000000  0.5106760000000 1.0
C      1  0.5641520000000  0.5058500000000  0.4635420000000 1.0
C      1  0.5617080000000  0.4802170000000  0.5125510000000 1.0
C      1  0.5076040000000  0.5757510000000  0.4816310000000 1.0
C      1  0.4962860000000  0.4368350000000  0.4522460000000 1.0
C      1  0.4990190000000  0.4891120000000  0.5788650000000 1.0
C      1  0.4934950000000  0.5546810000000  0.4398360000000 1.0
C      1  0.5065150000000  0.4217720000000  0.5087290000000 1.0
C      1  0.5018530000000  0.5360340000000  0.5737260000000 1.0
C      1  0.4344500000000  0.5443390000000  0.5152590000000 1.0
C      1  0.4245490000000  0.5112030000000  0.4437390000000 1.0
C      1  0.4374280000000  0.4388500000000  0.5163510000000 1.0
C      1  0.4310390000000  0.5420670000000  0.4806120000000 1.0
C      1  0.3987270000000  0.4922390000000  0.4393600000000 1.0
C      1  0.4097140000000  0.4476370000000  0.5309630000000 1.0
C      1  0.5623980000000  0.5348090000000  0.4812220000000 1.0
C      1  0.5603590000000  0.4812400000000  0.4777470000000 1.0
C      1  0.5661670000000  0.5047410000000  0.5268370000000 1.0
C      1  0.5619310000000  0.5985510000000  0.5246340000000 1.0
C      1  0.5509490000000  0.4405500000000  0.4069320000000 1.0
C      1  0.5608980000000  0.4576860000000  0.5931800000000 1.0
C      1  0.5081700000000  0.4257720000000  0.4741470000000 1.0
C      1  0.5008750000000  0.5137410000000  0.5915180000000 1.0
C      1  0.4958560000000  0.5788700000000  0.4549360000000 1.0
C      1  0.4905870000000  0.5475880000000  0.4843990000000 1.0
C      1  0.4705900000000  0.4527330000000  0.4587480000000 1.0
C      1  0.4799340000000  0.4896950000000  0.5548860000000 1.0
C      1  0.5196770000000  0.4962110000000  0.4941930000000 1.0
END
