TITL C-2622961-1971-525 -0.0014089908635121 125000 -801.734162568414 0 0 142 (C1) n - 1
REM
REM in /nfs/bkarasulu/CARBON/AIRSS/Generating-Clusters/AIREBO/with-SteepDescent/Higher-Symm/SD-CG/HFTN-CG
REM
REM
REM
REM
REM
REM ./C.cell (b20cbc046b6831c77cfcea5457e17084)
REM
REM compiler GCC version 9.2.1 20190827 (Red Hat 9.2.1-1)
REM options -cpp -mtune=generic -march=x86-64 -g -O0 -fpre-include=/usr/include/finclude/math-vector-fortran.h
REM seed 1065602075 321269829 282643624 -844448455 406919477 -1681740553 1106788915 500522460 -194834652 -267717339 -217164636 -1529969793 -459386933 1850423655 2140120231 578235570 1902173872 -1891023255 -560976429 -1627923336 632987372 57114499 -1640109343 304980814 2120301017 607663122 1724225401 1256899694 1437743510 -752030778 -747640689 1987202816 -358970142
REM
CELL 1.54180   50.00000   50.00000   50.00000   90.00000   90.00000   90.00000
LATT -1
SFAC C  
C      1  0.4386270000000  0.5673540000000  0.5268830000000 1.0
C      1  0.4374190000000  0.4334620000000  0.4676300000000 1.0
C      1  0.5637940000000  0.5676080000000  0.5275360000000 1.0
C      1  0.5563780000000  0.4220320000000  0.4631380000000 1.0
C      1  0.4383190000000  0.4339640000000  0.5303230000000 1.0
C      1  0.4392140000000  0.5652430000000  0.4664070000000 1.0
C      1  0.5625680000000  0.4307470000000  0.5330650000000 1.0
C      1  0.5619330000000  0.5697670000000  0.4675700000000 1.0
C      1  0.5842020000000  0.5173800000000  0.5233500000000 1.0
C      1  0.5826330000000  0.4644840000000  0.4720720000000 1.0
C      1  0.4165560000000  0.5196290000000  0.5250800000000 1.0
C      1  0.4201030000000  0.4866750000000  0.4755720000000 1.0
C      1  0.5868820000000  0.4836480000000  0.5194130000000 1.0
C      1  0.5814630000000  0.5265710000000  0.4689600000000 1.0
C      1  0.4106470000000  0.4835130000000  0.5270360000000 1.0
C      1  0.4142980000000  0.5204360000000  0.4735670000000 1.0
C      1  0.4867110000000  0.4945980000000  0.5983910000000 1.0
C      1  0.4956200000000  0.5128490000000  0.3977320000000 1.0
C      1  0.5204910000000  0.4887750000000  0.5970860000000 1.0
C      1  0.5273190000000  0.5142650000000  0.4099580000000 1.0
C      1  0.4852020000000  0.5261770000000  0.5965680000000 1.0
C      1  0.4754710000000  0.4942270000000  0.4012380000000 1.0
C      1  0.5183980000000  0.5198980000000  0.6004570000000 1.0
C      1  0.5381300000000  0.4854200000000  0.4103620000000 1.0
C      1  0.4838900000000  0.5950680000000  0.4571740000000 1.0
C      1  0.4834480000000  0.4074000000000  0.5424750000000 1.0
C      1  0.5153090000000  0.5976350000000  0.4579640000000 1.0
C      1  0.5157430000000  0.4042910000000  0.5400380000000 1.0
C      1  0.4796340000000  0.4055890000000  0.4557760000000 1.0
C      1  0.4875700000000  0.5885790000000  0.5447360000000 1.0
C      1  0.5108520000000  0.4062510000000  0.4524890000000 1.0
C      1  0.5210640000000  0.5946790000000  0.5443060000000 1.0
C      1  0.5135950000000  0.5528150000000  0.5892880000000 1.0
C      1  0.5116530000000  0.4630930000000  0.4123680000000 1.0
C      1  0.4834560000000  0.5591170000000  0.5979260000000 1.0
C      1  0.4827180000000  0.4687220000000  0.4156090000000 1.0
C      1  0.5233780000000  0.4550840000000  0.5967170000000 1.0
C      1  0.5149000000000  0.5460300000000  0.4062880000000 1.0
C      1  0.4914910000000  0.4617010000000  0.5936050000000 1.0
C      1  0.4854150000000  0.5435150000000  0.3998280000000 1.0
C      1  0.5545330000000  0.4810690000000  0.5177430000000 1.0
C      1  0.5514060000000  0.5249430000000  0.4834170000000 1.0
C      1  0.4414730000000  0.4832370000000  0.5234250000000 1.0
C      1  0.4456040000000  0.5207540000000  0.4808410000000 1.0
C      1  0.5534760000000  0.5208780000000  0.5160350000000 1.0
C      1  0.5573470000000  0.4769420000000  0.4848150000000 1.0
C      1  0.4473300000000  0.5213300000000  0.5140480000000 1.0
C      1  0.4487300000000  0.4831220000000  0.4935740000000 1.0
C      1  0.4678080000000  0.4773610000000  0.5425360000000 1.0
C      1  0.4613720000000  0.5166250000000  0.4521320000000 1.0
C      1  0.5403530000000  0.4860430000000  0.5471690000000 1.0
C      1  0.5376010000000  0.5178270000000  0.4544690000000 1.0
C      1  0.4553590000000  0.5068310000000  0.5437460000000 1.0
C      1  0.4551100000000  0.4878330000000  0.4604860000000 1.0
C      1  0.5378230000000  0.5164040000000  0.5463860000000 1.0
C      1  0.5363590000000  0.4887960000000  0.4631240000000 1.0
C      1  0.4928390000000  0.4761420000000  0.5207510000000 1.0
C      1  0.4776510000000  0.5216410000000  0.4881620000000 1.0
C      1  0.5254540000000  0.4726660000000  0.5125670000000 1.0
C      1  0.5174720000000  0.5249350000000  0.4880680000000 1.0
C      1  0.4786830000000  0.5268710000000  0.5182480000000 1.0
C      1  0.4789530000000  0.4780810000000  0.4909630000000 1.0
C      1  0.5203530000000  0.5277340000000  0.5195070000000 1.0
C      1  0.5177890000000  0.4733510000000  0.4834910000000 1.0
C      1  0.4648150000000  0.4427750000000  0.4270170000000 1.0
C      1  0.4629340000000  0.5495670000000  0.5731740000000 1.0
C      1  0.5391660000000  0.4463630000000  0.4243670000000 1.0
C      1  0.5451790000000  0.5600160000000  0.5776040000000 1.0
C      1  0.4674050000000  0.5574850000000  0.4236030000000 1.0
C      1  0.4672370000000  0.4503840000000  0.5720530000000 1.0
C      1  0.5455220000000  0.5619710000000  0.4321370000000 1.0
C      1  0.5320980000000  0.4399080000000  0.5710340000000 1.0
C      1  0.5156500000000  0.5519490000000  0.4716660000000 1.0
C      1  0.5179200000000  0.4454050000000  0.5253510000000 1.0
C      1  0.4844640000000  0.5469850000000  0.4736540000000 1.0
C      1  0.4870580000000  0.4426250000000  0.5215910000000 1.0
C      1  0.5128090000000  0.4446510000000  0.4738620000000 1.0
C      1  0.5172480000000  0.5586570000000  0.5273810000000 1.0
C      1  0.4830500000000  0.4525370000000  0.4735590000000 1.0
C      1  0.4855920000000  0.5539150000000  0.5251160000000 1.0
C      1  0.4188720000000  0.4532490000000  0.4818210000000 1.0
C      1  0.4208350000000  0.5510750000000  0.5128660000000 1.0
C      1  0.5795010000000  0.4342170000000  0.4678620000000 1.0
C      1  0.5805630000000  0.5497020000000  0.5130980000000 1.0
C      1  0.4207010000000  0.5517070000000  0.4838070000000 1.0
C      1  0.4177180000000  0.4520900000000  0.5161220000000 1.0
C      1  0.5795180000000  0.5533040000000  0.4838130000000 1.0
C      1  0.5787590000000  0.4530720000000  0.5321020000000 1.0
C      1  0.5881230000000  0.5072830000000  0.4500560000000 1.0
C      1  0.5733640000000  0.4890470000000  0.5694440000000 1.0
C      1  0.3917980000000  0.5066830000000  0.4557540000000 1.0
C      1  0.3860960000000  0.4883530000000  0.5464450000000 1.0
C      1  0.5811370000000  0.4801200000000  0.4454060000000 1.0
C      1  0.5848690000000  0.5042750000000  0.5535990000000 1.0
C      1  0.3922190000000  0.4792150000000  0.4575950000000 1.0
C      1  0.3925750000000  0.5149280000000  0.5437690000000 1.0
C      1  0.4569400000000  0.4215990000000  0.4443420000000 1.0
C      1  0.4561220000000  0.5752630000000  0.5519380000000 1.0
C      1  0.5342970000000  0.4214030000000  0.4424440000000 1.0
C      1  0.5439170000000  0.5774650000000  0.5517340000000 1.0
C      1  0.4604460000000  0.5802320000000  0.4443270000000 1.0
C      1  0.4622010000000  0.4274750000000  0.5528820000000 1.0
C      1  0.5423050000000  0.5882600000000  0.4467860000000 1.0
C      1  0.5391500000000  0.4187620000000  0.5532590000000 1.0
C      1  0.5466010000000  0.5345350000000  0.6000880000000 1.0
C      1  0.5644500000000  0.4692030000000  0.4250950000000 1.0
C      1  0.4625550000000  0.5155530000000  0.5735220000000 1.0
C      1  0.4510200000000  0.5077760000000  0.4054130000000 1.0
C      1  0.5452140000000  0.4782690000000  0.5788080000000 1.0
C      1  0.5518340000000  0.5370030000000  0.4164180000000 1.0
C      1  0.4599660000000  0.4825030000000  0.5812340000000 1.0
C      1  0.4520150000000  0.5274520000000  0.4242290000000 1.0
C      1  0.4905210000000  0.5570070000000  0.5570090000000 1.0
C      1  0.4725470000000  0.4672400000000  0.4477680000000 1.0
C      1  0.5226490000000  0.5441480000000  0.5576680000000 1.0
C      1  0.5279770000000  0.4735510000000  0.4402200000000 1.0
C      1  0.4934390000000  0.4685460000000  0.5605870000000 1.0
C      1  0.4857620000000  0.5378630000000  0.4425780000000 1.0
C      1  0.5209110000000  0.4616770000000  0.5517650000000 1.0
C      1  0.5196120000000  0.5412690000000  0.4396310000000 1.0
C      1  0.4757770000000  0.6007940000000  0.4868020000000 1.0
C      1  0.4716480000000  0.3939910000000  0.5157200000000 1.0
C      1  0.5219680000000  0.6030630000000  0.4877860000000 1.0
C      1  0.5228380000000  0.3961970000000  0.5104810000000 1.0
C      1  0.4751490000000  0.3996500000000  0.4859900000000 1.0
C      1  0.4754780000000  0.6045510000000  0.5174290000000 1.0
C      1  0.5185810000000  0.3921560000000  0.4806920000000 1.0
C      1  0.5275040000000  0.6082650000000  0.5169010000000 1.0
C      1  0.5373320000000  0.4255620000000  0.5140230000000 1.0
C      1  0.5339520000000  0.5717750000000  0.4819580000000 1.0
C      1  0.4642460000000  0.4265600000000  0.5131650000000 1.0
C      1  0.4667210000000  0.5687470000000  0.4818220000000 1.0
C      1  0.5362810000000  0.5757070000000  0.5127380000000 1.0
C      1  0.5316330000000  0.4229720000000  0.4822820000000 1.0
C      1  0.4664200000000  0.5729650000000  0.5134890000000 1.0
C      1  0.4644230000000  0.4312820000000  0.4822780000000 1.0
C      1  0.6282680000000  0.4758640000000  0.4911300000000 1.0
C      1  0.6023450000000  0.4753730000000  0.4936440000000 1.0
C      1  0.3696420000000  0.4299980000000  0.4964410000000 1.0
C      1  0.3927430000000  0.4402970000000  0.4975850000000 1.0
C      1  0.4975710000000  0.5065140000000  0.5296100000000 1.0
C      1  0.5002680000000  0.5004450000000  0.4798760000000 1.0
END
