TITL C-2622958-629-675 0.000512595309807258 125000 -388.144735306509 0 0 72 (C1) n - 1
REM
REM in /nfs/bkarasulu/CARBON/AIRSS/Generating-Clusters/AIREBO/with-SteepDescent/Higher-Symm/SD-CG/HFTN-CG
REM
REM
REM
REM
REM
REM ./C.cell (b20cbc046b6831c77cfcea5457e17084)
REM
REM compiler GCC version 9.2.1 20190827 (Red Hat 9.2.1-1)
REM options -cpp -mtune=generic -march=x86-64 -g -O0 -fpre-include=/usr/include/finclude/math-vector-fortran.h
REM seed -510332631 1829620275 -882031105 -1188179899 883434564 -1943270741 1652369468 -1546995201 -122408202 -712127712 -1188195600 609672690 -1560387778 -628518377 -1448046500 1976932775 281174261 798600884 -150487783 1015162777 -1187105038 643059122 -775636699 747088753 -1521951160 380960676 62341250 585208316 460401915 1112706086 1502499263 -1213836107 261397424
REM
CELL 1.54180   50.00000   50.00000   50.00000   90.00000   90.00000   90.00000
LATT -1
SFAC C  
C      1  0.4675740000000  0.4652500000000  0.5104840000000 1.0
C      1  0.4912260000000  0.4563410000000  0.4877010000000 1.0
C      1  0.5176080000000  0.4583610000000  0.5059750000000 1.0
C      1  0.5439650000000  0.4708950000000  0.4896580000000 1.0
C      1  0.5439420000000  0.4969800000000  0.5078250000000 1.0
C      1  0.5473480000000  0.5208700000000  0.4843010000000 1.0
C      1  0.5319100000000  0.5457400000000  0.5121820000000 1.0
C      1  0.5167310000000  0.5322360000000  0.4867830000000 1.0
C      1  0.4748730000000  0.5376000000000  0.5139470000000 1.0
C      1  0.4885100000000  0.5224770000000  0.4891180000000 1.0
C      1  0.4660150000000  0.5054250000000  0.5072220000000 1.0
C      1  0.4521880000000  0.4850980000000  0.4875450000000 1.0
C      1  0.4719850000000  0.4479770000000  0.4612240000000 1.0
C      1  0.5096370000000  0.4439650000000  0.5333880000000 1.0
C      1  0.5257400000000  0.4541120000000  0.4672690000000 1.0
C      1  0.5517190000000  0.4853490000000  0.5376840000000 1.0
C      1  0.5612270000000  0.5033380000000  0.4612430000000 1.0
C      1  0.5486610000000  0.5285520000000  0.5316300000000 1.0
C      1  0.5158790000000  0.5595740000000  0.4670770000000 1.0
C      1  0.4958320000000  0.5504170000000  0.5301590000000 1.0
C      1  0.4713770000000  0.5360580000000  0.4659660000000 1.0
C      1  0.4445800000000  0.5177160000000  0.5305870000000 1.0
C      1  0.4385370000000  0.5031990000000  0.4655170000000 1.0
C      1  0.4490570000000  0.4635410000000  0.5387750000000 1.0
C      1  0.4750500000000  0.5392060000000  0.4109330000000 1.0
C      1  0.4699800000000  0.5259930000000  0.5775930000000 1.0
C      1  0.4375380000000  0.4992050000000  0.4322580000000 1.0
C      1  0.4561750000000  0.4614580000000  0.5708260000000 1.0
C      1  0.4720260000000  0.4516670000000  0.4276880000000 1.0
C      1  0.4840860000000  0.4540340000000  0.5782570000000 1.0
C      1  0.5292030000000  0.4537900000000  0.4292180000000 1.0
C      1  0.5383990000000  0.4769800000000  0.5894580000000 1.0
C      1  0.5553040000000  0.5109190000000  0.4297790000000 1.0
C      1  0.5586730000000  0.5069430000000  0.5630120000000 1.0
C      1  0.5356690000000  0.5324050000000  0.4235600000000 1.0
C      1  0.4924340000000  0.5409460000000  0.5826470000000 1.0
C      1  0.4177160000000  0.5091110000000  0.4885950000000 1.0
C      1  0.4285300000000  0.4705640000000  0.5163050000000 1.0
C      1  0.4541450000000  0.4376540000000  0.4849120000000 1.0
C      1  0.4962830000000  0.4251650000000  0.5121030000000 1.0
C      1  0.5408830000000  0.4311830000000  0.4878100000000 1.0
C      1  0.5644530000000  0.4604410000000  0.5223220000000 1.0
C      1  0.5782820000000  0.4958300000000  0.4875680000000 1.0
C      1  0.5718200000000  0.5453380000000  0.5125480000000 1.0
C      1  0.5420970000000  0.5704530000000  0.4825960000000 1.0
C      1  0.5031100000000  0.5732160000000  0.5142870000000 1.0
C      1  0.4679400000000  0.5605620000000  0.4819590000000 1.0
C      1  0.4282140000000  0.5441240000000  0.5165060000000 1.0
C      1  0.5327990000000  0.5780480000000  0.5112010000000 1.0
C      1  0.4931660000000  0.5719310000000  0.4867750000000 1.0
C      1  0.4513960000000  0.5566830000000  0.5064690000000 1.0
C      1  0.4098040000000  0.5355350000000  0.4962850000000 1.0
C      1  0.4245860000000  0.4973920000000  0.5136870000000 1.0
C      1  0.4340320000000  0.4566000000000  0.4906880000000 1.0
C      1  0.4691770000000  0.4312960000000  0.5095410000000 1.0
C      1  0.5091910000000  0.4281010000000  0.4816260000000 1.0
C      1  0.5450300000000  0.4410560000000  0.5162080000000 1.0
C      1  0.5772440000000  0.4674990000000  0.4958270000000 1.0
C      1  0.5732170000000  0.5132180000000  0.5137950000000 1.0
C      1  0.5611880000000  0.5502640000000  0.4853800000000 1.0
C      1  0.4670310000000  0.5013710000000  0.4465630000000 1.0
C      1  0.4750730000000  0.4818220000000  0.5512110000000 1.0
C      1  0.4839350000000  0.4761690000000  0.4458690000000 1.0
C      1  0.5041730000000  0.4645280000000  0.5543930000000 1.0
C      1  0.5144100000000  0.4764490000000  0.4469180000000 1.0
C      1  0.5276200000000  0.4821900000000  0.5614750000000 1.0
C      1  0.5287770000000  0.5031030000000  0.4495680000000 1.0
C      1  0.5275640000000  0.5148880000000  0.5518170000000 1.0
C      1  0.5125220000000  0.5330480000000  0.4470170000000 1.0
C      1  0.5011490000000  0.5310130000000  0.5531030000000 1.0
C      1  0.4825870000000  0.5280820000000  0.4378670000000 1.0
C      1  0.4702030000000  0.5114550000000  0.5507160000000 1.0
END
