TITL C-2622963-3633-671 -7.80553507847135e-05 125000 -997.084820131811 0 0 180 (C1) n - 1
REM
REM in /nfs/bkarasulu/CARBON/AIRSS/Generating-Clusters/AIREBO/with-SteepDescent/Higher-Symm/SD-CG/HFTN-CG
REM
REM
REM
REM
REM
REM ./C.cell (b20cbc046b6831c77cfcea5457e17084)
REM
REM compiler GCC version 9.2.1 20190827 (Red Hat 9.2.1-1)
REM options -cpp -mtune=generic -march=x86-64 -g -O0 -fpre-include=/usr/include/finclude/math-vector-fortran.h
REM seed -636830961 1585792611 431159907 -834621274 -1321411416 1867997764 -1684439390 -24850292 -1926122762 1272528851 115992735 1235118439 -990347274 -117888363 941683747 125777687 -1043878135 874185774 -1490044408 2095201331 -1049159848 -1303518771 -1522538269 1679070816 -543355383 1967775003 268912276 -1277838900 -66871525 -1842337361 2101052332 -740218301 1307726450
REM
CELL 1.54180   50.00000   50.00000   50.00000   90.00000   90.00000   90.00000
LATT -1
SFAC C  
C      1  0.5907060000000  0.4520810000000  0.5604150000000 1.0
C      1  0.5703540000000  0.5903050000000  0.4614550000000 1.0
C      1  0.4397700000000  0.5634270000000  0.5845350000000 1.0
C      1  0.5816700000000  0.5506100000000  0.4281530000000 1.0
C      1  0.4030150000000  0.5355400000000  0.5580100000000 1.0
C      1  0.4142930000000  0.4331550000000  0.4234320000000 1.0
C      1  0.5641910000000  0.4149390000000  0.5429420000000 1.0
C      1  0.4319470000000  0.4019100000000  0.4607130000000 1.0
C      1  0.4255010000000  0.5846180000000  0.5461270000000 1.0
C      1  0.4631490000000  0.4252640000000  0.4064000000000 1.0
C      1  0.5537610000000  0.4343060000000  0.5907900000000 1.0
C      1  0.5389610000000  0.5640860000000  0.4085130000000 1.0
C      1  0.5889470000000  0.5754540000000  0.4381680000000 1.0
C      1  0.5795480000000  0.4530120000000  0.5906750000000 1.0
C      1  0.4290870000000  0.5871520000000  0.5732510000000 1.0
C      1  0.5938720000000  0.4268410000000  0.5482620000000 1.0
C      1  0.4022320000000  0.5618360000000  0.5363540000000 1.0
C      1  0.4153520000000  0.4279680000000  0.4501510000000 1.0
C      1  0.5623510000000  0.5393950000000  0.4023920000000 1.0
C      1  0.4356070000000  0.4443080000000  0.4105590000000 1.0
C      1  0.4217370000000  0.5402500000000  0.5785130000000 1.0
C      1  0.4513870000000  0.4168040000000  0.4370740000000 1.0
C      1  0.5496550000000  0.5816690000000  0.4358310000000 1.0
C      1  0.5433350000000  0.4112330000000  0.5687000000000 1.0
C      1  0.5027550000000  0.4643240000000  0.4337610000000 1.0
C      1  0.4286950000000  0.4992520000000  0.4658010000000 1.0
C      1  0.4606840000000  0.4324540000000  0.5049190000000 1.0
C      1  0.5002270000000  0.5416360000000  0.5723060000000 1.0
C      1  0.5023850000000  0.5355810000000  0.4325940000000 1.0
C      1  0.5001340000000  0.4622570000000  0.5818730000000 1.0
C      1  0.4317680000000  0.4979990000000  0.5271270000000 1.0
C      1  0.5708330000000  0.5022540000000  0.4721640000000 1.0
C      1  0.5699350000000  0.4998120000000  0.5377120000000 1.0
C      1  0.4614790000000  0.5682640000000  0.5023130000000 1.0
C      1  0.5347050000000  0.5655410000000  0.5044960000000 1.0
C      1  0.5303690000000  0.4260520000000  0.4898540000000 1.0
C      1  0.5001700000000  0.4271950000000  0.4732450000000 1.0
C      1  0.4332410000000  0.4611840000000  0.5000850000000 1.0
C      1  0.4697670000000  0.4977480000000  0.4300530000000 1.0
C      1  0.5036380000000  0.5710450000000  0.5306360000000 1.0
C      1  0.4960490000000  0.4201200000000  0.5380470000000 1.0
C      1  0.4984230000000  0.5682840000000  0.4666950000000 1.0
C      1  0.4301400000000  0.5327620000000  0.4989000000000 1.0
C      1  0.5659250000000  0.4767210000000  0.4940780000000 1.0
C      1  0.5636790000000  0.5224560000000  0.5000670000000 1.0
C      1  0.4647000000000  0.5011970000000  0.5792700000000 1.0
C      1  0.5388410000000  0.4970610000000  0.5737590000000 1.0
C      1  0.5328270000000  0.4997130000000  0.4343880000000 1.0
C      1  0.5262480000000  0.5684130000000  0.4562260000000 1.0
C      1  0.4512560000000  0.5276400000000  0.5715110000000 1.0
C      1  0.5661620000000  0.4546150000000  0.5170330000000 1.0
C      1  0.5266210000000  0.4284260000000  0.5446360000000 1.0
C      1  0.4728550000000  0.4332810000000  0.4565920000000 1.0
C      1  0.4767680000000  0.5757620000000  0.5496470000000 1.0
C      1  0.4469390000000  0.4733160000000  0.4238620000000 1.0
C      1  0.5564260000000  0.4692940000000  0.5717340000000 1.0
C      1  0.5502780000000  0.5261240000000  0.4312810000000 1.0
C      1  0.5695920000000  0.5419360000000  0.4765110000000 1.0
C      1  0.4324830000000  0.5518420000000  0.5244350000000 1.0
C      1  0.4247830000000  0.4519580000000  0.4684630000000 1.0
C      1  0.5293080000000  0.4484170000000  0.5718320000000 1.0
C      1  0.4530560000000  0.5772580000000  0.5317870000000 1.0
C      1  0.5745770000000  0.5284550000000  0.4508120000000 1.0
C      1  0.5286530000000  0.5478310000000  0.4343160000000 1.0
C      1  0.4728290000000  0.4503850000000  0.4272050000000 1.0
C      1  0.4703560000000  0.5555600000000  0.5742660000000 1.0
C      1  0.4468030000000  0.4290980000000  0.4747990000000 1.0
C      1  0.5504590000000  0.5669310000000  0.4760900000000 1.0
C      1  0.5470350000000  0.4299360000000  0.5191040000000 1.0
C      1  0.5718810000000  0.4692630000000  0.5423930000000 1.0
C      1  0.4387690000000  0.5266600000000  0.5426620000000 1.0
C      1  0.4295090000000  0.4742130000000  0.4502790000000 1.0
C      1  0.6076100000000  0.4749070000000  0.4887830000000 1.0
C      1  0.4928000000000  0.5998680000000  0.4672850000000 1.0
C      1  0.4830390000000  0.5033670000000  0.6038390000000 1.0
C      1  0.6018270000000  0.5329400000000  0.5057660000000 1.0
C      1  0.3973530000000  0.5483740000000  0.4824820000000 1.0
C      1  0.4009220000000  0.4675270000000  0.5041410000000 1.0
C      1  0.4880530000000  0.3969720000000  0.5180920000000 1.0
C      1  0.5053540000000  0.3936080000000  0.4526270000000 1.0
C      1  0.5117120000000  0.6024810000000  0.5307250000000 1.0
C      1  0.4649320000000  0.5140990000000  0.4006210000000 1.0
C      1  0.5609750000000  0.5057290000000  0.6052180000000 1.0
C      1  0.5295670000000  0.4921560000000  0.4023400000000 1.0
C      1  0.6022300000000  0.4946660000000  0.4615130000000 1.0
C      1  0.5034160000000  0.4842370000000  0.6035050000000 1.0
C      1  0.4679240000000  0.5995110000000  0.4905540000000 1.0
C      1  0.6011480000000  0.5112910000000  0.5320030000000 1.0
C      1  0.3986610000000  0.4958310000000  0.5232920000000 1.0
C      1  0.3950820000000  0.5204830000000  0.4623670000000 1.0
C      1  0.4933900000000  0.5327640000000  0.4023410000000 1.0
C      1  0.5092240000000  0.4647180000000  0.4003800000000 1.0
C      1  0.5000390000000  0.5508060000000  0.6030640000000 1.0
C      1  0.4601780000000  0.4005280000000  0.4991830000000 1.0
C      1  0.5332390000000  0.5979350000000  0.5045390000000 1.0
C      1  0.5207700000000  0.3942380000000  0.4826410000000 1.0
C      1  0.4343620000000  0.5028270000000  0.4125310000000 1.0
C      1  0.4063540000000  0.4333470000000  0.5072120000000 1.0
C      1  0.5127710000000  0.4133300000000  0.4321910000000 1.0
C      1  0.4149210000000  0.4879810000000  0.5738580000000 1.0
C      1  0.5617940000000  0.5046660000000  0.4075450000000 1.0
C      1  0.5810280000000  0.4873090000000  0.5868010000000 1.0
C      1  0.4125120000000  0.5702780000000  0.5039930000000 1.0
C      1  0.5799050000000  0.5588630000000  0.5032760000000 1.0
C      1  0.5905490000000  0.4461360000000  0.4949060000000 1.0
C      1  0.5031510000000  0.5915920000000  0.5641320000000 1.0
C      1  0.4931030000000  0.5874690000000  0.4327700000000 1.0
C      1  0.5108580000000  0.4115260000000  0.5772380000000 1.0
C      1  0.4270830000000  0.4094710000000  0.4943530000000 1.0
C      1  0.4086250000000  0.5143410000000  0.4316760000000 1.0
C      1  0.4965900000000  0.4334180000000  0.4097320000000 1.0
C      1  0.4336310000000  0.5941930000000  0.4917860000000 1.0
C      1  0.5864920000000  0.4204330000000  0.5168260000000 1.0
C      1  0.5658410000000  0.5895220000000  0.4963200000000 1.0
C      1  0.4000810000000  0.5075970000000  0.5536850000000 1.0
C      1  0.5980170000000  0.5047560000000  0.5654920000000 1.0
C      1  0.5834200000000  0.4944580000000  0.4320900000000 1.0
C      1  0.5138870000000  0.5765910000000  0.5856870000000 1.0
C      1  0.4903290000000  0.4237330000000  0.5835520000000 1.0
C      1  0.5050250000000  0.5668720000000  0.4084470000000 1.0
C      1  0.5493540000000  0.4742880000000  0.4321480000000 1.0
C      1  0.4288600000000  0.5474830000000  0.4706640000000 1.0
C      1  0.4703890000000  0.4337660000000  0.5504050000000 1.0
C      1  0.5525990000000  0.5265290000000  0.5793450000000 1.0
C      1  0.4573480000000  0.5270210000000  0.4376140000000 1.0
C      1  0.4463570000000  0.4749920000000  0.5754880000000 1.0
C      1  0.4244810000000  0.4497100000000  0.5308720000000 1.0
C      1  0.5723180000000  0.4463630000000  0.4683450000000 1.0
C      1  0.5703300000000  0.5388670000000  0.5290970000000 1.0
C      1  0.4684990000000  0.5730110000000  0.4512540000000 1.0
C      1  0.5276210000000  0.5604460000000  0.5500550000000 1.0
C      1  0.5359350000000  0.4281850000000  0.4404460000000 1.0
C      1  0.5501720000000  0.4288700000000  0.4651440000000 1.0
C      1  0.4267120000000  0.4739590000000  0.5472200000000 1.0
C      1  0.4743080000000  0.5461840000000  0.4380020000000 1.0
C      1  0.5459270000000  0.5567520000000  0.5307060000000 1.0
C      1  0.4513440000000  0.4367290000000  0.5327110000000 1.0
C      1  0.4471600000000  0.5711750000000  0.4717310000000 1.0
C      1  0.4322680000000  0.5265380000000  0.4501560000000 1.0
C      1  0.5696370000000  0.4730970000000  0.4546700000000 1.0
C      1  0.5746270000000  0.5269060000000  0.5574750000000 1.0
C      1  0.4688390000000  0.4494920000000  0.5779020000000 1.0
C      1  0.5325790000000  0.5487710000000  0.5799540000000 1.0
C      1  0.5320560000000  0.4534980000000  0.4307470000000 1.0
C      1  0.4964000000000  0.4570110000000  0.4804630000000 1.0
C      1  0.4783940000000  0.4976450000000  0.4603600000000 1.0
C      1  0.4578290000000  0.4787690000000  0.5037290000000 1.0
C      1  0.4954790000000  0.5401350000000  0.5282280000000 1.0
C      1  0.4967650000000  0.5425150000000  0.4804220000000 1.0
C      1  0.4987620000000  0.4526700000000  0.5295360000000 1.0
C      1  0.4806810000000  0.4986490000000  0.5522060000000 1.0
C      1  0.5182080000000  0.4998360000000  0.4593390000000 1.0
C      1  0.5204310000000  0.4980440000000  0.5504990000000 1.0
C      1  0.4573140000000  0.5186600000000  0.5031670000000 1.0
C      1  0.5321650000000  0.5176930000000  0.5052340000000 1.0
C      1  0.5355740000000  0.4780610000000  0.5051760000000 1.0
C      1  0.4996020000000  0.4756710000000  0.4601090000000 1.0
C      1  0.4787670000000  0.4571970000000  0.5051090000000 1.0
C      1  0.4562980000000  0.4985500000000  0.4792760000000 1.0
C      1  0.5007290000000  0.5228710000000  0.5504240000000 1.0
C      1  0.5007330000000  0.4729630000000  0.5515630000000 1.0
C      1  0.4975490000000  0.5223820000000  0.4601380000000 1.0
C      1  0.4762250000000  0.5419850000000  0.5032990000000 1.0
C      1  0.5185100000000  0.4548500000000  0.5035130000000 1.0
C      1  0.5161700000000  0.5415630000000  0.5043370000000 1.0
C      1  0.4642190000000  0.4994610000000  0.5287730000000 1.0
C      1  0.5404760000000  0.4986820000000  0.5289250000000 1.0
C      1  0.5374680000000  0.5001220000000  0.4798010000000 1.0
C      1  0.6157120000000  0.4894590000000  0.5116090000000 1.0
C      1  0.5181420000000  0.6096970000000  0.4809340000000 1.0
C      1  0.6097350000000  0.5208260000000  0.4817890000000 1.0
C      1  0.4009700000000  0.5204930000000  0.5018490000000 1.0
C      1  0.4000000000000  0.4941420000000  0.4833110000000 1.0
C      1  0.5078160000000  0.3828660000000  0.5052640000000 1.0
C      1  0.4819740000000  0.3994820000000  0.4756990000000 1.0
C      1  0.4859360000000  0.6132960000000  0.5152310000000 1.0
C      1  0.4879050000000  0.5288760000000  0.6168770000000 1.0
C      1  0.4880110000000  0.4891580000000  0.4020440000000 1.0
C      1  0.5292450000000  0.4941150000000  0.6043230000000 1.0
C      1  0.5148710000000  0.5155390000000  0.3888560000000 1.0
END
