TITL C-2622967-6265-729 -0.000456383371831992 125000 -349.749674826362 0 0 59 (C3) n - 1
REM
REM in /nfs/bkarasulu/CARBON/AIRSS/Generating-Clusters/AIREBO/with-SteepDescent/Higher-Symm/SD-CG/HFTN-CG
REM
REM
REM
REM
REM
REM ./C.cell (b20cbc046b6831c77cfcea5457e17084)
REM
REM compiler GCC version 9.2.1 20190827 (Red Hat 9.2.1-1)
REM options -cpp -mtune=generic -march=x86-64 -g -O0 -fpre-include=/usr/include/finclude/math-vector-fortran.h
REM seed 386309012 1115060636 595266712 -1625894004 450017332 2124732901 -163429708 1770127077 -143982614 351642629 1114567265 -756802421 -343370030 1707283378 596625632 1463686654 1883557635 1585921884 -1952111919 -1987978205 237028218 1883913183 480548102 628254646 -1363955411 299994498 -1982493244 1813221462 -1408331722 -770485626 -1684285155 -162910274 748027449
REM
CELL 1.54180   50.00000   50.00000   50.00000   90.00000   90.00000   90.00000
LATT -1
SFAC C  
C      1  0.5061300000000  0.4481500000000  0.4468810000000 1.0
C      1  0.4505450000000  0.4461790000000  0.5043360000000 1.0
C      1  0.4445690000000  0.5101650000000  0.4508730000000 1.0
C      1  0.4935840000000  0.4480940000000  0.5510490000000 1.0
C      1  0.4871540000000  0.5451710000000  0.4433520000000 1.0
C      1  0.5055450000000  0.5466720000000  0.5499070000000 1.0
C      1  0.5491330000000  0.4449850000000  0.4924620000000 1.0
C      1  0.5491160000000  0.5491580000000  0.5049660000000 1.0
C      1  0.4521130000000  0.5527260000000  0.4859020000000 1.0
C      1  0.5522210000000  0.5035930000000  0.5479900000000 1.0
C      1  0.5511080000000  0.4916790000000  0.4494060000000 1.0
C      1  0.4480420000000  0.4911390000000  0.5478860000000 1.0
C      1  0.4831080000000  0.5451930000000  0.4751460000000 1.0
C      1  0.5462870000000  0.4719060000000  0.4913570000000 1.0
C      1  0.4748940000000  0.4899070000000  0.5446640000000 1.0
C      1  0.5068760000000  0.5426470000000  0.5231700000000 1.0
C      1  0.5073390000000  0.4513830000000  0.4737330000000 1.0
C      1  0.4924920000000  0.4509540000000  0.5241290000000 1.0
C      1  0.4545820000000  0.4729150000000  0.5056590000000 1.0
C      1  0.4520790000000  0.5209300000000  0.4818690000000 1.0
C      1  0.5458690000000  0.5223080000000  0.5061830000000 1.0
C      1  0.5243680000000  0.4903710000000  0.4534200000000 1.0
C      1  0.5253030000000  0.5047090000000  0.5451200000000 1.0
C      1  0.4763670000000  0.5141830000000  0.4508650000000 1.0
C      1  0.5653690000000  0.5087780000000  0.4670660000000 1.0
C      1  0.5108260000000  0.4662280000000  0.5646470000000 1.0
C      1  0.4699690000000  0.5621180000000  0.5086670000000 1.0
C      1  0.4339250000000  0.5081620000000  0.5300830000000 1.0
C      1  0.4351500000000  0.4874120000000  0.4687290000000 1.0
C      1  0.5658110000000  0.4863470000000  0.5298530000000 1.0
C      1  0.4891270000000  0.4659560000000  0.4327420000000 1.0
C      1  0.4884260000000  0.5290260000000  0.5641590000000 1.0
C      1  0.5099060000000  0.5273000000000  0.4339600000000 1.0
C      1  0.5313320000000  0.5632990000000  0.4879420000000 1.0
C      1  0.5309770000000  0.4314020000000  0.5096940000000 1.0
C      1  0.4681990000000  0.4319110000000  0.4872380000000 1.0
C      1  0.5373060000000  0.4576820000000  0.5603930000000 1.0
C      1  0.4595660000000  0.5579180000000  0.5339950000000 1.0
C      1  0.5609160000000  0.5353060000000  0.4585720000000 1.0
C      1  0.4626230000000  0.4580340000000  0.4363090000000 1.0
C      1  0.4619060000000  0.5375310000000  0.5596790000000 1.0
C      1  0.5352420000000  0.5376780000000  0.4381760000000 1.0
C      1  0.5392750000000  0.5597170000000  0.4614460000000 1.0
C      1  0.5395010000000  0.4356630000000  0.5361800000000 1.0
C      1  0.4597200000000  0.4363850000000  0.4607080000000 1.0
C      1  0.4375120000000  0.5346600000000  0.5380190000000 1.0
C      1  0.4393470000000  0.4620780000000  0.4583400000000 1.0
C      1  0.5615300000000  0.4598670000000  0.5383850000000 1.0
C      1  0.4995000000000  0.4333110000000  0.4985780000000 1.0
C      1  0.5021060000000  0.5609030000000  0.4975320000000 1.0
C      1  0.4363420000000  0.4985590000000  0.5008630000000 1.0
C      1  0.4987420000000  0.4951720000000  0.4351550000000 1.0
C      1  0.5639360000000  0.4974510000000  0.4983700000000 1.0
C      1  0.4997390000000  0.4977160000000  0.5627490000000 1.0
C      1  0.5183720000000  0.4789360000000  0.4813320000000 1.0
C      1  0.4842980000000  0.5129700000000  0.4830920000000 1.0
C      1  0.4824940000000  0.4788810000000  0.5171080000000 1.0
C      1  0.5183020000000  0.5147270000000  0.5171950000000 1.0
C      1  0.5010350000000  0.4962100000000  0.4998500000000 1.0
END
