TITL C-2622958-629-170 -0.00182691400752422 125000 -844.50127307525 0 0 153 (C1) n - 1
REM
REM in /nfs/bkarasulu/CARBON/AIRSS/Generating-Clusters/AIREBO/with-SteepDescent/Higher-Symm/SD-CG/HFTN-CG
REM
REM
REM
REM
REM
REM ./C.cell (b20cbc046b6831c77cfcea5457e17084)
REM
REM compiler GCC version 9.2.1 20190827 (Red Hat 9.2.1-1)
REM options -cpp -mtune=generic -march=x86-64 -g -O0 -fpre-include=/usr/include/finclude/math-vector-fortran.h
REM seed 351331714 -1867731208 1905865114 -1985558131 1610095024 -1063116214 1477249431 1660905578 1375666508 1836376751 -985807374 -962984564 -253939623 -769422319 -1697003653 626852100 -961337378 454493572 1523188916 -1706890620 -1428023458 -2038340941 -1426083567 -166820174 912550077 -2037337590 -1752597614 -1836193897 1635188477 1483331805 347757411 1565730661 -964102169
REM
CELL 1.54180   50.00000   50.00000   50.00000   90.00000   90.00000   90.00000
LATT -1
SFAC C  
C      1  0.5554190000000  0.5608420000000  0.5473710000000 1.0
C      1  0.5479980000000  0.4233800000000  0.5463580000000 1.0
C      1  0.5492380000000  0.5152760000000  0.4179840000000 1.0
C      1  0.4995180000000  0.5398520000000  0.5329310000000 1.0
C      1  0.4866140000000  0.4629990000000  0.5159140000000 1.0
C      1  0.4982610000000  0.5017580000000  0.4564260000000 1.0
C      1  0.5724540000000  0.4644050000000  0.5416300000000 1.0
C      1  0.5685520000000  0.4789720000000  0.4456540000000 1.0
C      1  0.5674130000000  0.5627760000000  0.4995920000000 1.0
C      1  0.5293390000000  0.4899510000000  0.4863060000000 1.0
C      1  0.5273680000000  0.5154520000000  0.5066410000000 1.0
C      1  0.5343060000000  0.4775680000000  0.5159930000000 1.0
C      1  0.5714070000000  0.5780050000000  0.4619100000000 1.0
C      1  0.5891660000000  0.4785200000000  0.5784920000000 1.0
C      1  0.5883940000000  0.4426180000000  0.4480840000000 1.0
C      1  0.5174610000000  0.4331370000000  0.4949470000000 1.0
C      1  0.5203670000000  0.5371370000000  0.4475910000000 1.0
C      1  0.5209240000000  0.5284520000000  0.5663420000000 1.0
C      1  0.5690890000000  0.4428970000000  0.4284310000000 1.0
C      1  0.5536210000000  0.5855040000000  0.4855500000000 1.0
C      1  0.5797850000000  0.4580530000000  0.5936320000000 1.0
C      1  0.3941030000000  0.4956950000000  0.4529000000000 1.0
C      1  0.3944070000000  0.5509780000000  0.5137920000000 1.0
C      1  0.3987120000000  0.4648020000000  0.5277400000000 1.0
C      1  0.3981400000000  0.4934930000000  0.5140560000000 1.0
C      1  0.4021560000000  0.4911630000000  0.4815350000000 1.0
C      1  0.3982030000000  0.5235460000000  0.4981360000000 1.0
C      1  0.5071230000000  0.5823130000000  0.5088740000000 1.0
C      1  0.5056460000000  0.4373290000000  0.5665330000000 1.0
C      1  0.5013540000000  0.4660840000000  0.4147840000000 1.0
C      1  0.4458330000000  0.5750660000000  0.4572660000000 1.0
C      1  0.4403680000000  0.5107710000000  0.5822760000000 1.0
C      1  0.4575810000000  0.4200350000000  0.4564320000000 1.0
C      1  0.4456470000000  0.5208190000000  0.4688920000000 1.0
C      1  0.4504660000000  0.5225720000000  0.5266130000000 1.0
C      1  0.4520820000000  0.4882770000000  0.5035140000000 1.0
C      1  0.4920780000000  0.5125180000000  0.4881030000000 1.0
C      1  0.4912310000000  0.5087190000000  0.5220650000000 1.0
C      1  0.4808620000000  0.4803830000000  0.4882100000000 1.0
C      1  0.4872310000000  0.4268870000000  0.4909140000000 1.0
C      1  0.4910150000000  0.5466910000000  0.4502810000000 1.0
C      1  0.4909080000000  0.5269010000000  0.5724590000000 1.0
C      1  0.4785700000000  0.5553260000000  0.4239350000000 1.0
C      1  0.4802250000000  0.5427210000000  0.5978320000000 1.0
C      1  0.4775020000000  0.3962250000000  0.4841300000000 1.0
C      1  0.5503810000000  0.5540090000000  0.4052410000000 1.0
C      1  0.5582650000000  0.5360200000000  0.5779930000000 1.0
C      1  0.5625550000000  0.4208670000000  0.5191470000000 1.0
C      1  0.6006800000000  0.4924580000000  0.4850400000000 1.0
C      1  0.5991740000000  0.5229550000000  0.5000020000000 1.0
C      1  0.6065290000000  0.4947580000000  0.5184570000000 1.0
C      1  0.3861010000000  0.5229260000000  0.4511750000000 1.0
C      1  0.3857060000000  0.5353770000000  0.5370150000000 1.0
C      1  0.3949580000000  0.4563680000000  0.4997830000000 1.0
C      1  0.4852580000000  0.4158990000000  0.5522370000000 1.0
C      1  0.4746220000000  0.4785910000000  0.4089700000000 1.0
C      1  0.4825570000000  0.5851060000000  0.5275420000000 1.0
C      1  0.4202770000000  0.4623600000000  0.4800370000000 1.0
C      1  0.4025450000000  0.5368940000000  0.4687620000000 1.0
C      1  0.4017750000000  0.5133130000000  0.5397860000000 1.0
C      1  0.4779100000000  0.5054200000000  0.5531910000000 1.0
C      1  0.4694400000000  0.4491650000000  0.4810280000000 1.0
C      1  0.4774520000000  0.5421270000000  0.4799200000000 1.0
C      1  0.5443690000000  0.4625110000000  0.4342250000000 1.0
C      1  0.5487940000000  0.5537800000000  0.5183550000000 1.0
C      1  0.5502930000000  0.4614460000000  0.5580960000000 1.0
C      1  0.4979870000000  0.5261900000000  0.4046150000000 1.0
C      1  0.5115740000000  0.5760790000000  0.5695650000000 1.0
C      1  0.5048010000000  0.4002680000000  0.5288680000000 1.0
C      1  0.5316510000000  0.4736240000000  0.4079440000000 1.0
C      1  0.5373570000000  0.5937280000000  0.5085470000000 1.0
C      1  0.5550100000000  0.4471920000000  0.5846070000000 1.0
C      1  0.5111360000000  0.4880620000000  0.5368180000000 1.0
C      1  0.5094960000000  0.4685400000000  0.4754540000000 1.0
C      1  0.5160010000000  0.5366830000000  0.4870560000000 1.0
C      1  0.5465760000000  0.5088800000000  0.5899800000000 1.0
C      1  0.5575120000000  0.4148470000000  0.4706300000000 1.0
C      1  0.5482410000000  0.5635270000000  0.4330100000000 1.0
C      1  0.5884770000000  0.4693000000000  0.4684920000000 1.0
C      1  0.5826150000000  0.5454550000000  0.4836660000000 1.0
C      1  0.5937120000000  0.4885800000000  0.5461600000000 1.0
C      1  0.5132770000000  0.4383540000000  0.4615860000000 1.0
C      1  0.5217330000000  0.5642820000000  0.4680370000000 1.0
C      1  0.5140310000000  0.4951570000000  0.5667970000000 1.0
C      1  0.4410230000000  0.5685790000000  0.5009480000000 1.0
C      1  0.4484900000000  0.4614640000000  0.5499530000000 1.0
C      1  0.4383420000000  0.4706050000000  0.4422510000000 1.0
C      1  0.4411030000000  0.5471010000000  0.5655740000000 1.0
C      1  0.4346550000000  0.4182470000000  0.5015290000000 1.0
C      1  0.4337460000000  0.5374030000000  0.4255140000000 1.0
C      1  0.5509470000000  0.5909550000000  0.5327410000000 1.0
C      1  0.5355300000000  0.4267590000000  0.5708780000000 1.0
C      1  0.5460630000000  0.4950610000000  0.4000720000000 1.0
C      1  0.4666830000000  0.5050740000000  0.4472380000000 1.0
C      1  0.4669050000000  0.5492380000000  0.5351080000000 1.0
C      1  0.4660450000000  0.4455810000000  0.5269610000000 1.0
C      1  0.5675990000000  0.4997690000000  0.5648480000000 1.0
C      1  0.5777270000000  0.4391020000000  0.4794510000000 1.0
C      1  0.5669470000000  0.5450890000000  0.4546370000000 1.0
C      1  0.5177060000000  0.5056800000000  0.5987890000000 1.0
C      1  0.5315020000000  0.4101570000000  0.4657770000000 1.0
C      1  0.5218280000000  0.5759290000000  0.4386270000000 1.0
C      1  0.4167520000000  0.5670280000000  0.5178520000000 1.0
C      1  0.4183290000000  0.4513360000000  0.5410920000000 1.0
C      1  0.4150830000000  0.4892790000000  0.4354810000000 1.0
C      1  0.4747390000000  0.4134600000000  0.5199870000000 1.0
C      1  0.4725600000000  0.5076610000000  0.4143700000000 1.0
C      1  0.4844230000000  0.5703150000000  0.5552420000000 1.0
C      1  0.4605370000000  0.5373730000000  0.4137230000000 1.0
C      1  0.4647080000000  0.5566290000000  0.5762740000000 1.0
C      1  0.4529900000000  0.3945170000000  0.5019780000000 1.0
C      1  0.4300050000000  0.5477670000000  0.4552660000000 1.0
C      1  0.4290640000000  0.5183300000000  0.5519960000000 1.0
C      1  0.4393150000000  0.4379030000000  0.4775820000000 1.0
C      1  0.5327240000000  0.5572500000000  0.5707130000000 1.0
C      1  0.5290220000000  0.4160380000000  0.5193930000000 1.0
C      1  0.5250290000000  0.5349450000000  0.4174840000000 1.0
C      1  0.4981310000000  0.4373590000000  0.4317880000000 1.0
C      1  0.4912670000000  0.5732480000000  0.4801770000000 1.0
C      1  0.4859940000000  0.4882440000000  0.5814270000000 1.0
C      1  0.5195080000000  0.5542550000000  0.5123150000000 1.0
C      1  0.5222890000000  0.4582570000000  0.5488460000000 1.0
C      1  0.5145050000000  0.4742080000000  0.4439950000000 1.0
C      1  0.4724010000000  0.5816910000000  0.4531700000000 1.0
C      1  0.4637740000000  0.5068780000000  0.5946110000000 1.0
C      1  0.4832570000000  0.4150340000000  0.4494510000000 1.0
C      1  0.4405530000000  0.4878400000000  0.4715570000000 1.0
C      1  0.4513800000000  0.5388780000000  0.4971650000000 1.0
C      1  0.4548770000000  0.4900100000000  0.5353970000000 1.0
C      1  0.5881900000000  0.5406180000000  0.5618520000000 1.0
C      1  0.6081010000000  0.4637490000000  0.5117840000000 1.0
C      1  0.5941180000000  0.5154200000000  0.4396880000000 1.0
C      1  0.5626220000000  0.5118190000000  0.4490770000000 1.0
C      1  0.5616420000000  0.5272830000000  0.5452960000000 1.0
C      1  0.5767460000000  0.4506320000000  0.5108370000000 1.0
C      1  0.4737640000000  0.6014460000000  0.4876520000000 1.0
C      1  0.4814360000000  0.4595050000000  0.5892820000000 1.0
C      1  0.4661830000000  0.4359900000000  0.4202360000000 1.0
C      1  0.4718350000000  0.4434360000000  0.5663410000000 1.0
C      1  0.4545800000000  0.4621210000000  0.4206820000000 1.0
C      1  0.4597080000000  0.5882120000000  0.5103590000000 1.0
C      1  0.4350300000000  0.5608460000000  0.5395820000000 1.0
C      1  0.4358870000000  0.4331240000000  0.5251450000000 1.0
C      1  0.4366440000000  0.5090080000000  0.4317720000000 1.0
C      1  0.5710770000000  0.5129570000000  0.5157850000000 1.0
C      1  0.5630970000000  0.4813760000000  0.5058210000000 1.0
C      1  0.5691820000000  0.5045110000000  0.4816480000000 1.0
C      1  0.5292370000000  0.5235450000000  0.5356960000000 1.0
C      1  0.5145200000000  0.4532730000000  0.5178260000000 1.0
C      1  0.5308560000000  0.5102640000000  0.4611170000000 1.0
C      1  0.4928680000000  0.5149180000000  0.6102940000000 1.0
C      1  0.5029510000000  0.3990060000000  0.4652290000000 1.0
C      1  0.4947080000000  0.5814490000000  0.4308850000000 1.0
END
