TITL C-2622968-4806-243 -0.00490185484245991 125000 -920.562494362761 0 0 157 (C1) n - 1
REM
REM in /nfs/bkarasulu/CARBON/AIRSS/Generating-Clusters/AIREBO/with-SteepDescent/Higher-Symm/SD-CG/HFTN-CG
REM
REM
REM
REM
REM
REM ./C.cell (b20cbc046b6831c77cfcea5457e17084)
REM
REM compiler GCC version 9.2.1 20190827 (Red Hat 9.2.1-1)
REM options -cpp -mtune=generic -march=x86-64 -g -O0 -fpre-include=/usr/include/finclude/math-vector-fortran.h
REM seed 1730713884 1845234571 285655269 666189655 -1645851729 -832481434 -1527313365 560503832 -1138560195 1554354657 2108970144 -72905646 -669448889 497385873 474063665 -877059389 -748333491 757478709 -1013263949 5224796 -780156535 -362309615 1230106144 -1508605591 985897876 1743043760 532500825 -396870311 1075635638 -2054968221 1608049374 1143449354 -84832834
REM
CELL 1.54180   50.00000   50.00000   50.00000   90.00000   90.00000   90.00000
LATT -1
SFAC C  
C      1  0.3689830000000  0.4829630000000  0.4700420000000 1.0
C      1  0.4186410000000  0.4631980000000  0.4170710000000 1.0
C      1  0.4754540000000  0.4604510000000  0.3929320000000 1.0
C      1  0.5328330000000  0.4678330000000  0.3984830000000 1.0
C      1  0.5866480000000  0.4673510000000  0.4359380000000 1.0
C      1  0.6038900000000  0.4690930000000  0.4929250000000 1.0
C      1  0.5909440000000  0.4808900000000  0.5471080000000 1.0
C      1  0.5471630000000  0.4758440000000  0.6022410000000 1.0
C      1  0.4827270000000  0.4604900000000  0.6173710000000 1.0
C      1  0.4309260000000  0.4627530000000  0.5870850000000 1.0
C      1  0.4036830000000  0.4644660000000  0.5280090000000 1.0
C      1  0.5263660000000  0.5254610000000  0.4652170000000 1.0
C      1  0.5563040000000  0.5256520000000  0.4802320000000 1.0
C      1  0.5390080000000  0.5250480000000  0.5085690000000 1.0
C      1  0.5480190000000  0.5373860000000  0.5355520000000 1.0
C      1  0.5248570000000  0.5240600000000  0.5567390000000 1.0
C      1  0.4971630000000  0.5396230000000  0.5600280000000 1.0
C      1  0.4694400000000  0.5292230000000  0.5498990000000 1.0
C      1  0.4632360000000  0.5250600000000  0.5198610000000 1.0
C      1  0.4548280000000  0.5320200000000  0.4675510000000 1.0
C      1  0.4749050000000  0.5209670000000  0.4492640000000 1.0
C      1  0.5021680000000  0.5385420000000  0.4452320000000 1.0
C      1  0.4028050000000  0.5750990000000  0.5260240000000 1.0
C      1  0.4317930000000  0.5868680000000  0.4627360000000 1.0
C      1  0.5187560000000  0.5954040000000  0.3918630000000 1.0
C      1  0.5180170000000  0.5812440000000  0.4209750000000 1.0
C      1  0.5930240000000  0.5739270000000  0.4319920000000 1.0
C      1  0.5716300000000  0.5710330000000  0.4655860000000 1.0
C      1  0.5849030000000  0.5834940000000  0.5135360000000 1.0
C      1  0.5349040000000  0.6065080000000  0.5693270000000 1.0
C      1  0.5331340000000  0.5788380000000  0.5839040000000 1.0
C      1  0.4316260000000  0.5650430000000  0.5945840000000 1.0
C      1  0.3951550000000  0.5996890000000  0.5308820000000 1.0
C      1  0.5293360000000  0.4976550000000  0.5160960000000 1.0
C      1  0.5179730000000  0.4976500000000  0.5412430000000 1.0
C      1  0.4970280000000  0.4819240000000  0.5472590000000 1.0
C      1  0.4650260000000  0.4731040000000  0.5476330000000 1.0
C      1  0.4523610000000  0.4757260000000  0.5186880000000 1.0
C      1  0.4695060000000  0.4977560000000  0.5069340000000 1.0
C      1  0.4768270000000  0.4766550000000  0.4625400000000 1.0
C      1  0.4837710000000  0.4919950000000  0.4363080000000 1.0
C      1  0.5129090000000  0.4814200000000  0.4461120000000 1.0
C      1  0.5197620000000  0.4958420000000  0.4711260000000 1.0
C      1  0.5279910000000  0.4814020000000  0.4936590000000 1.0
C      1  0.5485740000000  0.4089690000000  0.4776230000000 1.0
C      1  0.5514020000000  0.4097540000000  0.5055140000000 1.0
C      1  0.5352720000000  0.4017180000000  0.5311050000000 1.0
C      1  0.5201260000000  0.3805360000000  0.5410690000000 1.0
C      1  0.4929440000000  0.3804940000000  0.5444980000000 1.0
C      1  0.4722550000000  0.3949920000000  0.5342360000000 1.0
C      1  0.4575070000000  0.3978340000000  0.5076650000000 1.0
C      1  0.4563830000000  0.4068030000000  0.4815860000000 1.0
C      1  0.4753300000000  0.4121850000000  0.4578750000000 1.0
C      1  0.4986840000000  0.3987730000000  0.4508020000000 1.0
C      1  0.5223540000000  0.4060960000000  0.4625170000000 1.0
C      1  0.5320090000000  0.4885580000000  0.4236550000000 1.0
C      1  0.5795210000000  0.4945940000000  0.4429910000000 1.0
C      1  0.5931740000000  0.4936280000000  0.4975720000000 1.0
C      1  0.5731520000000  0.4932030000000  0.5686540000000 1.0
C      1  0.5198250000000  0.4928920000000  0.6041510000000 1.0
C      1  0.4735910000000  0.4859920000000  0.6131880000000 1.0
C      1  0.4422230000000  0.4837590000000  0.5643040000000 1.0
C      1  0.4220840000000  0.4863720000000  0.5172300000000 1.0
C      1  0.3993450000000  0.4797280000000  0.4660610000000 1.0
C      1  0.4355800000000  0.4926360000000  0.4186480000000 1.0
C      1  0.4828820000000  0.4859000000000  0.4049270000000 1.0
C      1  0.4777760000000  0.4457000000000  0.4609190000000 1.0
C      1  0.5077230000000  0.4528330000000  0.4539770000000 1.0
C      1  0.5274250000000  0.4376210000000  0.4696180000000 1.0
C      1  0.5331580000000  0.4540100000000  0.4945940000000 1.0
C      1  0.5423700000000  0.4377730000000  0.5157280000000 1.0
C      1  0.5274620000000  0.4300520000000  0.5410940000000 1.0
C      1  0.5054330000000  0.4401020000000  0.5537270000000 1.0
C      1  0.4803810000000  0.4456010000000  0.5465250000000 1.0
C      1  0.4658500000000  0.4265150000000  0.5288770000000 1.0
C      1  0.4560080000000  0.4471590000000  0.5076320000000 1.0
C      1  0.4556540000000  0.4369200000000  0.4818160000000 1.0
C      1  0.5730890000000  0.5556210000000  0.4287470000000 1.0
C      1  0.5902920000000  0.5452860000000  0.4639660000000 1.0
C      1  0.6027730000000  0.5622680000000  0.5120660000000 1.0
C      1  0.5880810000000  0.5376740000000  0.5652130000000 1.0
C      1  0.5313350000000  0.5561610000000  0.5968070000000 1.0
C      1  0.4545650000000  0.5513960000000  0.5988650000000 1.0
C      1  0.4112570000000  0.5543930000000  0.5783270000000 1.0
C      1  0.4122670000000  0.5511320000000  0.5193450000000 1.0
C      1  0.4140100000000  0.5353620000000  0.4466520000000 1.0
C      1  0.4570670000000  0.5566090000000  0.4110760000000 1.0
C      1  0.5396910000000  0.5717890000000  0.3988460000000 1.0
C      1  0.4318080000000  0.5347750000000  0.4184230000000 1.0
C      1  0.4830820000000  0.5294620000000  0.4177120000000 1.0
C      1  0.5581380000000  0.5522940000000  0.4047490000000 1.0
C      1  0.5640450000000  0.5311820000000  0.4475780000000 1.0
C      1  0.6004710000000  0.5391960000000  0.4909580000000 1.0
C      1  0.5771790000000  0.5299870000000  0.5411160000000 1.0
C      1  0.5355950000000  0.5251390000000  0.5859860000000 1.0
C      1  0.4815430000000  0.5334750000000  0.5882200000000 1.0
C      1  0.4481230000000  0.5282560000000  0.5668930000000 1.0
C      1  0.4330980000000  0.5256510000000  0.5261590000000 1.0
C      1  0.4280630000000  0.5237810000000  0.4681490000000 1.0
C      1  0.4148640000000  0.4979840000000  0.4860480000000 1.0
C      1  0.4078420000000  0.4872580000000  0.4375830000000 1.0
C      1  0.4590230000000  0.5071160000000  0.4088280000000 1.0
C      1  0.5123840000000  0.4947330000000  0.3976940000000 1.0
C      1  0.5555320000000  0.5064100000000  0.4264800000000 1.0
C      1  0.5819110000000  0.5075990000000  0.4743160000000 1.0
C      1  0.5934270000000  0.5045250000000  0.5266450000000 1.0
C      1  0.5562590000000  0.5053920000000  0.5934200000000 1.0
C      1  0.4927900000000  0.5090760000000  0.6091180000000 1.0
C      1  0.4487890000000  0.4885220000000  0.5964280000000 1.0
C      1  0.4246980000000  0.5026490000000  0.5471450000000 1.0
C      1  0.5499100000000  0.4408260000000  0.4076510000000 1.0
C      1  0.5899170000000  0.4401970000000  0.4522260000000 1.0
C      1  0.6011680000000  0.4439230000000  0.5116100000000 1.0
C      1  0.5768330000000  0.4539860000000  0.5639630000000 1.0
C      1  0.5291000000000  0.4481510000000  0.5975910000000 1.0
C      1  0.4707580000000  0.4337430000000  0.6043080000000 1.0
C      1  0.4207920000000  0.4356220000000  0.5711730000000 1.0
C      1  0.3983590000000  0.4363030000000  0.5152920000000 1.0
C      1  0.4063080000000  0.4492140000000  0.4655880000000 1.0
C      1  0.4378370000000  0.4361720000000  0.4174180000000 1.0
C      1  0.4929770000000  0.4341140000000  0.3941350000000 1.0
C      1  0.5683190000000  0.4424880000000  0.4273940000000 1.0
C      1  0.5953430000000  0.4416800000000  0.4789490000000 1.0
C      1  0.5901870000000  0.4489200000000  0.5358400000000 1.0
C      1  0.5553720000000  0.4518540000000  0.5794180000000 1.0
C      1  0.5034100000000  0.4418560000000  0.6010020000000 1.0
C      1  0.4478200000000  0.4344110000000  0.5895700000000 1.0
C      1  0.4103340000000  0.4382360000000  0.5462020000000 1.0
C      1  0.3971300000000  0.4346480000000  0.4876970000000 1.0
C      1  0.4204910000000  0.4428520000000  0.4436030000000 1.0
C      1  0.4623240000000  0.4350900000000  0.4066680000000 1.0
C      1  0.5192100000000  0.4371810000000  0.3999450000000 1.0
C      1  0.6016690000000  0.5182790000000  0.4487240000000 1.0
C      1  0.6106440000000  0.5317900000000  0.5200410000000 1.0
C      1  0.5855890000000  0.5177660000000  0.5853550000000 1.0
C      1  0.5143680000000  0.5328330000000  0.6103110000000 1.0
C      1  0.4523570000000  0.5179920000000  0.5962630000000 1.0
C      1  0.4191440000000  0.5323190000000  0.5628260000000 1.0
C      1  0.4104200000000  0.5244370000000  0.5029790000000 1.0
C      1  0.4051940000000  0.5153870000000  0.4237910000000 1.0
C      1  0.4506510000000  0.5331040000000  0.3901710000000 1.0
C      1  0.5033790000000  0.5229610000000  0.3968080000000 1.0
C      1  0.5571580000000  0.5242990000000  0.3997010000000 1.0
C      1  0.4715810000000  0.5511870000000  0.5071530000000 1.0
C      1  0.4620570000000  0.5552320000000  0.4818900000000 1.0
C      1  0.4566890000000  0.5810820000000  0.4715270000000 1.0
C      1  0.5109620000000  0.5695750000000  0.4439530000000 1.0
C      1  0.5243240000000  0.5591040000000  0.4713010000000 1.0
C      1  0.5501240000000  0.5731230000000  0.4822540000000 1.0
C      1  0.5569600000000  0.5786660000000  0.5092830000000 1.0
C      1  0.5444730000000  0.5676080000000  0.5319700000000 1.0
C      1  0.5252800000000  0.5794160000000  0.5511010000000 1.0
C      1  0.4991410000000  0.5667290000000  0.5464100000000 1.0
C      1  0.4832360000000  0.5692810000000  0.5249180000000 1.0
C      1  0.5155720000000  0.5441840000000  0.4986190000000 1.0
C      1  0.4829720000000  0.4893950000000  0.4853790000000 1.0
C      1  0.4765420000000  0.5993780000000  0.4705910000000 1.0
END
