TITL C-2622957-9142-820 -0.000846780635569435 125000 -814.407983604089 0 0 153 (C1) n - 1
REM
REM in /nfs/bkarasulu/CARBON/AIRSS/Generating-Clusters/AIREBO/with-SteepDescent/Higher-Symm/SD-CG/HFTN-CG
REM
REM
REM
REM
REM
REM ./C.cell (b20cbc046b6831c77cfcea5457e17084)
REM
REM compiler GCC version 9.2.1 20190827 (Red Hat 9.2.1-1)
REM options -cpp -mtune=generic -march=x86-64 -g -O0 -fpre-include=/usr/include/finclude/math-vector-fortran.h
REM seed -924187214 -854732425 -403052621 -1902187701 -577233372 1661909640 -1976306886 -972371055 -1458289177 1158895766 -952495245 1365783846 1184738336 -1194964312 1196880353 -1464945983 1011408474 900084347 -997524934 -1167893189 1996864594 402286237 288999508 202646898 772727997 -1179112657 -24411086 -640505207 -1609505857 -1686750033 -1680271380 -455628260 -1821345376
REM
CELL 1.54180   50.00000   50.00000   50.00000   90.00000   90.00000   90.00000
LATT -1
SFAC C  
C      1  0.4170180000000  0.4428780000000  0.4662010000000 1.0
C      1  0.4217280000000  0.5627890000000  0.4729680000000 1.0
C      1  0.5307690000000  0.6025510000000  0.4562840000000 1.0
C      1  0.5941990000000  0.5026740000000  0.4621130000000 1.0
C      1  0.5313950000000  0.4076490000000  0.4538860000000 1.0
C      1  0.4652370000000  0.5164760000000  0.4201490000000 1.0
C      1  0.5001200000000  0.5431070000000  0.4125110000000 1.0
C      1  0.5385460000000  0.5113420000000  0.4212070000000 1.0
C      1  0.5134840000000  0.4718980000000  0.4142780000000 1.0
C      1  0.4620050000000  0.4721700000000  0.4241820000000 1.0
C      1  0.4335980000000  0.4981470000000  0.5434450000000 1.0
C      1  0.4760450000000  0.5757810000000  0.5570210000000 1.0
C      1  0.5507210000000  0.5199430000000  0.5473180000000 1.0
C      1  0.5566180000000  0.4419510000000  0.5533400000000 1.0
C      1  0.4820620000000  0.4263250000000  0.5507400000000 1.0
C      1  0.5525830000000  0.4714270000000  0.4494830000000 1.0
C      1  0.4915400000000  0.4432770000000  0.4561200000000 1.0
C      1  0.4266310000000  0.4937480000000  0.4533900000000 1.0
C      1  0.4713930000000  0.5618330000000  0.4516290000000 1.0
C      1  0.5412860000000  0.5460030000000  0.4534110000000 1.0
C      1  0.5174650000000  0.4299320000000  0.4754650000000 1.0
C      1  0.4142340000000  0.4699530000000  0.4743460000000 1.0
C      1  0.4476090000000  0.5717680000000  0.4739150000000 1.0
C      1  0.5405420000000  0.5742160000000  0.4724230000000 1.0
C      1  0.5794620000000  0.4789780000000  0.4689490000000 1.0
C      1  0.4676170000000  0.5355660000000  0.4822550000000 1.0
C      1  0.5150980000000  0.5316660000000  0.4896330000000 1.0
C      1  0.5401230000000  0.4891030000000  0.4896310000000 1.0
C      1  0.5045510000000  0.4565620000000  0.4922170000000 1.0
C      1  0.4595440000000  0.4851400000000  0.4970980000000 1.0
C      1  0.5847460000000  0.4436710000000  0.5131710000000 1.0
C      1  0.4784680000000  0.3994990000000  0.5089180000000 1.0
C      1  0.3912320000000  0.5170700000000  0.5236240000000 1.0
C      1  0.4852790000000  0.5930550000000  0.5116910000000 1.0
C      1  0.5698690000000  0.5551740000000  0.5205770000000 1.0
C      1  0.4823220000000  0.5645810000000  0.4921680000000 1.0
C      1  0.5415000000000  0.5486200000000  0.5029790000000 1.0
C      1  0.5621860000000  0.4671570000000  0.5033430000000 1.0
C      1  0.4830360000000  0.4302820000000  0.4956220000000 1.0
C      1  0.4301960000000  0.4969410000000  0.5096250000000 1.0
C      1  0.5663180000000  0.5173760000000  0.4235070000000 1.0
C      1  0.5378190000000  0.4455510000000  0.4330510000000 1.0
C      1  0.4467230000000  0.4488750000000  0.4290280000000 1.0
C      1  0.4208710000000  0.5408690000000  0.4314320000000 1.0
C      1  0.4998000000000  0.5741550000000  0.4375390000000 1.0
C      1  0.5744410000000  0.4890670000000  0.4302640000000 1.0
C      1  0.5131710000000  0.4356710000000  0.4310060000000 1.0
C      1  0.4223590000000  0.4660740000000  0.4340690000000 1.0
C      1  0.4423760000000  0.5574170000000  0.4325320000000 1.0
C      1  0.5248140000000  0.5671320000000  0.4324650000000 1.0
C      1  0.5495720000000  0.5144950000000  0.5956100000000 1.0
C      1  0.5639920000000  0.4595400000000  0.5778730000000 1.0
C      1  0.4811820000000  0.4396060000000  0.5808530000000 1.0
C      1  0.4392890000000  0.5093730000000  0.5750330000000 1.0
C      1  0.4870210000000  0.5684190000000  0.5847880000000 1.0
C      1  0.5096510000000  0.4413330000000  0.5895250000000 1.0
C      1  0.4470160000000  0.4906340000000  0.5937140000000 1.0
C      1  0.4812970000000  0.5405930000000  0.5875180000000 1.0
C      1  0.5267330000000  0.5232990000000  0.6017220000000 1.0
C      1  0.5389600000000  0.4730370000000  0.5899730000000 1.0
C      1  0.5207050000000  0.5547400000000  0.5291800000000 1.0
C      1  0.5580670000000  0.4960250000000  0.5242710000000 1.0
C      1  0.5375080000000  0.4449130000000  0.5253740000000 1.0
C      1  0.4615330000000  0.4476460000000  0.5343370000000 1.0
C      1  0.4517130000000  0.5246440000000  0.5321890000000 1.0
C      1  0.5489770000000  0.6229690000000  0.5309570000000 1.0
C      1  0.5998860000000  0.4889040000000  0.5461930000000 1.0
C      1  0.5117680000000  0.4098700000000  0.5524270000000 1.0
C      1  0.4220330000000  0.4666290000000  0.5488810000000 1.0
C      1  0.4453240000000  0.5758600000000  0.5512140000000 1.0
C      1  0.4556220000000  0.5823640000000  0.5026190000000 1.0
C      1  0.5558440000000  0.5793780000000  0.5007980000000 1.0
C      1  0.5951260000000  0.4729150000000  0.4984730000000 1.0
C      1  0.5091680000000  0.4092380000000  0.5011380000000 1.0
C      1  0.4137620000000  0.4732550000000  0.5016720000000 1.0
C      1  0.5546570000000  0.4239490000000  0.4620200000000 1.0
C      1  0.4415020000000  0.4285970000000  0.4693810000000 1.0
C      1  0.4108320000000  0.5367390000000  0.4755660000000 1.0
C      1  0.5010750000000  0.6056540000000  0.4619660000000 1.0
C      1  0.5852130000000  0.5293990000000  0.4639810000000 1.0
C      1  0.4679610000000  0.5159100000000  0.5076730000000 1.0
C      1  0.4970850000000  0.5320670000000  0.5333030000000 1.0
C      1  0.5302030000000  0.5118490000000  0.5128760000000 1.0
C      1  0.5245100000000  0.4723450000000  0.5147800000000 1.0
C      1  0.4813700000000  0.4662970000000  0.5151200000000 1.0
C      1  0.5837210000000  0.4326600000000  0.5412910000000 1.0
C      1  0.4693130000000  0.4003090000000  0.5349720000000 1.0
C      1  0.4010430000000  0.5078130000000  0.5451780000000 1.0
C      1  0.4904250000000  0.5963570000000  0.5405100000000 1.0
C      1  0.5692350000000  0.5417640000000  0.5465180000000 1.0
C      1  0.4400750000000  0.4371330000000  0.5173160000000 1.0
C      1  0.4315630000000  0.5438000000000  0.5198800000000 1.0
C      1  0.5174300000000  0.5823550000000  0.5145500000000 1.0
C      1  0.5792280000000  0.5206450000000  0.5141620000000 1.0
C      1  0.5577490000000  0.4211080000000  0.5134250000000 1.0
C      1  0.5684370000000  0.4406000000000  0.4413030000000 1.0
C      1  0.4598180000000  0.4327970000000  0.4486090000000 1.0
C      1  0.4118120000000  0.5227960000000  0.4516960000000 1.0
C      1  0.4780940000000  0.5962190000000  0.4455050000000 1.0
C      1  0.5702000000000  0.5380510000000  0.4419330000000 1.0
C      1  0.5155860000000  0.5288010000000  0.4392140000000 1.0
C      1  0.5356800000000  0.4839870000000  0.4227760000000 1.0
C      1  0.4897320000000  0.4695170000000  0.4345590000000 1.0
C      1  0.4487080000000  0.4964930000000  0.4276750000000 1.0
C      1  0.4699510000000  0.5461180000000  0.4214990000000 1.0
C      1  0.4178040000000  0.4538580000000  0.5226260000000 1.0
C      1  0.4389260000000  0.5704780000000  0.5245990000000 1.0
C      1  0.5423170000000  0.6019610000000  0.5180300000000 1.0
C      1  0.5977550000000  0.4958370000000  0.5198770000000 1.0
C      1  0.5266270000000  0.4139500000000  0.5257240000000 1.0
C      1  0.5250150000000  0.4473480000000  0.5626890000000 1.0
C      1  0.4665770000000  0.4684050000000  0.5790050000000 1.0
C      1  0.4524240000000  0.5350870000000  0.5754220000000 1.0
C      1  0.5036520000000  0.5212710000000  0.5803840000000 1.0
C      1  0.5514450000000  0.4959250000000  0.5679150000000 1.0
C      1  0.4793940000000  0.4698240000000  0.4735720000000 1.0
C      1  0.4515720000000  0.5070620000000  0.4723620000000 1.0
C      1  0.4947920000000  0.5402080000000  0.4635990000000 1.0
C      1  0.5409520000000  0.5198850000000  0.4752060000000 1.0
C      1  0.5239570000000  0.4725620000000  0.4679100000000 1.0
C      1  0.4973570000000  0.5858660000000  0.6028620000000 1.0
C      1  0.5822170000000  0.4817230000000  0.5663220000000 1.0
C      1  0.5184810000000  0.4120550000000  0.5798160000000 1.0
C      1  0.4358720000000  0.4562090000000  0.5708780000000 1.0
C      1  0.4338310000000  0.5601780000000  0.5708340000000 1.0
C      1  0.4603770000000  0.4774560000000  0.5468220000000 1.0
C      1  0.4721090000000  0.5427230000000  0.5487660000000 1.0
C      1  0.5221190000000  0.5309190000000  0.5536740000000 1.0
C      1  0.5313510000000  0.4772630000000  0.5477960000000 1.0
C      1  0.5003700000000  0.4535350000000  0.5402710000000 1.0
C      1  0.5090850000000  0.5818020000000  0.4820550000000 1.0
C      1  0.5675540000000  0.5327860000000  0.4879070000000 1.0
C      1  0.5493760000000  0.4397990000000  0.4877110000000 1.0
C      1  0.4519470000000  0.4275390000000  0.4945380000000 1.0
C      1  0.4131700000000  0.5256820000000  0.5026530000000 1.0
C      1  0.4842030000000  0.5176700000000  0.7245090000000 1.0
C      1  0.5024830000000  0.4934870000000  0.6511430000000 1.0
C      1  0.5104740000000  0.4888050000000  0.3391900000000 1.0
C      1  0.5169420000000  0.4808870000000  0.3145940000000 1.0
C      1  0.5025970000000  0.4945060000000  0.3639830000000 1.0
C      1  0.5330840000000  0.4647510000000  0.2669950000000 1.0
C      1  0.5015230000000  0.4945690000000  0.4809490000000 1.0
C      1  0.5021950000000  0.4985540000000  0.4471240000000 1.0
C      1  0.5258640000000  0.4737730000000  0.2905220000000 1.0
C      1  0.4999700000000  0.4874200000000  0.5430920000000 1.0
C      1  0.4903460000000  0.5046160000000  0.4158190000000 1.0
C      1  0.4927910000000  0.4899320000000  0.5762850000000 1.0
C      1  0.5085700000000  0.4878310000000  0.6258460000000 1.0
C      1  0.4952400000000  0.5013360000000  0.6755420000000 1.0
C      1  0.5138250000000  0.4795090000000  0.6001890000000 1.0
C      1  0.4904650000000  0.5086670000000  0.7007020000000 1.0
C      1  0.4981410000000  0.5044470000000  0.5134810000000 1.0
C      1  0.4972580000000  0.5006370000000  0.3893430000000 1.0
END
