TITL C-2622960-5345-297 0.000813706812533845 125000 -429.475239892043 0 0 75 (C1) n - 1
REM
REM in /nfs/bkarasulu/CARBON/AIRSS/Generating-Clusters/AIREBO/with-SteepDescent/Higher-Symm/SD-CG/HFTN-CG
REM
REM
REM
REM
REM
REM ./C.cell (b20cbc046b6831c77cfcea5457e17084)
REM
REM compiler GCC version 9.2.1 20190827 (Red Hat 9.2.1-1)
REM options -cpp -mtune=generic -march=x86-64 -g -O0 -fpre-include=/usr/include/finclude/math-vector-fortran.h
REM seed 2095476561 -743736918 -1433001232 1725426941 -1189939327 -860086727 621093049 2000305458 1035107297 -1631196365 -1934640055 1919096456 1831444952 5019311 -689808698 764861862 1234316421 -1495595743 -1786253870 901150995 1829026053 1104795738 -527766235 -1166191489 -84091297 1618339222 -1309632991 1574846882 1397526075 299287405 -500731669 1197127676 -2002848216
REM
CELL 1.54180   50.00000   50.00000   50.00000   90.00000   90.00000   90.00000
LATT -1
SFAC C  
C      1  0.4779330000000  0.4342470000000  0.4772140000000 1.0
C      1  0.4779970000000  0.5023220000000  0.4243300000000 1.0
C      1  0.4819220000000  0.5693670000000  0.4773730000000 1.0
C      1  0.4866190000000  0.5457880000000  0.5560520000000 1.0
C      1  0.4787310000000  0.4555430000000  0.5587890000000 1.0
C      1  0.4870230000000  0.4316450000000  0.5179280000000 1.0
C      1  0.4812960000000  0.5017300000000  0.5758880000000 1.0
C      1  0.4769760000000  0.5645630000000  0.5204950000000 1.0
C      1  0.4844570000000  0.5459560000000  0.4369350000000 1.0
C      1  0.4829720000000  0.4581890000000  0.4385050000000 1.0
C      1  0.4589530000000  0.5497030000000  0.5537770000000 1.0
C      1  0.4505700000000  0.4637720000000  0.5749460000000 1.0
C      1  0.4487410000000  0.4189510000000  0.4838220000000 1.0
C      1  0.4496140000000  0.4878550000000  0.4144850000000 1.0
C      1  0.4549900000000  0.5651080000000  0.4691520000000 1.0
C      1  0.4572990000000  0.5521960000000  0.4412850000000 1.0
C      1  0.4559670000000  0.4640810000000  0.4335910000000 1.0
C      1  0.4596170000000  0.4280980000000  0.5122290000000 1.0
C      1  0.4524190000000  0.4912080000000  0.5889330000000 1.0
C      1  0.4478180000000  0.5728570000000  0.5353260000000 1.0
C      1  0.5569300000000  0.4731550000000  0.4641910000000 1.0
C      1  0.5572660000000  0.5269350000000  0.4623600000000 1.0
C      1  0.5550150000000  0.5426890000000  0.5143360000000 1.0
C      1  0.5561960000000  0.5002540000000  0.5468130000000 1.0
C      1  0.5569620000000  0.4553560000000  0.5155420000000 1.0
C      1  0.5551020000000  0.4725370000000  0.5376900000000 1.0
C      1  0.5572750000000  0.5271130000000  0.5385040000000 1.0
C      1  0.5568720000000  0.5429540000000  0.4864880000000 1.0
C      1  0.5554040000000  0.5003410000000  0.4541490000000 1.0
C      1  0.5550930000000  0.4568190000000  0.4868370000000 1.0
C      1  0.5126080000000  0.5107830000000  0.5776430000000 1.0
C      1  0.5142980000000  0.4267160000000  0.5337080000000 1.0
C      1  0.5131140000000  0.4464380000000  0.4440930000000 1.0
C      1  0.5154900000000  0.5399190000000  0.4289260000000 1.0
C      1  0.5085090000000  0.5716910000000  0.5170580000000 1.0
C      1  0.5111910000000  0.5089740000000  0.4210460000000 1.0
C      1  0.5094230000000  0.4317740000000  0.4721390000000 1.0
C      1  0.5102610000000  0.4468500000000  0.5570030000000 1.0
C      1  0.5151380000000  0.5398920000000  0.5697390000000 1.0
C      1  0.5131720000000  0.5768970000000  0.4849560000000 1.0
C      1  0.4950080000000  0.5253330000000  0.5354290000000 1.0
C      1  0.4910940000000  0.4748580000000  0.5358470000000 1.0
C      1  0.4893200000000  0.4636010000000  0.4853650000000 1.0
C      1  0.4897570000000  0.5020020000000  0.4539610000000 1.0
C      1  0.4937460000000  0.5420370000000  0.4835890000000 1.0
C      1  0.4939790000000  0.5279010000000  0.4602450000000 1.0
C      1  0.4926720000000  0.4761440000000  0.4613320000000 1.0
C      1  0.4935350000000  0.4604400000000  0.5126880000000 1.0
C      1  0.4921790000000  0.5000410000000  0.5450400000000 1.0
C      1  0.4908230000000  0.5366250000000  0.5102930000000 1.0
C      1  0.4456180000000  0.5241480000000  0.5421550000000 1.0
C      1  0.4520510000000  0.4683780000000  0.5412920000000 1.0
C      1  0.4497850000000  0.4529250000000  0.4827280000000 1.0
C      1  0.4506860000000  0.5017360000000  0.4455110000000 1.0
C      1  0.4408420000000  0.5432480000000  0.4866220000000 1.0
C      1  0.4432980000000  0.5289000000000  0.4575010000000 1.0
C      1  0.4432550000000  0.4718680000000  0.4604620000000 1.0
C      1  0.4448890000000  0.4550870000000  0.5164130000000 1.0
C      1  0.4537350000000  0.4987220000000  0.5557940000000 1.0
C      1  0.4490770000000  0.5452530000000  0.5155050000000 1.0
C      1  0.5422140000000  0.4320650000000  0.4801140000000 1.0
C      1  0.5422610000000  0.4979430000000  0.4288000000000 1.0
C      1  0.5441000000000  0.5670200000000  0.4763690000000 1.0
C      1  0.5457190000000  0.5451650000000  0.5581990000000 1.0
C      1  0.5409040000000  0.4596710000000  0.5593910000000 1.0
C      1  0.5452020000000  0.4294980000000  0.5215910000000 1.0
C      1  0.5423370000000  0.4973630000000  0.5724440000000 1.0
C      1  0.5415460000000  0.5664250000000  0.5231330000000 1.0
C      1  0.5452280000000  0.5446670000000  0.4429830000000 1.0
C      1  0.5437260000000  0.4600320000000  0.4414680000000 1.0
C      1  0.5205940000000  0.4178330000000  0.5012300000000 1.0
C      1  0.5185870000000  0.5624130000000  0.4544500000000 1.0
C      1  0.5202290000000  0.5660880000000  0.5486640000000 1.0
C      1  0.5169120000000  0.4759200000000  0.4275760000000 1.0
C      1  0.5145500000000  0.4773870000000  0.5715400000000 1.0
END
