TITL C-2622967-6265-571 0.000291677351792918 125000 -938.395608431495 0 0 167 (C1) n - 1
REM
REM in /nfs/bkarasulu/CARBON/AIRSS/Generating-Clusters/AIREBO/with-SteepDescent/Higher-Symm/SD-CG/HFTN-CG
REM
REM
REM
REM
REM
REM ./C.cell (b20cbc046b6831c77cfcea5457e17084)
REM
REM compiler GCC version 9.2.1 20190827 (Red Hat 9.2.1-1)
REM options -cpp -mtune=generic -march=x86-64 -g -O0 -fpre-include=/usr/include/finclude/math-vector-fortran.h
REM seed -2103558267 -1363376570 -657490241 -229690456 691833246 -1644361237 972032244 -1372648052 1188726895 -1046453856 -2121322619 -1963515997 -866054238 1575271834 -1943894481 230737687 -413995123 1664477913 831293308 1815415569 1354905713 -1077590152 321092418 623654345 1317112750 -1735015204 603721129 1872570262 -666546567 880031338 1303396639 -1552872570 31094722
REM
CELL 1.54180   50.00000   50.00000   50.00000   90.00000   90.00000   90.00000
LATT -1
SFAC C  
C      1  0.5377860000000  0.4132880000000  0.4916830000000 1.0
C      1  0.5408380000000  0.5901980000000  0.5213780000000 1.0
C      1  0.4591300000000  0.4133370000000  0.4806900000000 1.0
C      1  0.4596920000000  0.5828480000000  0.5153440000000 1.0
C      1  0.5438530000000  0.5939190000000  0.4888980000000 1.0
C      1  0.5382130000000  0.4116410000000  0.5256690000000 1.0
C      1  0.4630810000000  0.5839980000000  0.4888010000000 1.0
C      1  0.4608320000000  0.4113930000000  0.5102260000000 1.0
C      1  0.5518030000000  0.4859630000000  0.4597970000000 1.0
C      1  0.5581160000000  0.5145060000000  0.5414610000000 1.0
C      1  0.4449560000000  0.4903860000000  0.4576660000000 1.0
C      1  0.4455690000000  0.5166530000000  0.5417900000000 1.0
C      1  0.5581320000000  0.5178350000000  0.4640080000000 1.0
C      1  0.5540170000000  0.4823040000000  0.5445460000000 1.0
C      1  0.4532980000000  0.5213700000000  0.4547300000000 1.0
C      1  0.4407320000000  0.4848780000000  0.5416970000000 1.0
C      1  0.5491630000000  0.4138090000000  0.5559120000000 1.0
C      1  0.5374490000000  0.6087570000000  0.4582940000000 1.0
C      1  0.4623150000000  0.4068900000000  0.5587820000000 1.0
C      1  0.4687870000000  0.5946140000000  0.4426040000000 1.0
C      1  0.5404480000000  0.5915700000000  0.5538750000000 1.0
C      1  0.5333020000000  0.4047040000000  0.4586660000000 1.0
C      1  0.4588280000000  0.5859020000000  0.5607810000000 1.0
C      1  0.4580240000000  0.4070530000000  0.4492120000000 1.0
C      1  0.4184190000000  0.4383240000000  0.4876020000000 1.0
C      1  0.4162290000000  0.5611280000000  0.5081950000000 1.0
C      1  0.5820370000000  0.4345930000000  0.4757860000000 1.0
C      1  0.5880230000000  0.5660390000000  0.5111600000000 1.0
C      1  0.4210170000000  0.5629130000000  0.4806560000000 1.0
C      1  0.4209090000000  0.4369900000000  0.5163850000000 1.0
C      1  0.5945190000000  0.5697750000000  0.4794760000000 1.0
C      1  0.5799330000000  0.4373710000000  0.5075360000000 1.0
C      1  0.4790260000000  0.4789800000000  0.5336440000000 1.0
C      1  0.4879740000000  0.5115070000000  0.4719160000000 1.0
C      1  0.5177240000000  0.4868940000000  0.5295500000000 1.0
C      1  0.5274120000000  0.5169130000000  0.4661760000000 1.0
C      1  0.4821530000000  0.5075720000000  0.5290460000000 1.0
C      1  0.4828930000000  0.4818180000000  0.4654510000000 1.0
C      1  0.5206180000000  0.5177310000000  0.5284280000000 1.0
C      1  0.5212650000000  0.4950920000000  0.4865580000000 1.0
C      1  0.4493230000000  0.4440500000000  0.4798130000000 1.0
C      1  0.4462880000000  0.5551790000000  0.5233050000000 1.0
C      1  0.5496780000000  0.4411000000000  0.4816630000000 1.0
C      1  0.5546570000000  0.5596850000000  0.5138060000000 1.0
C      1  0.4539270000000  0.5573510000000  0.4750590000000 1.0
C      1  0.4543970000000  0.4407110000000  0.5210010000000 1.0
C      1  0.5612880000000  0.5694110000000  0.4819090000000 1.0
C      1  0.5490390000000  0.4412260000000  0.5212560000000 1.0
C      1  0.4761130000000  0.5394560000000  0.5188210000000 1.0
C      1  0.4768030000000  0.4588830000000  0.4849590000000 1.0
C      1  0.5261460000000  0.5434250000000  0.5087510000000 1.0
C      1  0.5274370000000  0.4659500000000  0.4882830000000 1.0
C      1  0.4841960000000  0.4556200000000  0.5141350000000 1.0
C      1  0.4810250000000  0.5413900000000  0.4865900000000 1.0
C      1  0.5178580000000  0.4546080000000  0.5188750000000 1.0
C      1  0.5141940000000  0.5410750000000  0.4811710000000 1.0
C      1  0.5832410000000  0.4639170000000  0.5649490000000 1.0
C      1  0.5689760000000  0.5369680000000  0.4308370000000 1.0
C      1  0.4258250000000  0.4571760000000  0.5658860000000 1.0
C      1  0.4312920000000  0.5454540000000  0.4318670000000 1.0
C      1  0.5759450000000  0.5405900000000  0.5658350000000 1.0
C      1  0.5760050000000  0.4688740000000  0.4331310000000 1.0
C      1  0.4189470000000  0.5376130000000  0.5646880000000 1.0
C      1  0.4277910000000  0.4630310000000  0.4342720000000 1.0
C      1  0.6016410000000  0.5154270000000  0.5176990000000 1.0
C      1  0.5997290000000  0.4797530000000  0.4801920000000 1.0
C      1  0.4000620000000  0.5184810000000  0.5143640000000 1.0
C      1  0.4008110000000  0.4792550000000  0.4827890000000 1.0
C      1  0.5920230000000  0.4835530000000  0.5108370000000 1.0
C      1  0.5943800000000  0.5134210000000  0.4847010000000 1.0
C      1  0.4111880000000  0.4863490000000  0.5143940000000 1.0
C      1  0.4114000000000  0.5114350000000  0.4832500000000 1.0
C      1  0.4096150000000  0.4399710000000  0.5414090000000 1.0
C      1  0.4103400000000  0.5588490000000  0.4550620000000 1.0
C      1  0.5855450000000  0.4442040000000  0.5369790000000 1.0
C      1  0.5822070000000  0.5621200000000  0.4498200000000 1.0
C      1  0.4097530000000  0.5582840000000  0.5388740000000 1.0
C      1  0.4165890000000  0.4402320000000  0.4571440000000 1.0
C      1  0.5845070000000  0.5621750000000  0.5406440000000 1.0
C      1  0.5694090000000  0.4443410000000  0.4468070000000 1.0
C      1  0.5185520000000  0.5615210000000  0.4585520000000 1.0
C      1  0.5075750000000  0.4420530000000  0.5490950000000 1.0
C      1  0.4923720000000  0.5575710000000  0.4388870000000 1.0
C      1  0.4805570000000  0.4415220000000  0.5669350000000 1.0
C      1  0.5218320000000  0.4559990000000  0.4573100000000 1.0
C      1  0.5238230000000  0.5583280000000  0.5392280000000 1.0
C      1  0.4947850000000  0.4438070000000  0.4640360000000 1.0
C      1  0.4920550000000  0.5495780000000  0.5476180000000 1.0
C      1  0.4417310000000  0.4710100000000  0.5133920000000 1.0
C      1  0.4411800000000  0.5270710000000  0.4838270000000 1.0
C      1  0.5614860000000  0.4713860000000  0.5159220000000 1.0
C      1  0.5706730000000  0.5380960000000  0.4843940000000 1.0
C      1  0.4331180000000  0.5253560000000  0.5136520000000 1.0
C      1  0.4342840000000  0.4744550000000  0.4821820000000 1.0
C      1  0.5711850000000  0.5299370000000  0.5162360000000 1.0
C      1  0.5667660000000  0.4704640000000  0.4830430000000 1.0
C      1  0.4336870000000  0.4890530000000  0.4130920000000 1.0
C      1  0.4361410000000  0.5145630000000  0.5828910000000 1.0
C      1  0.5598790000000  0.4845250000000  0.4141370000000 1.0
C      1  0.5636190000000  0.5153840000000  0.5851150000000 1.0
C      1  0.4412020000000  0.5181350000000  0.4142180000000 1.0
C      1  0.4356040000000  0.4842590000000  0.5841480000000 1.0
C      1  0.5564330000000  0.5147110000000  0.4141690000000 1.0
C      1  0.5639690000000  0.4852730000000  0.5831640000000 1.0
C      1  0.5872700000000  0.4871720000000  0.5420830000000 1.0
C      1  0.5896650000000  0.5232600000000  0.4524950000000 1.0
C      1  0.4076990000000  0.4793500000000  0.5475580000000 1.0
C      1  0.4194700000000  0.5201040000000  0.4511960000000 1.0
C      1  0.5911400000000  0.5184170000000  0.5488620000000 1.0
C      1  0.5849850000000  0.4903580000000  0.4536570000000 1.0
C      1  0.4119590000000  0.5121930000000  0.5447640000000 1.0
C      1  0.4116680000000  0.4870140000000  0.4517520000000 1.0
C      1  0.5353260000000  0.5255180000000  0.5850510000000 1.0
C      1  0.5326630000000  0.4715570000000  0.4084280000000 1.0
C      1  0.4636450000000  0.5239880000000  0.5841740000000 1.0
C      1  0.4605840000000  0.4726550000000  0.4136730000000 1.0
C      1  0.5369570000000  0.4746640000000  0.5839150000000 1.0
C      1  0.5285290000000  0.5200830000000  0.4120000000000 1.0
C      1  0.4640470000000  0.4750240000000  0.5927660000000 1.0
C      1  0.4696660000000  0.5215120000000  0.4113740000000 1.0
C      1  0.4841720000000  0.5252510000000  0.4410270000000 1.0
C      1  0.4653930000000  0.4713370000000  0.5607980000000 1.0
C      1  0.5145570000000  0.5111670000000  0.4383580000000 1.0
C      1  0.5264710000000  0.4684010000000  0.5553730000000 1.0
C      1  0.4673410000000  0.4760080000000  0.4406790000000 1.0
C      1  0.4730200000000  0.5250930000000  0.5556830000000 1.0
C      1  0.5284600000000  0.4811930000000  0.4386220000000 1.0
C      1  0.5331350000000  0.5297690000000  0.5553350000000 1.0
C      1  0.5345330000000  0.5890940000000  0.4346850000000 1.0
C      1  0.5275690000000  0.4104840000000  0.5744810000000 1.0
C      1  0.4857710000000  0.6003680000000  0.4218840000000 1.0
C      1  0.4763600000000  0.4046830000000  0.5819400000000 1.0
C      1  0.5175490000000  0.4145210000000  0.4300720000000 1.0
C      1  0.5195600000000  0.5917640000000  0.5702450000000 1.0
C      1  0.4696100000000  0.4197010000000  0.4219220000000 1.0
C      1  0.4754110000000  0.5815080000000  0.5829540000000 1.0
C      1  0.4817430000000  0.5978970000000  0.4698310000000 1.0
C      1  0.4779580000000  0.3998990000000  0.5342800000000 1.0
C      1  0.5142410000000  0.5890170000000  0.4733980000000 1.0
C      1  0.5076640000000  0.4136850000000  0.5322420000000 1.0
C      1  0.4874590000000  0.4145840000000  0.4648950000000 1.0
C      1  0.4750060000000  0.5911260000000  0.5368970000000 1.0
C      1  0.5088550000000  0.4005490000000  0.4812770000000 1.0
C      1  0.5081080000000  0.5870820000000  0.5300640000000 1.0
C      1  0.4587660000000  0.5621500000000  0.4431300000000 1.0
C      1  0.4495220000000  0.4356930000000  0.5542790000000 1.0
C      1  0.5489760000000  0.5618340000000  0.4425920000000 1.0
C      1  0.5649880000000  0.4356700000000  0.5599420000000 1.0
C      1  0.4396050000000  0.4311420000000  0.4338250000000 1.0
C      1  0.4384020000000  0.5638500000000  0.5552210000000 1.0
C      1  0.5406080000000  0.4342150000000  0.4435770000000 1.0
C      1  0.5542160000000  0.5636850000000  0.5535450000000 1.0
C      1  0.4802790000000  0.4777430000000  0.3938450000000 1.0
C      1  0.4835210000000  0.5177450000000  0.6027070000000 1.0
C      1  0.5125110000000  0.4798830000000  0.3905100000000 1.0
C      1  0.5144040000000  0.5144290000000  0.5996430000000 1.0
C      1  0.4843530000000  0.5079610000000  0.3919430000000 1.0
C      1  0.4860340000000  0.4870320000000  0.6049750000000 1.0
C      1  0.5143020000000  0.5114900000000  0.3890900000000 1.0
C      1  0.5173680000000  0.4837460000000  0.6016790000000 1.0
C      1  0.5021170000000  0.4196240000000  0.5816150000000 1.0
C      1  0.5090670000000  0.5834530000000  0.4244660000000 1.0
C      1  0.4997770000000  0.5719540000000  0.5720310000000 1.0
C      1  0.4952020000000  0.4148540000000  0.4158410000000 1.0
C      1  0.4977260000000  0.6000590000000  0.5010010000000 1.0
C      1  0.4966210000000  0.3926710000000  0.5074940000000 1.0
C      1  0.4999490000000  0.5110540000000  0.5034210000000 1.0
END
