TITL C-2622966-9038-246 0.00130458873088287 125000 -803.604401870723 0 0 149 (C1) n - 1
REM
REM in /nfs/bkarasulu/CARBON/AIRSS/Generating-Clusters/AIREBO/with-SteepDescent/Higher-Symm/SD-CG/HFTN-CG
REM
REM
REM
REM
REM
REM ./C.cell (b20cbc046b6831c77cfcea5457e17084)
REM
REM compiler GCC version 9.2.1 20190827 (Red Hat 9.2.1-1)
REM options -cpp -mtune=generic -march=x86-64 -g -O0 -fpre-include=/usr/include/finclude/math-vector-fortran.h
REM seed -847384415 -734719629 -50866136 5928180 -2022341490 378006893 2071090277 -613448396 211450758 -151161293 -560383205 457742953 -1838489466 1185906653 -1723578698 981040636 517072224 1805952222 -1100352539 647821347 -581036492 801012330 1151624480 2026964165 -706681174 -1450210078 1596438626 1731171606 -1100846177 635063272 1754757796 1064039356 -694651938
REM
CELL 1.54180   50.00000   50.00000   50.00000   90.00000   90.00000   90.00000
LATT -1
SFAC C  
C      1  0.5086470000000  0.4499830000000  0.4681010000000 1.0
C      1  0.5061690000000  0.5452340000000  0.4828910000000 1.0
C      1  0.5100150000000  0.4977120000000  0.5505210000000 1.0
C      1  0.4360580000000  0.5045370000000  0.4320980000000 1.0
C      1  0.4580920000000  0.5395640000000  0.5232310000000 1.0
C      1  0.4598780000000  0.4621980000000  0.5196960000000 1.0
C      1  0.5077710000000  0.4807410000000  0.4312970000000 1.0
C      1  0.5128100000000  0.5725850000000  0.5112000000000 1.0
C      1  0.5147140000000  0.4512800000000  0.5575120000000 1.0
C      1  0.4054180000000  0.5086850000000  0.4827790000000 1.0
C      1  0.4082370000000  0.5120110000000  0.5224920000000 1.0
C      1  0.4089630000000  0.4707780000000  0.5025830000000 1.0
C      1  0.5265170000000  0.5234300000000  0.4049800000000 1.0
C      1  0.5218180000000  0.5727160000000  0.5646720000000 1.0
C      1  0.5088980000000  0.3856530000000  0.5347150000000 1.0
C      1  0.4158660000000  0.4874210000000  0.4393710000000 1.0
C      1  0.4002100000000  0.5599790000000  0.5047110000000 1.0
C      1  0.4317120000000  0.4541480000000  0.5668810000000 1.0
C      1  0.4751710000000  0.3928860000000  0.4863270000000 1.0
C      1  0.4713120000000  0.5596640000000  0.4100920000000 1.0
C      1  0.4893160000000  0.5508160000000  0.6041990000000 1.0
C      1  0.5372960000000  0.6040820000000  0.5123340000000 1.0
C      1  0.5365260000000  0.4303710000000  0.5836630000000 1.0
C      1  0.5408250000000  0.4686560000000  0.4009170000000 1.0
C      1  0.4620870000000  0.5722460000000  0.5237940000000 1.0
C      1  0.4667660000000  0.4543620000000  0.5477360000000 1.0
C      1  0.4590930000000  0.4903440000000  0.4269510000000 1.0
C      1  0.5754860000000  0.4793040000000  0.4412030000000 1.0
C      1  0.5726030000000  0.5631620000000  0.5087960000000 1.0
C      1  0.5693250000000  0.4548840000000  0.5510560000000 1.0
C      1  0.4625000000000  0.4502900000000  0.5808020000000 1.0
C      1  0.4695960000000  0.4501730000000  0.3997810000000 1.0
C      1  0.4621840000000  0.5990620000000  0.5043390000000 1.0
C      1  0.4791090000000  0.4058510000000  0.4562790000000 1.0
C      1  0.4650780000000  0.5837830000000  0.4323400000000 1.0
C      1  0.4805810000000  0.5175070000000  0.6077310000000 1.0
C      1  0.5793410000000  0.5638870000000  0.4611960000000 1.0
C      1  0.5678920000000  0.5036660000000  0.5741960000000 1.0
C      1  0.5700450000000  0.4276630000000  0.4658430000000 1.0
C      1  0.5757070000000  0.4595500000000  0.4689820000000 1.0
C      1  0.5780130000000  0.5402330000000  0.4834780000000 1.0
C      1  0.5772130000000  0.4880090000000  0.5457600000000 1.0
C      1  0.4425760000000  0.4986850000000  0.5803290000000 1.0
C      1  0.4437850000000  0.4445600000000  0.4399420000000 1.0
C      1  0.4299430000000  0.5733660000000  0.4667890000000 1.0
C      1  0.5432790000000  0.5206630000000  0.5825180000000 1.0
C      1  0.5463110000000  0.4165950000000  0.4525350000000 1.0
C      1  0.5619210000000  0.5795910000000  0.4439600000000 1.0
C      1  0.4160850000000  0.5224570000000  0.5473990000000 1.0
C      1  0.4177950000000  0.4460780000000  0.4905660000000 1.0
C      1  0.4095910000000  0.5293560000000  0.4635800000000 1.0
C      1  0.3812490000000  0.5131000000000  0.5172130000000 1.0
C      1  0.3839590000000  0.4729960000000  0.5137870000000 1.0
C      1  0.3805700000000  0.4961580000000  0.4814870000000 1.0
C      1  0.5124860000000  0.5286000000000  0.6095720000000 1.0
C      1  0.5054740000000  0.3919200000000  0.4725580000000 1.0
C      1  0.4967860000000  0.5719080000000  0.4292330000000 1.0
C      1  0.5134250000000  0.4650320000000  0.4086830000000 1.0
C      1  0.5093620000000  0.6000370000000  0.5015110000000 1.0
C      1  0.5102540000000  0.4443200000000  0.5859550000000 1.0
C      1  0.4416110000000  0.5309860000000  0.4522590000000 1.0
C      1  0.4497680000000  0.5251050000000  0.5511980000000 1.0
C      1  0.4484330000000  0.4420000000000  0.4986490000000 1.0
C      1  0.5526670000000  0.4736630000000  0.5734550000000 1.0
C      1  0.5496170000000  0.4599350000000  0.4389260000000 1.0
C      1  0.5533800000000  0.5713400000000  0.4820060000000 1.0
C      1  0.4616190000000  0.4806480000000  0.5671690000000 1.0
C      1  0.4531510000000  0.4628140000000  0.4192850000000 1.0
C      1  0.4452500000000  0.5728410000000  0.4953060000000 1.0
C      1  0.5336960000000  0.5539620000000  0.4988650000000 1.0
C      1  0.5326690000000  0.4736100000000  0.5494300000000 1.0
C      1  0.5255620000000  0.4714280000000  0.4528680000000 1.0
C      1  0.5729320000000  0.4244090000000  0.5110000000000 1.0
C      1  0.5944540000000  0.5241270000000  0.4291070000000 1.0
C      1  0.5822910000000  0.5452680000000  0.5555410000000 1.0
C      1  0.4812260000000  0.5340470000000  0.4541770000000 1.0
C      1  0.4868900000000  0.5244550000000  0.5691090000000 1.0
C      1  0.4883220000000  0.4423190000000  0.5013520000000 1.0
C      1  0.5122360000000  0.5067480000000  0.5832540000000 1.0
C      1  0.5166890000000  0.4189110000000  0.4588780000000 1.0
C      1  0.5087950000000  0.5690280000000  0.4586380000000 1.0
C      1  0.5093270000000  0.4725800000000  0.5162430000000 1.0
C      1  0.5128840000000  0.5119160000000  0.4841430000000 1.0
C      1  0.5115290000000  0.5064820000000  0.5176810000000 1.0
C      1  0.4770490000000  0.4593490000000  0.4765520000000 1.0
C      1  0.4740850000000  0.5339950000000  0.4847240000000 1.0
C      1  0.4778420000000  0.4921140000000  0.5406300000000 1.0
C      1  0.5764090000000  0.4545010000000  0.5182820000000 1.0
C      1  0.5907990000000  0.5051790000000  0.4496890000000 1.0
C      1  0.5784660000000  0.5347210000000  0.5262560000000 1.0
C      1  0.4449810000000  0.4967090000000  0.5330510000000 1.0
C      1  0.4466280000000  0.4726700000000  0.4840200000000 1.0
C      1  0.4424880000000  0.5242660000000  0.4856280000000 1.0
C      1  0.5923040000000  0.5131040000000  0.4764620000000 1.0
C      1  0.5910260000000  0.5068250000000  0.5240170000000 1.0
C      1  0.5923740000000  0.4686000000000  0.4956340000000 1.0
C      1  0.4940760000000  0.4275350000000  0.4347330000000 1.0
C      1  0.4810710000000  0.5848310000000  0.4633680000000 1.0
C      1  0.4911040000000  0.4860930000000  0.6000850000000 1.0
C      1  0.5019310000000  0.4177200000000  0.5330180000000 1.0
C      1  0.5123090000000  0.5202480000000  0.4333010000000 1.0
C      1  0.5039450000000  0.5465980000000  0.5522360000000 1.0
C      1  0.5488300000000  0.4732570000000  0.5220550000000 1.0
C      1  0.5371470000000  0.4906540000000  0.4738740000000 1.0
C      1  0.5499320000000  0.5303010000000  0.5100110000000 1.0
C      1  0.4074030000000  0.5588020000000  0.4617830000000 1.0
C      1  0.4163610000000  0.5015150000000  0.5678360000000 1.0
C      1  0.4180720000000  0.4412140000000  0.4584260000000 1.0
C      1  0.5269710000000  0.5259980000000  0.5421990000000 1.0
C      1  0.5239930000000  0.4588990000000  0.4941900000000 1.0
C      1  0.5281650000000  0.5249700000000  0.4565990000000 1.0
C      1  0.4248350000000  0.4763080000000  0.5524280000000 1.0
C      1  0.4237520000000  0.4717480000000  0.4609090000000 1.0
C      1  0.4240880000000  0.5498560000000  0.4984210000000 1.0
C      1  0.4798850000000  0.4842960000000  0.5075900000000 1.0
C      1  0.4869310000000  0.4918560000000  0.4751430000000 1.0
C      1  0.4870880000000  0.5290930000000  0.5140640000000 1.0
C      1  0.5384470000000  0.4898660000000  0.5968720000000 1.0
C      1  0.5522790000000  0.4345740000000  0.4307080000000 1.0
C      1  0.5360220000000  0.5820490000000  0.4567580000000 1.0
C      1  0.4813020000000  0.3976540000000  0.5182340000000 1.0
C      1  0.4954520000000  0.5366460000000  0.4109540000000 1.0
C      1  0.4905860000000  0.5650960000000  0.5774510000000 1.0
C      1  0.4585200000000  0.5238710000000  0.5840570000000 1.0
C      1  0.4681220000000  0.4366200000000  0.4545920000000 1.0
C      1  0.4591780000000  0.5598950000000  0.4558340000000 1.0
C      1  0.5519520000000  0.5838800000000  0.5261300000000 1.0
C      1  0.5484220000000  0.4291760000000  0.5588120000000 1.0
C      1  0.5588890000000  0.4879480000000  0.4127380000000 1.0
C      1  0.4641450000000  0.5321870000000  0.4263630000000 1.0
C      1  0.4633000000000  0.5551300000000  0.5597450000000 1.0
C      1  0.4522920000000  0.4097180000000  0.5048980000000 1.0
C      1  0.5536830000000  0.5151950000000  0.4054720000000 1.0
C      1  0.5470420000000  0.5781920000000  0.5540870000000 1.0
C      1  0.5338790000000  0.4091510000000  0.5379340000000 1.0
C      1  0.4846820000000  0.6022120000000  0.4877980000000 1.0
C      1  0.4881190000000  0.4585100000000  0.5962680000000 1.0
C      1  0.4955580000000  0.4428870000000  0.4086750000000 1.0
C      1  0.5696600000000  0.5667540000000  0.5667490000000 1.0
C      1  0.5566310000000  0.4066720000000  0.5171500000000 1.0
C      1  0.5766910000000  0.5312530000000  0.4090720000000 1.0
C      1  0.5530900000000  0.4694600000000  0.4895590000000 1.0
C      1  0.5519640000000  0.5199290000000  0.4793650000000 1.0
C      1  0.5517640000000  0.5053850000000  0.5313820000000 1.0
C      1  0.4923180000000  0.5589920000000  0.5263670000000 1.0
C      1  0.4946650000000  0.4477770000000  0.5343070000000 1.0
C      1  0.4850660000000  0.5022340000000  0.4427630000000 1.0
C      1  0.4308280000000  0.4968430000000  0.5020620000000 1.0
C      1  0.5954100000000  0.4962190000000  0.4985790000000 1.0
END
