TITL C-2622966-9038-36 0.00105406328731705 125000 -460.502137924418 0 0 86 (C1) n - 1
REM
REM in /nfs/bkarasulu/CARBON/AIRSS/Generating-Clusters/AIREBO/with-SteepDescent/Higher-Symm/SD-CG/HFTN-CG
REM
REM
REM
REM
REM
REM ./C.cell (b20cbc046b6831c77cfcea5457e17084)
REM
REM compiler GCC version 9.2.1 20190827 (Red Hat 9.2.1-1)
REM options -cpp -mtune=generic -march=x86-64 -g -O0 -fpre-include=/usr/include/finclude/math-vector-fortran.h
REM seed 1218180992 2127337578 535911867 -1888972661 346321541 2121787975 -1659539089 -1811119968 26852020 -1037973872 427289100 689053654 -1021098102 -98246082 -1734479546 -1651703877 1835487441 -330070751 -1349142369 -215662152 -2079751906 -369907272 1212569181 821107667 -939001730 -41888042 74145516 -1527362858 -1244212302 545774292 -169380218 -1777347082 -813680924
REM
CELL 1.54180   50.00000   50.00000   50.00000   90.00000   90.00000   90.00000
LATT -1
SFAC C  
C      1  0.4804480000000  0.4595350000000  0.4732950000000 1.0
C      1  0.4810550000000  0.5392350000000  0.5230290000000 1.0
C      1  0.5246190000000  0.4634260000000  0.4779920000000 1.0
C      1  0.5208630000000  0.5384820000000  0.5239440000000 1.0
C      1  0.5478490000000  0.5085020000000  0.5813500000000 1.0
C      1  0.5506170000000  0.4916580000000  0.4168250000000 1.0
C      1  0.4562510000000  0.5056530000000  0.5808900000000 1.0
C      1  0.4532430000000  0.4915690000000  0.4172920000000 1.0
C      1  0.4610330000000  0.5155590000000  0.4210600000000 1.0
C      1  0.4729520000000  0.4863650000000  0.5820340000000 1.0
C      1  0.5443730000000  0.5160280000000  0.4205570000000 1.0
C      1  0.5331330000000  0.4877590000000  0.5832630000000 1.0
C      1  0.4217400000000  0.4795590000000  0.4672980000000 1.0
C      1  0.4154940000000  0.5190380000000  0.5320370000000 1.0
C      1  0.5864950000000  0.4845140000000  0.4684390000000 1.0
C      1  0.5709670000000  0.5089940000000  0.5352630000000 1.0
C      1  0.4849180000000  0.4695020000000  0.5024920000000 1.0
C      1  0.4810840000000  0.5337450000000  0.4904500000000 1.0
C      1  0.5153510000000  0.4677550000000  0.5078100000000 1.0
C      1  0.5128730000000  0.5430340000000  0.4929130000000 1.0
C      1  0.5294930000000  0.4952070000000  0.5123780000000 1.0
C      1  0.5208940000000  0.5106240000000  0.4875550000000 1.0
C      1  0.4651180000000  0.4929890000000  0.5140880000000 1.0
C      1  0.4755180000000  0.5049420000000  0.4874090000000 1.0
C      1  0.5659280000000  0.5614510000000  0.4866180000000 1.0
C      1  0.5530600000000  0.4507030000000  0.5125300000000 1.0
C      1  0.4402940000000  0.5553000000000  0.4831040000000 1.0
C      1  0.4448300000000  0.4466390000000  0.5178610000000 1.0
C      1  0.5394870000000  0.4291550000000  0.5346250000000 1.0
C      1  0.5480270000000  0.5641280000000  0.4589930000000 1.0
C      1  0.4624430000000  0.4323030000000  0.5423440000000 1.0
C      1  0.4588600000000  0.5572160000000  0.4565440000000 1.0
C      1  0.4636150000000  0.4718750000000  0.4391880000000 1.0
C      1  0.4617430000000  0.5264160000000  0.5582430000000 1.0
C      1  0.5400140000000  0.4736030000000  0.4396420000000 1.0
C      1  0.5393460000000  0.5275940000000  0.5581960000000 1.0
C      1  0.4847990000000  0.4899540000000  0.4587260000000 1.0
C      1  0.4828330000000  0.5088350000000  0.5381740000000 1.0
C      1  0.5189690000000  0.4914380000000  0.4595510000000 1.0
C      1  0.5172860000000  0.5094770000000  0.5396900000000 1.0
C      1  0.5561070000000  0.5325160000000  0.4705390000000 1.0
C      1  0.5376780000000  0.4623820000000  0.5405490000000 1.0
C      1  0.4459450000000  0.5250420000000  0.4695600000000 1.0
C      1  0.4554600000000  0.4647370000000  0.5451080000000 1.0
C      1  0.4567180000000  0.5586290000000  0.5100800000000 1.0
C      1  0.4545500000000  0.4457320000000  0.4899290000000 1.0
C      1  0.5530850000000  0.5658260000000  0.5153150000000 1.0
C      1  0.5484620000000  0.4393180000000  0.4809070000000 1.0
C      1  0.5156590000000  0.5625360000000  0.5439900000000 1.0
C      1  0.5176990000000  0.4388530000000  0.4555350000000 1.0
C      1  0.4845730000000  0.5650730000000  0.5449780000000 1.0
C      1  0.4864190000000  0.4372050000000  0.4525530000000 1.0
C      1  0.5225640000000  0.4192260000000  0.4807430000000 1.0
C      1  0.5277520000000  0.5774640000000  0.5193690000000 1.0
C      1  0.4735690000000  0.4085110000000  0.4616900000000 1.0
C      1  0.4764040000000  0.5955990000000  0.5345280000000 1.0
C      1  0.4270860000000  0.5040740000000  0.4845150000000 1.0
C      1  0.4334940000000  0.4951710000000  0.5158320000000 1.0
C      1  0.5738120000000  0.5094820000000  0.4841800000000 1.0
C      1  0.5601210000000  0.4960570000000  0.5122580000000 1.0
C      1  0.4890930000000  0.5465180000000  0.4609970000000 1.0
C      1  0.4901190000000  0.4454150000000  0.5446330000000 1.0
C      1  0.5205210000000  0.5471280000000  0.4598360000000 1.0
C      1  0.5100350000000  0.4397220000000  0.5229790000000 1.0
C      1  0.5051630000000  0.5754880000000  0.4995030000000 1.0
C      1  0.5011410000000  0.4220690000000  0.4994430000000 1.0
C      1  0.4790940000000  0.5810460000000  0.5088640000000 1.0
C      1  0.4758230000000  0.4218740000000  0.4878560000000 1.0
C      1  0.5683350000000  0.4711730000000  0.4935910000000 1.0
C      1  0.5747530000000  0.5351990000000  0.5055230000000 1.0
C      1  0.4220700000000  0.4676230000000  0.5234390000000 1.0
C      1  0.4274940000000  0.5325390000000  0.5037840000000 1.0
C      1  0.4429530000000  0.5383250000000  0.5343970000000 1.0
C      1  0.4423570000000  0.4616500000000  0.4622280000000 1.0
C      1  0.5616770000000  0.5407150000000  0.5366010000000 1.0
C      1  0.5606000000000  0.4639380000000  0.4606400000000 1.0
C      1  0.5230130000000  0.5513170000000  0.5719790000000 1.0
C      1  0.5250710000000  0.4494220000000  0.4270210000000 1.0
C      1  0.4771990000000  0.5500730000000  0.5709750000000 1.0
C      1  0.4796440000000  0.4487200000000  0.4248150000000 1.0
C      1  0.5334760000000  0.5202220000000  0.4486940000000 1.0
C      1  0.5196810000000  0.4800220000000  0.5565130000000 1.0
C      1  0.4712050000000  0.5198380000000  0.4498300000000 1.0
C      1  0.4859440000000  0.4782040000000  0.5526330000000 1.0
C      1  0.5031090000000  0.4493990000000  0.4105640000000 1.0
C      1  0.4998260000000  0.5491680000000  0.5868100000000 1.0
END
