TITL C-2622967-6265-270 0.0183605089288895 125000 -223.258070729648 0 0 48 (C1) n - 1
REM
REM in /nfs/bkarasulu/CARBON/AIRSS/Generating-Clusters/AIREBO/with-SteepDescent/Higher-Symm/SD-CG/HFTN-CG
REM
REM
REM
REM
REM
REM ./C.cell (b20cbc046b6831c77cfcea5457e17084)
REM
REM compiler GCC version 9.2.1 20190827 (Red Hat 9.2.1-1)
REM options -cpp -mtune=generic -march=x86-64 -g -O0 -fpre-include=/usr/include/finclude/math-vector-fortran.h
REM seed -17589640 1987865367 2061395686 -1789865499 1134163026 -896950595 -1634207746 1394820951 -1930684621 -828028509 -761925885 1961311682 948880535 1538761240 1190232424 2014913273 395698301 -567482503 2113949579 -1548080864 -1197650417 -637360199 -608328548 1027424840 259171689 -1182993095 -976067017 1395425235 -1889547985 1690662787 -1245210610 -735786915 167622231
REM
CELL 1.54180   50.00000   50.00000   50.00000   90.00000   90.00000   90.00000
LATT -1
SFAC C  
C      1  0.4963670000000  0.4713030000000  0.4675970000000 1.0
C      1  0.5295380000000  0.5040460000000  0.4581550000000 1.0
C      1  0.5035610000000  0.5257610000000  0.4614960000000 1.0
C      1  0.4806090000000  0.5014740000000  0.4677980000000 1.0
C      1  0.4991140000000  0.4731080000000  0.5383320000000 1.0
C      1  0.5182680000000  0.5001330000000  0.5306380000000 1.0
C      1  0.4994400000000  0.5281860000000  0.5346150000000 1.0
C      1  0.4790980000000  0.5004960000000  0.5407600000000 1.0
C      1  0.5222630000000  0.5366290000000  0.5130360000000 1.0
C      1  0.4590810000000  0.5160850000000  0.5201490000000 1.0
C      1  0.4765310000000  0.4681770000000  0.5148290000000 1.0
C      1  0.5405550000000  0.4854860000000  0.5093910000000 1.0
C      1  0.5230090000000  0.5303880000000  0.4874310000000 1.0
C      1  0.4581630000000  0.5152780000000  0.4876390000000 1.0
C      1  0.4734130000000  0.4677910000000  0.4880670000000 1.0
C      1  0.5433220000000  0.4832480000000  0.4759460000000 1.0
C      1  0.4402700000000  0.4946740000000  0.5341640000000 1.0
C      1  0.4918860000000  0.4398750000000  0.5379230000000 1.0
C      1  0.5576640000000  0.5051160000000  0.5273250000000 1.0
C      1  0.5075650000000  0.5606410000000  0.5407650000000 1.0
C      1  0.4295860000000  0.5137530000000  0.4769400000000 1.0
C      1  0.4899650000000  0.4390810000000  0.4659380000000 1.0
C      1  0.5691280000000  0.4765240000000  0.4665170000000 1.0
C      1  0.5103690000000  0.5590570000000  0.4630820000000 1.0
C      1  0.4466330000000  0.4685380000000  0.5185630000000 1.0
C      1  0.5275970000000  0.4557620000000  0.5168390000000 1.0
C      1  0.5521130000000  0.5336420000000  0.5161890000000 1.0
C      1  0.4720130000000  0.5445630000000  0.5107230000000 1.0
C      1  0.4446050000000  0.4713140000000  0.4812330000000 1.0
C      1  0.5265780000000  0.4558300000000  0.4871450000000 1.0
C      1  0.5502630000000  0.5310700000000  0.4788910000000 1.0
C      1  0.4738150000000  0.5440350000000  0.4803430000000 1.0
C      1  0.5269480000000  0.4560310000000  0.5478770000000 1.0
C      1  0.5369000000000  0.5230040000000  0.5474490000000 1.0
C      1  0.4714480000000  0.5446640000000  0.5447250000000 1.0
C      1  0.4613430000000  0.4742350000000  0.5513280000000 1.0
C      1  0.5237350000000  0.4563980000000  0.4539790000000 1.0
C      1  0.5471710000000  0.5281560000000  0.4469690000000 1.0
C      1  0.4772810000000  0.5428590000000  0.4482830000000 1.0
C      1  0.4603690000000  0.4790630000000  0.4521670000000 1.0
C      1  0.4793430000000  0.4588010000000  0.5706050000000 1.0
C      1  0.5070030000000  0.4536150000000  0.5722340000000 1.0
C      1  0.5184430000000  0.5351000000000  0.5691770000000 1.0
C      1  0.4905990000000  0.5411330000000  0.5711950000000 1.0
C      1  0.4744560000000  0.4604600000000  0.4360210000000 1.0
C      1  0.5018600000000  0.4553820000000  0.4314510000000 1.0
C      1  0.5294250000000  0.5447700000000  0.4313370000000 1.0
C      1  0.5012960000000  0.5452650000000  0.4267490000000 1.0
END
