TITL C-2622966-9038-386 0.000350058747609857 125000 -373.00730720193 0 0 70 (C1) n - 1
REM
REM in /nfs/bkarasulu/CARBON/AIRSS/Generating-Clusters/AIREBO/with-SteepDescent/Higher-Symm/SD-CG/HFTN-CG
REM
REM
REM
REM
REM
REM ./C.cell (b20cbc046b6831c77cfcea5457e17084)
REM
REM compiler GCC version 9.2.1 20190827 (Red Hat 9.2.1-1)
REM options -cpp -mtune=generic -march=x86-64 -g -O0 -fpre-include=/usr/include/finclude/math-vector-fortran.h
REM seed 1457811989 1667674015 -730966958 1848970736 -1072464966 -1411252933 385855839 809682106 1866436984 1562468818 -2095550029 440437751 2049822530 916015949 -1106370533 -292520109 -2102739554 -1329721491 778096547 1624484811 -1028047414 587198405 -1447745118 -208379804 -1886662376 602366997 -972692915 -208188833 365028696 -681850864 -2091603419 941518879 -16865812
REM
CELL 1.54180   50.00000   50.00000   50.00000   90.00000   90.00000   90.00000
LATT -1
SFAC C  
C      1  0.5789750000000  0.5223220000000  0.4763650000000 1.0
C      1  0.5677970000000  0.4871950000000  0.5296920000000 1.0
C      1  0.4322850000000  0.4847260000000  0.4732540000000 1.0
C      1  0.4273020000000  0.5211260000000  0.5433230000000 1.0
C      1  0.5781240000000  0.4578630000000  0.5263050000000 1.0
C      1  0.5748740000000  0.5396990000000  0.5002000000000 1.0
C      1  0.4268300000000  0.4537770000000  0.4791850000000 1.0
C      1  0.4302630000000  0.5392920000000  0.5203820000000 1.0
C      1  0.4335740000000  0.5184610000000  0.5720330000000 1.0
C      1  0.4295180000000  0.4977190000000  0.4418170000000 1.0
C      1  0.5655540000000  0.4973060000000  0.5620980000000 1.0
C      1  0.5426870000000  0.4768250000000  0.4293070000000 1.0
C      1  0.4310310000000  0.5678810000000  0.5168610000000 1.0
C      1  0.4386100000000  0.4317630000000  0.4915930000000 1.0
C      1  0.5552950000000  0.5602990000000  0.5127330000000 1.0
C      1  0.5720760000000  0.4346300000000  0.5128670000000 1.0
C      1  0.5449050000000  0.4659740000000  0.5042870000000 1.0
C      1  0.5440050000000  0.5263650000000  0.4951610000000 1.0
C      1  0.4578690000000  0.5280520000000  0.5040130000000 1.0
C      1  0.4602870000000  0.4647250000000  0.4981310000000 1.0
C      1  0.5542670000000  0.5014020000000  0.4659230000000 1.0
C      1  0.5374370000000  0.5018000000000  0.5343110000000 1.0
C      1  0.4536830000000  0.5021570000000  0.5340380000000 1.0
C      1  0.4619330000000  0.4991250000000  0.4649010000000 1.0
C      1  0.4829100000000  0.4942150000000  0.4842050000000 1.0
C      1  0.4875850000000  0.5021030000000  0.5314360000000 1.0
C      1  0.5209380000000  0.5076780000000  0.4684250000000 1.0
C      1  0.5135700000000  0.4889220000000  0.5199610000000 1.0
C      1  0.4933400000000  0.4642700000000  0.4914560000000 1.0
C      1  0.4897530000000  0.5162700000000  0.5032510000000 1.0
C      1  0.5201860000000  0.4822130000000  0.4891530000000 1.0
C      1  0.5127120000000  0.5318270000000  0.4909480000000 1.0
C      1  0.4746560000000  0.4702710000000  0.5515930000000 1.0
C      1  0.4644850000000  0.5294640000000  0.4557990000000 1.0
C      1  0.5254290000000  0.5311670000000  0.5436870000000 1.0
C      1  0.5516910000000  0.4690880000000  0.4558450000000 1.0
C      1  0.4642700000000  0.5459490000000  0.4773070000000 1.0
C      1  0.4631810000000  0.4621180000000  0.5310690000000 1.0
C      1  0.5263020000000  0.5519160000000  0.5246800000000 1.0
C      1  0.5427430000000  0.4522100000000  0.4754510000000 1.0
C      1  0.4970490000000  0.4343200000000  0.4859160000000 1.0
C      1  0.4773660000000  0.5685240000000  0.4904920000000 1.0
C      1  0.5061620000000  0.5624200000000  0.4991240000000 1.0
C      1  0.5246500000000  0.4283340000000  0.4827700000000 1.0
C      1  0.4789670000000  0.5155740000000  0.4327620000000 1.0
C      1  0.4863500000000  0.4992600000000  0.5649810000000 1.0
C      1  0.5167630000000  0.5123370000000  0.5668150000000 1.0
C      1  0.5060380000000  0.5101450000000  0.4378990000000 1.0
C      1  0.4619400000000  0.5153570000000  0.5789220000000 1.0
C      1  0.4557350000000  0.4973840000000  0.4255110000000 1.0
C      1  0.5380030000000  0.4946720000000  0.5735460000000 1.0
C      1  0.5333590000000  0.5034560000000  0.4286970000000 1.0
C      1  0.4586290000000  0.5801320000000  0.5113860000000 1.0
C      1  0.4681160000000  0.4230160000000  0.4870070000000 1.0
C      1  0.5370460000000  0.5650210000000  0.4888290000000 1.0
C      1  0.5438930000000  0.4260560000000  0.5056330000000 1.0
C      1  0.4602070000000  0.4729060000000  0.4461690000000 1.0
C      1  0.4656300000000  0.5298370000000  0.5498060000000 1.0
C      1  0.5542360000000  0.5238970000000  0.4404120000000 1.0
C      1  0.5370330000000  0.4719530000000  0.5506000000000 1.0
C      1  0.4649440000000  0.4498120000000  0.4678140000000 1.0
C      1  0.4675990000000  0.5524070000000  0.5256750000000 1.0
C      1  0.5380960000000  0.4475100000000  0.5293530000000 1.0
C      1  0.5443700000000  0.5439720000000  0.4660220000000 1.0
C      1  0.5415200000000  0.5549430000000  0.4341130000000 1.0
C      1  0.5192590000000  0.4436900000000  0.5572360000000 1.0
C      1  0.4892430000000  0.5543530000000  0.5511340000000 1.0
C      1  0.4792400000000  0.4465480000000  0.4370670000000 1.0
C      1  0.5562010000000  0.4961530000000  0.4994730000000 1.0
C      1  0.4470530000000  0.4958470000000  0.5017910000000 1.0
END
