TITL C-2622957-9142-80 0.00203472603637769 125000 -615.60282858038 0 0 107 (C1) n - 1
REM
REM in /nfs/bkarasulu/CARBON/AIRSS/Generating-Clusters/AIREBO/with-SteepDescent/Higher-Symm/SD-CG/HFTN-CG
REM
REM
REM
REM
REM
REM ./C.cell (b20cbc046b6831c77cfcea5457e17084)
REM
REM compiler GCC version 9.2.1 20190827 (Red Hat 9.2.1-1)
REM options -cpp -mtune=generic -march=x86-64 -g -O0 -fpre-include=/usr/include/finclude/math-vector-fortran.h
REM seed 710018171 1086470954 619237676 1475721738 -900996884 -875225392 -1339313625 258083108 -2097259702 497317461 -284439081 1174034565 496315129 1827102646 767525678 748972142 1968679864 -1932102946 -1539471378 872180274 580419344 -1124362682 -681463750 -1430242740 -350426466 -1940360512 -946330535 1337882242 -964945253 -1544249428 -468116935 90485051 966741858
REM
CELL 1.54180   50.00000   50.00000   50.00000   90.00000   90.00000   90.00000
LATT -1
SFAC C  
C      1  0.5263540000000  0.4276540000000  0.4538150000000 1.0
C      1  0.5225640000000  0.5552920000000  0.4227480000000 1.0
C      1  0.5164800000000  0.5830270000000  0.5456770000000 1.0
C      1  0.5099440000000  0.4550680000000  0.5842330000000 1.0
C      1  0.5005140000000  0.4207820000000  0.4505980000000 1.0
C      1  0.4913020000000  0.5468790000000  0.4141460000000 1.0
C      1  0.4893390000000  0.5839160000000  0.5485090000000 1.0
C      1  0.4846800000000  0.4556960000000  0.5855790000000 1.0
C      1  0.4850840000000  0.4965800000000  0.4100410000000 1.0
C      1  0.4970830000000  0.5867710000000  0.4976950000000 1.0
C      1  0.4791850000000  0.5081580000000  0.5739170000000 1.0
C      1  0.4929140000000  0.4112380000000  0.4984780000000 1.0
C      1  0.5185300000000  0.4989590000000  0.4030690000000 1.0
C      1  0.5309750000000  0.5842450000000  0.4948940000000 1.0
C      1  0.5104980000000  0.5034000000000  0.5810740000000 1.0
C      1  0.5205720000000  0.4111610000000  0.5019220000000 1.0
C      1  0.5420640000000  0.5063820000000  0.4804100000000 1.0
C      1  0.5481990000000  0.5208350000000  0.5075290000000 1.0
C      1  0.5557620000000  0.4969500000000  0.5263470000000 1.0
C      1  0.5651340000000  0.4702830000000  0.5141440000000 1.0
C      1  0.4444640000000  0.4737400000000  0.4882790000000 1.0
C      1  0.4485010000000  0.5290230000000  0.4806360000000 1.0
C      1  0.4436760000000  0.5098770000000  0.5270660000000 1.0
C      1  0.4274670000000  0.4532950000000  0.5023870000000 1.0
C      1  0.5435150000000  0.4573950000000  0.4948280000000 1.0
C      1  0.5225930000000  0.5190640000000  0.4554740000000 1.0
C      1  0.5244510000000  0.5376930000000  0.5193800000000 1.0
C      1  0.5291980000000  0.4774280000000  0.5365510000000 1.0
C      1  0.4724650000000  0.4576600000000  0.4818480000000 1.0
C      1  0.4689170000000  0.5292880000000  0.4559230000000 1.0
C      1  0.4688250000000  0.5306930000000  0.5234390000000 1.0
C      1  0.4731370000000  0.4713070000000  0.5382370000000 1.0
C      1  0.4759490000000  0.5614060000000  0.5583640000000 1.0
C      1  0.4498990000000  0.4133870000000  0.5172920000000 1.0
C      1  0.4463910000000  0.4642810000000  0.4325870000000 1.0
C      1  0.4465860000000  0.5621280000000  0.4588420000000 1.0
C      1  0.5484000000000  0.5289810000000  0.5662310000000 1.0
C      1  0.5542580000000  0.4372450000000  0.5377750000000 1.0
C      1  0.5425940000000  0.4478250000000  0.4413350000000 1.0
C      1  0.5366490000000  0.5627150000000  0.4457560000000 1.0
C      1  0.5585700000000  0.5661980000000  0.5023120000000 1.0
C      1  0.5652420000000  0.5033680000000  0.5646440000000 1.0
C      1  0.5758720000000  0.4383890000000  0.5142040000000 1.0
C      1  0.5481550000000  0.4975110000000  0.4193800000000 1.0
C      1  0.4428490000000  0.5601300000000  0.4908890000000 1.0
C      1  0.4495270000000  0.5095410000000  0.5600420000000 1.0
C      1  0.4371110000000  0.4277360000000  0.4959770000000 1.0
C      1  0.4348490000000  0.4889060000000  0.4404870000000 1.0
C      1  0.5646960000000  0.5534400000000  0.5546800000000 1.0
C      1  0.5644750000000  0.4533870000000  0.5635200000000 1.0
C      1  0.5602180000000  0.4541580000000  0.4653890000000 1.0
C      1  0.5548770000000  0.5426120000000  0.4562900000000 1.0
C      1  0.4562330000000  0.5544270000000  0.5393510000000 1.0
C      1  0.4138750000000  0.4905360000000  0.5662600000000 1.0
C      1  0.4413950000000  0.4395510000000  0.4461360000000 1.0
C      1  0.4342840000000  0.5427170000000  0.4410910000000 1.0
C      1  0.4055470000000  0.4590200000000  0.5174990000000 1.0
C      1  0.4269080000000  0.4890230000000  0.4672830000000 1.0
C      1  0.4211770000000  0.5139480000000  0.4764520000000 1.0
C      1  0.4178180000000  0.5128540000000  0.5482210000000 1.0
C      1  0.5975330000000  0.4643940000000  0.5157740000000 1.0
C      1  0.5610130000000  0.4859360000000  0.4729850000000 1.0
C      1  0.5605140000000  0.5416700000000  0.4841140000000 1.0
C      1  0.5839920000000  0.5040100000000  0.5427550000000 1.0
C      1  0.4834300000000  0.5585740000000  0.5104900000000 1.0
C      1  0.4823320000000  0.4997460000000  0.5274900000000 1.0
C      1  0.4884200000000  0.4637050000000  0.5082260000000 1.0
C      1  0.4856230000000  0.5039750000000  0.4572550000000 1.0
C      1  0.5007800000000  0.5355250000000  0.4995510000000 1.0
C      1  0.5085400000000  0.5020540000000  0.5411640000000 1.0
C      1  0.5181390000000  0.4715160000000  0.5049360000000 1.0
C      1  0.5135630000000  0.4864560000000  0.4520880000000 1.0
C      1  0.5104610000000  0.5484820000000  0.5967740000000 1.0
C      1  0.4777220000000  0.4171400000000  0.5212390000000 1.0
C      1  0.4756710000000  0.4675520000000  0.4237030000000 1.0
C      1  0.4893790000000  0.5913970000000  0.4652390000000 1.0
C      1  0.5262590000000  0.5253780000000  0.5883340000000 1.0
C      1  0.5304180000000  0.4154770000000  0.5280970000000 1.0
C      1  0.5050040000000  0.4684520000000  0.4088670000000 1.0
C      1  0.5179500000000  0.5730240000000  0.4669650000000 1.0
C      1  0.5515490000000  0.5188730000000  0.4376340000000 1.0
C      1  0.5687990000000  0.5635170000000  0.5318750000000 1.0
C      1  0.5547460000000  0.4782890000000  0.5700500000000 1.0
C      1  0.5695250000000  0.4286660000000  0.4860580000000 1.0
C      1  0.4414140000000  0.5158090000000  0.4305250000000 1.0
C      1  0.4463010000000  0.5719110000000  0.5158890000000 1.0
C      1  0.4381200000000  0.4795620000000  0.5765380000000 1.0
C      1  0.4498420000000  0.4267880000000  0.4702940000000 1.0
C      1  0.5063890000000  0.5419250000000  0.4702190000000 1.0
C      1  0.5188730000000  0.5293230000000  0.5493570000000 1.0
C      1  0.5207880000000  0.4447150000000  0.5405800000000 1.0
C      1  0.5294940000000  0.4720570000000  0.4302990000000 1.0
C      1  0.4806020000000  0.5603660000000  0.4606410000000 1.0
C      1  0.4938830000000  0.5384690000000  0.5689600000000 1.0
C      1  0.4888730000000  0.4425710000000  0.5331350000000 1.0
C      1  0.4785800000000  0.4714020000000  0.4551940000000 1.0
C      1  0.5136290000000  0.5234750000000  0.4229660000000 1.0
C      1  0.5284210000000  0.5687330000000  0.5234780000000 1.0
C      1  0.5241770000000  0.4785630000000  0.5701780000000 1.0
C      1  0.5366080000000  0.4265810000000  0.4821270000000 1.0
C      1  0.4730070000000  0.5206820000000  0.4232670000000 1.0
C      1  0.4747220000000  0.5897250000000  0.5214620000000 1.0
C      1  0.4690900000000  0.4761230000000  0.5684210000000 1.0
C      1  0.4812400000000  0.4257360000000  0.4740810000000 1.0
C      1  0.5122580000000  0.4938140000000  0.4851090000000 1.0
C      1  0.4545440000000  0.5026540000000  0.4988910000000 1.0
C      1  0.4877930000000  0.5078120000000  0.4969010000000 1.0
END
