TITL C-2622960-5345-236 17.238891926832 125000 -963.782480844307 0 0 190 (C1) n - 1
REM
REM in /nfs/bkarasulu/CARBON/AIRSS/Generating-Clusters/AIREBO/with-SteepDescent/Higher-Symm/SD-CG/HFTN-CG
REM
REM
REM
REM
REM
REM ./C.cell (b20cbc046b6831c77cfcea5457e17084)
REM
REM compiler GCC version 9.2.1 20190827 (Red Hat 9.2.1-1)
REM options -cpp -mtune=generic -march=x86-64 -g -O0 -fpre-include=/usr/include/finclude/math-vector-fortran.h
REM seed 1883518536 -1386866637 402331070 -1305880653 -2004443827 1376140306 -1647082883 327150881 1281249283 -2099234001 -1777433584 1353590922 -590287898 -996836463 -1575668944 164957324 -1949544326 829896508 -1690833768 1410891502 71600285 1024990569 1512602240 -869975061 380808242 485835535 922582305 -1510507854 1814569168 1895902356 -1301525005 -773967149 641729757
REM
CELL 1.54180   50.00000   50.00000   50.00000   90.00000   90.00000   90.00000
LATT -1
SFAC C  
C      1  0.4977190000000  0.4875360000000  0.4647660000000 1.0
C      1  0.4708580000000  0.4998090000000  0.4758430000000 1.0
C      1  0.4829220000000  0.4617570000000  0.5029960000000 1.0
C      1  0.5066380000000  0.4819320000000  0.5280720000000 1.0
C      1  0.5100920000000  0.5146390000000  0.5293240000000 1.0
C      1  0.4958130000000  0.5184880000000  0.4508220000000 1.0
C      1  0.5396010000000  0.5178220000000  0.5148190000000 1.0
C      1  0.4741280000000  0.4997900000000  0.5096980000000 1.0
C      1  0.5266910000000  0.5064030000000  0.4862810000000 1.0
C      1  0.5149630000000  0.4700420000000  0.4976410000000 1.0
C      1  0.4812520000000  0.5302910000000  0.4988800000000 1.0
C      1  0.5129540000000  0.5346360000000  0.4904640000000 1.0
C      1  0.4300690000000  0.4072610000000  0.5094050000000 1.0
C      1  0.5270870000000  0.4364670000000  0.4242870000000 1.0
C      1  0.3982040000000  0.5072720000000  0.4316030000000 1.0
C      1  0.5692010000000  0.4108540000000  0.4850550000000 1.0
C      1  0.4189500000000  0.5796900000000  0.5148610000000 1.0
C      1  0.5896100000000  0.6043570000000  0.4921590000000 1.0
C      1  0.4810370000000  0.4345310000000  0.5914490000000 1.0
C      1  0.4784350000000  0.5827500000000  0.5987800000000 1.0
C      1  0.4936940000000  0.5630520000000  0.4074570000000 1.0
C      1  0.5889480000000  0.4915640000000  0.5925580000000 1.0
C      1  0.4071700000000  0.4885420000000  0.5772530000000 1.0
C      1  0.5988420000000  0.4774260000000  0.4399620000000 1.0
C      1  0.5215360000000  0.4814570000000  0.4083940000000 1.0
C      1  0.4045750000000  0.5344500000000  0.4858230000000 1.0
C      1  0.4763450000000  0.3955890000000  0.5411510000000 1.0
C      1  0.4679820000000  0.4872470000000  0.5885950000000 1.0
C      1  0.5386300000000  0.5107300000000  0.5994210000000 1.0
C      1  0.4515490000000  0.5134060000000  0.3962740000000 1.0
C      1  0.5981450000000  0.5445930000000  0.5157620000000 1.0
C      1  0.4004100000000  0.4653190000000  0.5139000000000 1.0
C      1  0.6113470000000  0.4637230000000  0.4784110000000 1.0
C      1  0.5196310000000  0.3966020000000  0.4499690000000 1.0
C      1  0.4919320000000  0.5976270000000  0.4640020000000 1.0
C      1  0.5102470000000  0.5929890000000  0.5335220000000 1.0
C      1  0.5453980000000  0.4817180000000  0.4993230000000 1.0
C      1  0.4800290000000  0.5380490000000  0.4681530000000 1.0
C      1  0.4785970000000  0.4935140000000  0.5428330000000 1.0
C      1  0.4559440000000  0.4737950000000  0.5020620000000 1.0
C      1  0.5614070000000  0.5365270000000  0.5282600000000 1.0
C      1  0.4495060000000  0.5229480000000  0.4886790000000 1.0
C      1  0.5100280000000  0.5477890000000  0.5216860000000 1.0
C      1  0.5001880000000  0.4485090000000  0.5278730000000 1.0
C      1  0.5010280000000  0.4564570000000  0.4697490000000 1.0
C      1  0.5266540000000  0.4934940000000  0.4550300000000 1.0
C      1  0.4682580000000  0.5009500000000  0.4413790000000 1.0
C      1  0.5370390000000  0.5113330000000  0.5472590000000 1.0
C      1  0.3846770000000  0.4834530000000  0.4713970000000 1.0
C      1  0.4715560000000  0.3900370000000  0.4830120000000 1.0
C      1  0.4799110000000  0.4660010000000  0.3857690000000 1.0
C      1  0.6068260000000  0.4922780000000  0.5391290000000 1.0
C      1  0.3963130000000  0.5138310000000  0.5374860000000 1.0
C      1  0.5960290000000  0.5108070000000  0.4798980000000 1.0
C      1  0.5237930000000  0.3977720000000  0.5029710000000 1.0
C      1  0.4561940000000  0.6086980000000  0.5071890000000 1.0
C      1  0.5389760000000  0.6052100000000  0.4852120000000 1.0
C      1  0.5130190000000  0.4682360000000  0.5953650000000 1.0
C      1  0.4948650000000  0.5395360000000  0.6150530000000 1.0
C      1  0.5086650000000  0.5338890000000  0.3956090000000 1.0
C      1  0.4447340000000  0.5759660000000  0.4443430000000 1.0
C      1  0.4352940000000  0.4541910000000  0.5758420000000 1.0
C      1  0.5799730000000  0.4572820000000  0.4521840000000 1.0
C      1  0.5502700000000  0.5772920000000  0.5652530000000 1.0
C      1  0.4519830000000  0.4305760000000  0.5613010000000 1.0
C      1  0.5612220000000  0.4309590000000  0.4648860000000 1.0
C      1  0.5585250000000  0.4390060000000  0.4334670000000 1.0
C      1  0.4320390000000  0.5533650000000  0.4266270000000 1.0
C      1  0.5677710000000  0.5550550000000  0.5811460000000 1.0
C      1  0.4252310000000  0.4423340000000  0.5477210000000 1.0
C      1  0.5820180000000  0.5745690000000  0.5590130000000 1.0
C      1  0.4148340000000  0.5651620000000  0.4521680000000 1.0
C      1  0.5260670000000  0.5889410000000  0.4347870000000 1.0
C      1  0.4316720000000  0.5265720000000  0.5720350000000 1.0
C      1  0.5951320000000  0.4420070000000  0.5203660000000 1.0
C      1  0.4833750000000  0.5869620000000  0.5721010000000 1.0
C      1  0.5184450000000  0.3961790000000  0.5609290000000 1.0
C      1  0.4716720000000  0.4057280000000  0.4297740000000 1.0
C      1  0.5601010000000  0.5136080000000  0.4037500000000 1.0
C      1  0.4232860000000  0.4748480000000  0.4006500000000 1.0
C      1  0.5770350000000  0.4656060000000  0.5992690000000 1.0
C      1  0.4069760000000  0.4383600000000  0.4778260000000 1.0
C      1  0.6009610000000  0.5594810000000  0.4750800000000 1.0
C      1  0.4018790000000  0.5686030000000  0.5333560000000 1.0
C      1  0.5101560000000  0.5246710000000  0.5928110000000 1.0
C      1  0.5969360000000  0.5241200000000  0.5416590000000 1.0
C      1  0.5279410000000  0.5825120000000  0.5063150000000 1.0
C      1  0.4751560000000  0.5357530000000  0.4010580000000 1.0
C      1  0.5027910000000  0.4619410000000  0.4057830000000 1.0
C      1  0.4850100000000  0.4641700000000  0.5940080000000 1.0
C      1  0.4070620000000  0.5080780000000  0.4644270000000 1.0
C      1  0.6003950000000  0.4868170000000  0.4925770000000 1.0
C      1  0.4120880000000  0.4943970000000  0.5176420000000 1.0
C      1  0.4750930000000  0.5916890000000  0.4886730000000 1.0
C      1  0.5167720000000  0.4116370000000  0.4768850000000 1.0
C      1  0.4639800000000  0.4082150000000  0.5117750000000 1.0
C      1  0.4141820000000  0.4711320000000  0.4833410000000 1.0
C      1  0.4855860000000  0.4199720000000  0.4750390000000 1.0
C      1  0.4726350000000  0.4925900000000  0.3878230000000 1.0
C      1  0.5830550000000  0.4800850000000  0.5183040000000 1.0
C      1  0.4148430000000  0.5342530000000  0.5177570000000 1.0
C      1  0.5766220000000  0.5324570000000  0.4917080000000 1.0
C      1  0.5007650000000  0.3961100000000  0.5215570000000 1.0
C      1  0.4823270000000  0.5735860000000  0.5345670000000 1.0
C      1  0.5218670000000  0.5853060000000  0.4671250000000 1.0
C      1  0.5250320000000  0.4904100000000  0.5790430000000 1.0
C      1  0.4704220000000  0.5182070000000  0.5745940000000 1.0
C      1  0.5198200000000  0.5123320000000  0.4196050000000 1.0
C      1  0.5538840000000  0.5413390000000  0.4680240000000 1.0
C      1  0.4864330000000  0.5444420000000  0.5460630000000 1.0
C      1  0.5493430000000  0.4814550000000  0.5569860000000 1.0
C      1  0.4476220000000  0.5415140000000  0.5168200000000 1.0
C      1  0.5540710000000  0.4649210000000  0.5276130000000 1.0
C      1  0.4455660000000  0.4606450000000  0.4754210000000 1.0
C      1  0.5223670000000  0.5540930000000  0.4687880000000 1.0
C      1  0.4708650000000  0.4456590000000  0.4582680000000 1.0
C      1  0.5309500000000  0.4413600000000  0.5357920000000 1.0
C      1  0.4567980000000  0.4691100000000  0.4380230000000 1.0
C      1  0.5429150000000  0.5208840000000  0.4431060000000 1.0
C      1  0.4607890000000  0.5224720000000  0.5419860000000 1.0
C      1  0.4382220000000  0.4655170000000  0.5265100000000 1.0
C      1  0.5305280000000  0.4405400000000  0.4759480000000 1.0
C      1  0.4450190000000  0.5256220000000  0.4368620000000 1.0
C      1  0.5647230000000  0.4747810000000  0.4763320000000 1.0
C      1  0.4369350000000  0.5423090000000  0.4644700000000 1.0
C      1  0.5667800000000  0.5670040000000  0.5305870000000 1.0
C      1  0.4796600000000  0.4441200000000  0.5511880000000 1.0
C      1  0.5342930000000  0.5629690000000  0.5401280000000 1.0
C      1  0.4687870000000  0.5658580000000  0.4589350000000 1.0
C      1  0.5460950000000  0.5331920000000  0.5674730000000 1.0
C      1  0.4572110000000  0.4696080000000  0.5544240000000 1.0
C      1  0.5373540000000  0.4646530000000  0.4405450000000 1.0
C      1  0.4396140000000  0.4525840000000  0.4148350000000 1.0
C      1  0.4065530000000  0.4439240000000  0.4492200000000 1.0
C      1  0.4500880000000  0.4202200000000  0.4494320000000 1.0
C      1  0.5567500000000  0.4560220000000  0.5785120000000 1.0
C      1  0.4561010000000  0.5421210000000  0.5893170000000 1.0
C      1  0.5538610000000  0.5418970000000  0.4187060000000 1.0
C      1  0.5793700000000  0.4515210000000  0.5459840000000 1.0
C      1  0.4168790000000  0.5458520000000  0.5496580000000 1.0
C      1  0.5847280000000  0.5425260000000  0.4537300000000 1.0
C      1  0.5438390000000  0.4117170000000  0.5456550000000 1.0
C      1  0.4569740000000  0.5831630000000  0.5508560000000 1.0
C      1  0.5572170000000  0.5851480000000  0.4415570000000 1.0
C      1  0.4395340000000  0.4934880000000  0.5710100000000 1.0
C      1  0.5833780000000  0.4506780000000  0.4914170000000 1.0
C      1  0.4954190000000  0.5742910000000  0.4395090000000 1.0
C      1  0.5519890000000  0.4886920000000  0.4214640000000 1.0
C      1  0.4293480000000  0.5015860000000  0.4191820000000 1.0
C      1  0.5671940000000  0.5168310000000  0.5885450000000 1.0
C      1  0.4235340000000  0.4411290000000  0.5078600000000 1.0
C      1  0.5839800000000  0.5721230000000  0.5016960000000 1.0
C      1  0.4252030000000  0.5611470000000  0.4902400000000 1.0
C      1  0.5109550000000  0.5745220000000  0.5620070000000 1.0
C      1  0.4904680000000  0.4150700000000  0.5651900000000 1.0
C      1  0.5044750000000  0.4136810000000  0.4288910000000 1.0
C      1  0.5522800000000  0.4425700000000  0.5020170000000 1.0
C      1  0.5102810000000  0.5439150000000  0.4430340000000 1.0
C      1  0.4363010000000  0.4992540000000  0.5376580000000 1.0
C      1  0.4536850000000  0.4349160000000  0.4934070000000 1.0
C      1  0.5536090000000  0.5686430000000  0.4883300000000 1.0
C      1  0.4586390000000  0.5620410000000  0.4912290000000 1.0
C      1  0.5133180000000  0.5422060000000  0.5667690000000 1.0
C      1  0.5175420000000  0.4354850000000  0.5640910000000 1.0
C      1  0.4879180000000  0.4420780000000  0.4290440000000 1.0
C      1  0.5658970000000  0.4969180000000  0.4505340000000 1.0
C      1  0.4316030000000  0.4883030000000  0.4504190000000 1.0
C      1  0.5747700000000  0.5040480000000  0.5579920000000 1.0
C      1  0.5656990000000  0.5946240000000  0.4700320000000 1.0
C      1  0.4745320000000  0.5559890000000  0.6071100000000 1.0
C      1  0.5916700000000  0.4749530000000  0.5629270000000 1.0
C      1  0.4405830000000  0.5953060000000  0.5254980000000 1.0
C      1  0.5500640000000  0.4109800000000  0.5132140000000 1.0
C      1  0.4434930000000  0.4065940000000  0.4775920000000 1.0
C      1  0.5254660000000  0.5515830000000  0.4163440000000 1.0
C      1  0.4670530000000  0.4454590000000  0.4040620000000 1.0
C      1  0.5288330000000  0.4472070000000  0.5862130000000 1.0
C      1  0.4023460000000  0.4733420000000  0.4452590000000 1.0
C      1  0.5950380000000  0.5103480000000  0.4485630000000 1.0
C      1  0.3903790000000  0.5044050000000  0.5618250000000 1.0
C      1  0.4938520000000  0.4238440000000  0.5072960000000 1.0
C      1  0.4867620000000  0.5064750000000  0.4138710000000 1.0
C      1  0.4952860000000  0.5731530000000  0.5044830000000 1.0
C      1  0.4993580000000  0.5048260000000  0.5672800000000 1.0
C      1  0.4267410000000  0.5016820000000  0.4914080000000 1.0
C      1  0.5787450000000  0.5103850000000  0.5171670000000 1.0
C      1  0.5649590000000  0.4285070000000  0.5623160000000 1.0
C      1  0.5710650000000  0.5619650000000  0.4323160000000 1.0
C      1  0.4422310000000  0.5596480000000  0.5653910000000 1.0
C      1  0.4267930000000  0.4327310000000  0.4341000000000 1.0
END
