TITL C-2622966-9038-722 -0.00111202453512471 125000 -146.083724447396 0 0 27 (C1) n - 1
REM
REM in /nfs/bkarasulu/CARBON/AIRSS/Generating-Clusters/AIREBO/with-SteepDescent/Higher-Symm/SD-CG/HFTN-CG
REM
REM
REM
REM
REM
REM ./C.cell (b20cbc046b6831c77cfcea5457e17084)
REM
REM compiler GCC version 9.2.1 20190827 (Red Hat 9.2.1-1)
REM options -cpp -mtune=generic -march=x86-64 -g -O0 -fpre-include=/usr/include/finclude/math-vector-fortran.h
REM seed 229579380 1908009214 -10063187 387422970 -1569522984 -869303563 1940165318 85392329 -1286825662 93650051 -2009477190 1259872921 -317159289 -280158371 98981570 684635843 -127608431 243132295 -1351144162 2041098806 504548455 2036721437 1792383906 -1068259867 1173710571 -89951620 1213317906 1637079457 -97407180 -1114403584 106594973 339672214 -2122550901
REM
CELL 1.54180   50.00000   50.00000   50.00000   90.00000   90.00000   90.00000
LATT -1
SFAC C  
C      1  0.4722210000000  0.4631960000000  0.5280020000000 1.0
C      1  0.4626980000000  0.4739260000000  0.5040720000000 1.0
C      1  0.4658880000000  0.4614000000000  0.4793120000000 1.0
C      1  0.4857050000000  0.4708840000000  0.4625360000000 1.0
C      1  0.5140950000000  0.4752010000000  0.4648540000000 1.0
C      1  0.5312940000000  0.4617720000000  0.4822220000000 1.0
C      1  0.5340950000000  0.4722480000000  0.5079920000000 1.0
C      1  0.5211110000000  0.4614370000000  0.5302140000000 1.0
C      1  0.4966330000000  0.4724900000000  0.5377460000000 1.0
C      1  0.4940900000000  0.5063330000000  0.5715900000000 1.0
C      1  0.4699890000000  0.5415260000000  0.5340050000000 1.0
C      1  0.4317750000000  0.5107800000000  0.5053440000000 1.0
C      1  0.4718640000000  0.5435120000000  0.4770990000000 1.0
C      1  0.4770630000000  0.5088070000000  0.4308780000000 1.0
C      1  0.5358680000000  0.5110600000000  0.4377140000000 1.0
C      1  0.5282480000000  0.5442140000000  0.4872640000000 1.0
C      1  0.5683540000000  0.5060220000000  0.5128030000000 1.0
C      1  0.5333090000000  0.5357410000000  0.5452350000000 1.0
C      1  0.4853790000000  0.5018170000000  0.4566320000000 1.0
C      1  0.5216690000000  0.5042730000000  0.4605080000000 1.0
C      1  0.5293350000000  0.5179380000000  0.4857030000000 1.0
C      1  0.5402740000000  0.5021860000000  0.5098930000000 1.0
C      1  0.5248270000000  0.5132530000000  0.5344290000000 1.0
C      1  0.4974810000000  0.5022290000000  0.5434790000000 1.0
C      1  0.4749160000000  0.5163100000000  0.5279520000000 1.0
C      1  0.4595550000000  0.5042960000000  0.5037920000000 1.0
C      1  0.4722630000000  0.5171470000000  0.4787270000000 1.0
END
