TITL C-2622961-1971-11 0.00297166454673834 125000 -802.996151515464 0 0 144 (C1) n - 1
REM
REM in /nfs/bkarasulu/CARBON/AIRSS/Generating-Clusters/AIREBO/with-SteepDescent/Higher-Symm/SD-CG/HFTN-CG
REM
REM
REM
REM
REM
REM ./C.cell (b20cbc046b6831c77cfcea5457e17084)
REM
REM compiler GCC version 9.2.1 20190827 (Red Hat 9.2.1-1)
REM options -cpp -mtune=generic -march=x86-64 -g -O0 -fpre-include=/usr/include/finclude/math-vector-fortran.h
REM seed 377697003 659271966 890844379 -505644800 1437258685 -969321262 -738799591 901517942 -459231573 563623093 729391375 -1207813858 -1323011798 1034054770 1167654620 1712222103 1445049930 280398280 -2006586901 -423041021 -344033460 135895956 1820221778 -438531400 1475310251 -1898274279 -1578717895 -768815487 901410601 -1527945885 1305461194 1737029814 -1830188681
REM
CELL 1.54180   50.00000   50.00000   50.00000   90.00000   90.00000   90.00000
LATT -1
SFAC C  
C      1  0.4714240000000  0.4942010000000  0.4851850000000 1.0
C      1  0.5334290000000  0.5060990000000  0.5105130000000 1.0
C      1  0.5714500000000  0.5333130000000  0.4287270000000 1.0
C      1  0.4432420000000  0.4799620000000  0.5677860000000 1.0
C      1  0.5299270000000  0.5387870000000  0.5495690000000 1.0
C      1  0.4732570000000  0.4636720000000  0.4593560000000 1.0
C      1  0.4165400000000  0.5290560000000  0.4495360000000 1.0
C      1  0.5920110000000  0.4654630000000  0.5517710000000 1.0
C      1  0.4385570000000  0.5492000000000  0.5715560000000 1.0
C      1  0.5423440000000  0.4587370000000  0.4229370000000 1.0
C      1  0.5275850000000  0.4320220000000  0.4839280000000 1.0
C      1  0.4706700000000  0.5736480000000  0.5181160000000 1.0
C      1  0.4145120000000  0.5174780000000  0.5397660000000 1.0
C      1  0.5775100000000  0.4829010000000  0.4455520000000 1.0
C      1  0.5024790000000  0.5183290000000  0.5035930000000 1.0
C      1  0.5006890000000  0.4853520000000  0.5007060000000 1.0
C      1  0.4239640000000  0.4655690000000  0.4812610000000 1.0
C      1  0.5742470000000  0.5313300000000  0.5263370000000 1.0
C      1  0.5460400000000  0.4328330000000  0.5510990000000 1.0
C      1  0.4598580000000  0.5674350000000  0.4441760000000 1.0
C      1  0.4369860000000  0.4617740000000  0.4254560000000 1.0
C      1  0.5639810000000  0.5325750000000  0.5842860000000 1.0
C      1  0.5567340000000  0.5809770000000  0.5431650000000 1.0
C      1  0.4354390000000  0.4163960000000  0.4658400000000 1.0
C      1  0.4398140000000  0.4348690000000  0.5927590000000 1.0
C      1  0.5577200000000  0.5758630000000  0.4049580000000 1.0
C      1  0.5697230000000  0.5672250000000  0.4853160000000 1.0
C      1  0.4300740000000  0.4288310000000  0.5182930000000 1.0
C      1  0.4686890000000  0.4138340000000  0.4872320000000 1.0
C      1  0.5335960000000  0.5855180000000  0.5203910000000 1.0
C      1  0.4131290000000  0.4556220000000  0.5284380000000 1.0
C      1  0.5867050000000  0.5420050000000  0.4794110000000 1.0
C      1  0.5544670000000  0.5581580000000  0.4236690000000 1.0
C      1  0.4478000000000  0.4481400000000  0.5702570000000 1.0
C      1  0.4342400000000  0.4872830000000  0.4349140000000 1.0
C      1  0.5628820000000  0.5064280000000  0.5740810000000 1.0
C      1  0.4838980000000  0.4115680000000  0.4393130000000 1.0
C      1  0.5120050000000  0.5863810000000  0.5693340000000 1.0
C      1  0.4766270000000  0.5262460000000  0.4280860000000 1.0
C      1  0.5341690000000  0.4716790000000  0.5641630000000 1.0
C      1  0.4121670000000  0.5067900000000  0.5105300000000 1.0
C      1  0.5855150000000  0.4959450000000  0.4962230000000 1.0
C      1  0.4686280000000  0.5059330000000  0.5330430000000 1.0
C      1  0.5297870000000  0.5038860000000  0.4785940000000 1.0
C      1  0.4881660000000  0.5544690000000  0.5379260000000 1.0
C      1  0.5113640000000  0.4514250000000  0.4611610000000 1.0
C      1  0.4743210000000  0.5640060000000  0.4889170000000 1.0
C      1  0.5253990000000  0.4383510000000  0.5172910000000 1.0
C      1  0.5378810000000  0.4110600000000  0.5332790000000 1.0
C      1  0.4679240000000  0.5864340000000  0.4656920000000 1.0
C      1  0.4152270000000  0.4660010000000  0.5538100000000 1.0
C      1  0.5919400000000  0.5373180000000  0.4533980000000 1.0
C      1  0.5738020000000  0.5822360000000  0.5133810000000 1.0
C      1  0.4162230000000  0.4168090000000  0.4924920000000 1.0
C      1  0.5063710000000  0.4996810000000  0.4255760000000 1.0
C      1  0.4985540000000  0.4968730000000  0.5691310000000 1.0
C      1  0.4152710000000  0.4972200000000  0.5590740000000 1.0
C      1  0.5881460000000  0.5038460000000  0.4319620000000 1.0
C      1  0.4851860000000  0.5346710000000  0.3983060000000 1.0
C      1  0.4954890000000  0.4591060000000  0.5930840000000 1.0
C      1  0.4606690000000  0.5253540000000  0.5814930000000 1.0
C      1  0.5336240000000  0.4870540000000  0.4138870000000 1.0
C      1  0.5613560000000  0.4561250000000  0.5395780000000 1.0
C      1  0.4475610000000  0.5418510000000  0.4544710000000 1.0
C      1  0.4790610000000  0.4619250000000  0.5069210000000 1.0
C      1  0.5264200000000  0.5413700000000  0.4945220000000 1.0
C      1  0.4391370000000  0.5012390000000  0.4905790000000 1.0
C      1  0.5660360000000  0.4877840000000  0.4749460000000 1.0
C      1  0.5808530000000  0.5592860000000  0.5354530000000 1.0
C      1  0.4133480000000  0.4395610000000  0.4713320000000 1.0
C      1  0.5222940000000  0.5272320000000  0.6080450000000 1.0
C      1  0.4815430000000  0.4623940000000  0.4047030000000 1.0
C      1  0.4522360000000  0.4162860000000  0.4442370000000 1.0
C      1  0.5418220000000  0.5786430000000  0.5698320000000 1.0
C      1  0.5216300000000  0.5796520000000  0.4681560000000 1.0
C      1  0.4831520000000  0.4149520000000  0.5365420000000 1.0
C      1  0.5687660000000  0.5024120000000  0.5436270000000 1.0
C      1  0.4220650000000  0.4918040000000  0.4625550000000 1.0
C      1  0.5099500000000  0.6060740000000  0.5207570000000 1.0
C      1  0.4912610000000  0.3959460000000  0.4809680000000 1.0
C      1  0.5488940000000  0.5091280000000  0.4286580000000 1.0
C      1  0.4668140000000  0.5003830000000  0.5649030000000 1.0
C      1  0.4705100000000  0.5174540000000  0.4603710000000 1.0
C      1  0.5423040000000  0.4836240000000  0.5334270000000 1.0
C      1  0.5564460000000  0.4423980000000  0.4694690000000 1.0
C      1  0.4432620000000  0.5543790000000  0.5241300000000 1.0
C      1  0.4936170000000  0.5967730000000  0.4771570000000 1.0
C      1  0.5114310000000  0.4015460000000  0.5228800000000 1.0
C      1  0.5422160000000  0.4900230000000  0.5835530000000 1.0
C      1  0.4530760000000  0.5041820000000  0.4240560000000 1.0
C      1  0.5411060000000  0.5805210000000  0.4910600000000 1.0
C      1  0.4601870000000  0.4159170000000  0.5139880000000 1.0
C      1  0.5172100000000  0.5023540000000  0.5971560000000 1.0
C      1  0.4799740000000  0.4929610000000  0.4065460000000 1.0
C      1  0.5083620000000  0.4114340000000  0.4245480000000 1.0
C      1  0.4854320000000  0.5913430000000  0.5789370000000 1.0
C      1  0.4231240000000  0.5440470000000  0.4780550000000 1.0
C      1  0.5896810000000  0.4485990000000  0.5223390000000 1.0
C      1  0.4542410000000  0.4649390000000  0.4840660000000 1.0
C      1  0.5436240000000  0.5328140000000  0.5225740000000 1.0
C      1  0.5137620000000  0.4044630000000  0.4946500000000 1.0
C      1  0.4891120000000  0.5977590000000  0.5054840000000 1.0
C      1  0.4609370000000  0.5170070000000  0.6110720000000 1.0
C      1  0.5337200000000  0.4913070000000  0.3829560000000 1.0
C      1  0.4838310000000  0.4318450000000  0.4650220000000 1.0
C      1  0.5158620000000  0.5663310000000  0.5421470000000 1.0
C      1  0.5443260000000  0.5501580000000  0.5750930000000 1.0
C      1  0.4620870000000  0.4446780000000  0.4341700000000 1.0
C      1  0.4834310000000  0.4765870000000  0.5355700000000 1.0
C      1  0.5113000000000  0.5294380000000  0.4664990000000 1.0
C      1  0.4638450000000  0.5721960000000  0.5760630000000 1.0
C      1  0.5241030000000  0.4382790000000  0.4220230000000 1.0
C      1  0.5093840000000  0.5322190000000  0.4349750000000 1.0
C      1  0.5030600000000  0.4643000000000  0.5604730000000 1.0
C      1  0.4043160000000  0.5159160000000  0.4786990000000 1.0
C      1  0.5860540000000  0.4824060000000  0.5224470000000 1.0
C      1  0.5874320000000  0.5238100000000  0.4998300000000 1.0
C      1  0.4112630000000  0.4744120000000  0.5076270000000 1.0
C      1  0.5371670000000  0.4697980000000  0.4753230000000 1.0
C      1  0.4698660000000  0.5338120000000  0.5206400000000 1.0
C      1  0.5616880000000  0.4589050000000  0.4424500000000 1.0
C      1  0.4273020000000  0.5418130000000  0.5462780000000 1.0
C      1  0.4968740000000  0.5588630000000  0.4649420000000 1.0
C      1  0.5067850000000  0.4350660000000  0.5441270000000 1.0
C      1  0.4899590000000  0.5113850000000  0.3824740000000 1.0
C      1  0.4961140000000  0.4821490000000  0.6081280000000 1.0
C      1  0.5126690000000  0.5022240000000  0.3692440000000 1.0
C      1  0.4746510000000  0.4952650000000  0.6205070000000 1.0
C      1  0.4320800000000  0.5834730000000  0.5171990000000 1.0
C      1  0.5803090000000  0.4271290000000  0.4795930000000 1.0
C      1  0.5536080000000  0.5154880000000  0.4596460000000 1.0
C      1  0.4492960000000  0.4862910000000  0.5173980000000 1.0
C      1  0.4771480000000  0.5475280000000  0.5651180000000 1.0
C      1  0.4957160000000  0.4486970000000  0.4308640000000 1.0
C      1  0.5229120000000  0.5068640000000  0.5489950000000 1.0
C      1  0.4860380000000  0.4896260000000  0.4484750000000 1.0
C      1  0.5274230000000  0.4669690000000  0.5077750000000 1.0
C      1  0.4787370000000  0.5330870000000  0.4894240000000 1.0
C      1  0.5308690000000  0.5569740000000  0.4441460000000 1.0
C      1  0.4600810000000  0.4373720000000  0.5475560000000 1.0
C      1  0.5471080000000  0.5464250000000  0.4708610000000 1.0
C      1  0.4524520000000  0.4541040000000  0.5224910000000 1.0
C      1  0.5257750000000  0.4336650000000  0.5723070000000 1.0
C      1  0.4894830000000  0.5733270000000  0.4350580000000 1.0
END
