TITL C-2622955-8511-153 -0.00211616127403739 125000 -596.391619125327 0 0 102 (C1) n - 1
REM
REM in /nfs/bkarasulu/CARBON/AIRSS/Generating-Clusters/AIREBO/with-SteepDescent/Higher-Symm/SD-CG/HFTN-CG
REM
REM
REM
REM
REM
REM ./C.cell (b20cbc046b6831c77cfcea5457e17084)
REM
REM compiler GCC version 9.2.1 20190827 (Red Hat 9.2.1-1)
REM options -cpp -mtune=generic -march=x86-64 -g -O0 -fpre-include=/usr/include/finclude/math-vector-fortran.h
REM seed 998506839 893649104 -1558853949 792099740 1907756257 1795224864 -222073518 -22208031 -1699233961 -1325498288 425422889 -1319201964 -962567032 -1999074445 1214349611 612305056 -796631396 639540674 256858696 286573853 -876317991 483830539 599117520 1918815836 -883565822 1535245570 1705741978 1158945628 1637438845 -849821186 666452156 840194449 -633521841
REM
CELL 1.54180   50.00000   50.00000   50.00000   90.00000   90.00000   90.00000
LATT -1
SFAC C  
C      1  0.5888110000000  0.4600570000000  0.5568810000000 1.0
C      1  0.5526460000000  0.4601750000000  0.5940890000000 1.0
C      1  0.4916000000000  0.4532230000000  0.6071810000000 1.0
C      1  0.4337690000000  0.4524500000000  0.5794670000000 1.0
C      1  0.3941150000000  0.4660370000000  0.5373430000000 1.0
C      1  0.3928850000000  0.4577330000000  0.4802000000000 1.0
C      1  0.4305150000000  0.4487740000000  0.4208580000000 1.0
C      1  0.4849360000000  0.4637230000000  0.3889550000000 1.0
C      1  0.5410800000000  0.4654890000000  0.3985020000000 1.0
C      1  0.5840780000000  0.4571740000000  0.4467130000000 1.0
C      1  0.5988110000000  0.4559690000000  0.4968880000000 1.0
C      1  0.4983020000000  0.5493350000000  0.4382130000000 1.0
C      1  0.5562250000000  0.5362660000000  0.4548790000000 1.0
C      1  0.5664940000000  0.5517170000000  0.4821910000000 1.0
C      1  0.5709860000000  0.5402090000000  0.5139180000000 1.0
C      1  0.5511720000000  0.5492870000000  0.5404030000000 1.0
C      1  0.4926680000000  0.5291970000000  0.5723880000000 1.0
C      1  0.4641650000000  0.5417470000000  0.5619610000000 1.0
C      1  0.4391620000000  0.5324600000000  0.5235610000000 1.0
C      1  0.4428050000000  0.5359290000000  0.4816950000000 1.0
C      1  0.4403100000000  0.5332270000000  0.4518380000000 1.0
C      1  0.4720260000000  0.5309690000000  0.4425480000000 1.0
C      1  0.5149450000000  0.4495950000000  0.5276580000000 1.0
C      1  0.4953260000000  0.4704650000000  0.5204570000000 1.0
C      1  0.4598660000000  0.4422570000000  0.5128190000000 1.0
C      1  0.4752700000000  0.4656990000000  0.4934510000000 1.0
C      1  0.4580820000000  0.4399450000000  0.4805980000000 1.0
C      1  0.4701400000000  0.4161830000000  0.4607790000000 1.0
C      1  0.4964890000000  0.4154170000000  0.4547420000000 1.0
C      1  0.5179340000000  0.4229390000000  0.4688240000000 1.0
C      1  0.5647960000000  0.4237340000000  0.4737630000000 1.0
C      1  0.5397560000000  0.4284440000000  0.4848640000000 1.0
C      1  0.5336260000000  0.4424270000000  0.5082670000000 1.0
C      1  0.4489750000000  0.4313740000000  0.5333510000000 1.0
C      1  0.3922060000000  0.3938520000000  0.4614410000000 1.0
C      1  0.4157080000000  0.4052390000000  0.4636570000000 1.0
C      1  0.4400130000000  0.4152700000000  0.4679980000000 1.0
C      1  0.6000260000000  0.3921420000000  0.4186970000000 1.0
C      1  0.5916440000000  0.4105170000000  0.4354020000000 1.0
C      1  0.5805260000000  0.4300020000000  0.4515260000000 1.0
C      1  0.5042900000000  0.4069070000000  0.5947060000000 1.0
C      1  0.5089510000000  0.4200100000000  0.5724890000000 1.0
C      1  0.5127020000000  0.4354230000000  0.5510890000000 1.0
C      1  0.4399150000000  0.4186810000000  0.5544250000000 1.0
C      1  0.4755280000000  0.5741770000000  0.4749630000000 1.0
C      1  0.5005080000000  0.5691490000000  0.4622070000000 1.0
C      1  0.5261970000000  0.5797200000000  0.4675710000000 1.0
C      1  0.5491970000000  0.5771010000000  0.4843470000000 1.0
C      1  0.5485390000000  0.5879270000000  0.5104100000000 1.0
C      1  0.5391220000000  0.5762020000000  0.5342310000000 1.0
C      1  0.5139520000000  0.5822490000000  0.5444620000000 1.0
C      1  0.4868490000000  0.5820250000000  0.5456950000000 1.0
C      1  0.4641450000000  0.5658080000000  0.5442160000000 1.0
C      1  0.4514960000000  0.5597910000000  0.5201260000000 1.0
C      1  0.4580970000000  0.5607210000000  0.4925850000000 1.0
C      1  0.5366950000000  0.4878450000000  0.4135450000000 1.0
C      1  0.5763380000000  0.4837770000000  0.4498960000000 1.0
C      1  0.5908940000000  0.4816940000000  0.4984620000000 1.0
C      1  0.5795220000000  0.4841820000000  0.5486780000000 1.0
C      1  0.5431090000000  0.4833830000000  0.5836790000000 1.0
C      1  0.4914010000000  0.4774590000000  0.5950530000000 1.0
C      1  0.4433840000000  0.4767370000000  0.5729470000000 1.0
C      1  0.4131880000000  0.4843320000000  0.5310530000000 1.0
C      1  0.4093820000000  0.4792910000000  0.4786030000000 1.0
C      1  0.4369280000000  0.4726320000000  0.4316520000000 1.0
C      1  0.4838010000000  0.4842420000000  0.4068180000000 1.0
C      1  0.5337450000000  0.5221590000000  0.4638030000000 1.0
C      1  0.5330400000000  0.5200640000000  0.4909230000000 1.0
C      1  0.5468650000000  0.5198620000000  0.5143260000000 1.0
C      1  0.5286470000000  0.5238530000000  0.5387240000000 1.0
C      1  0.5047710000000  0.5149420000000  0.5484680000000 1.0
C      1  0.4857540000000  0.4986800000000  0.5348320000000 1.0
C      1  0.4627570000000  0.5091260000000  0.5235560000000 1.0
C      1  0.4555880000000  0.5093370000000  0.4946570000000 1.0
C      1  0.4703080000000  0.4917290000000  0.4787650000000 1.0
C      1  0.4839270000000  0.5037830000000  0.4578550000000 1.0
C      1  0.5091170000000  0.5202230000000  0.4514320000000 1.0
C      1  0.5066990000000  0.5284480000000  0.4127110000000 1.0
C      1  0.5647610000000  0.5255940000000  0.4306420000000 1.0
C      1  0.5871380000000  0.5251330000000  0.4772480000000 1.0
C      1  0.5949870000000  0.5231030000000  0.5226010000000 1.0
C      1  0.5598960000000  0.5263690000000  0.5632220000000 1.0
C      1  0.5133290000000  0.5205150000000  0.5936510000000 1.0
C      1  0.4646040000000  0.5166070000000  0.5845710000000 1.0
C      1  0.4389610000000  0.5205600000000  0.5533140000000 1.0
C      1  0.4187200000000  0.5226040000000  0.5016730000000 1.0
C      1  0.4164960000000  0.5135560000000  0.4446890000000 1.0
C      1  0.4509280000000  0.5168580000000  0.4234710000000 1.0
C      1  0.5601690000000  0.4972590000000  0.4294880000000 1.0
C      1  0.5853870000000  0.4968190000000  0.4745480000000 1.0
C      1  0.5896920000000  0.4950890000000  0.5238000000000 1.0
C      1  0.5605150000000  0.4980340000000  0.5655510000000 1.0
C      1  0.5169030000000  0.4921450000000  0.5923290000000 1.0
C      1  0.4656390000000  0.4887480000000  0.5864270000000 1.0
C      1  0.4312120000000  0.4933840000000  0.5529080000000 1.0
C      1  0.4134240000000  0.4948440000000  0.5032720000000 1.0
C      1  0.4200330000000  0.4861450000000  0.4518170000000 1.0
C      1  0.4570840000000  0.4897080000000  0.4191330000000 1.0
C      1  0.5093870000000  0.4998030000000  0.4109280000000 1.0
C      1  0.5062050000000  0.5242760000000  0.4997380000000 1.0
C      1  0.4963330000000  0.5486840000000  0.4976310000000 1.0
C      1  0.5045900000000  0.4938380000000  0.5004210000000 1.0
END
