TITL C-2622957-9142-330 -4.32106227705888e-05 125000 -643.846460325932 0 0 115 (C1) n - 1
REM
REM in /nfs/bkarasulu/CARBON/AIRSS/Generating-Clusters/AIREBO/with-SteepDescent/Higher-Symm/SD-CG/HFTN-CG
REM
REM
REM
REM
REM
REM ./C.cell (b20cbc046b6831c77cfcea5457e17084)
REM
REM compiler GCC version 9.2.1 20190827 (Red Hat 9.2.1-1)
REM options -cpp -mtune=generic -march=x86-64 -g -O0 -fpre-include=/usr/include/finclude/math-vector-fortran.h
REM seed 1882099220 -1425215332 556622884 -1254929635 2046709505 -197795311 843145484 1621602521 -1434750603 -2040057538 -261935311 -1523850885 633472981 791968730 1702855244 1978160977 1863182791 -699529953 -1027676090 -569295330 936822407 -1252341833 -2048584051 -494843244 -214658982 189430060 -766377816 1132244075 -1245671406 -1590351228 -1522761313 830070466 450854813
REM
CELL 1.54180   50.00000   50.00000   50.00000   90.00000   90.00000   90.00000
LATT -1
SFAC C  
C      1  0.4762860000000  0.4942760000000  0.4027540000000 1.0
C      1  0.4059270000000  0.4909670000000  0.5016960000000 1.0
C      1  0.4761450000000  0.4933130000000  0.5833310000000 1.0
C      1  0.5698740000000  0.4965260000000  0.5453240000000 1.0
C      1  0.5699810000000  0.4958110000000  0.4492390000000 1.0
C      1  0.5058020000000  0.4972320000000  0.4163400000000 1.0
C      1  0.4226520000000  0.4921590000000  0.4738110000000 1.0
C      1  0.4526150000000  0.4797940000000  0.5671190000000 1.0
C      1  0.5444100000000  0.4872550000000  0.5613190000000 1.0
C      1  0.5723350000000  0.4839270000000  0.4771710000000 1.0
C      1  0.5125320000000  0.5805780000000  0.5567480000000 1.0
C      1  0.5520650000000  0.5715950000000  0.5035720000000 1.0
C      1  0.5103550000000  0.5474840000000  0.4413140000000 1.0
C      1  0.4575810000000  0.5642560000000  0.4655460000000 1.0
C      1  0.4531740000000  0.5517850000000  0.5290100000000 1.0
C      1  0.4459770000000  0.4749650000000  0.4347920000000 1.0
C      1  0.4138120000000  0.4635790000000  0.5381360000000 1.0
C      1  0.5113780000000  0.4632620000000  0.5879220000000 1.0
C      1  0.5853290000000  0.4611340000000  0.5178940000000 1.0
C      1  0.5450960000000  0.4637100000000  0.4244940000000 1.0
C      1  0.5152870000000  0.4042830000000  0.4795910000000 1.0
C      1  0.4871130000000  0.4130380000000  0.4715120000000 1.0
C      1  0.4716750000000  0.4137080000000  0.4980600000000 1.0
C      1  0.4931530000000  0.4110160000000  0.5200170000000 1.0
C      1  0.5142670000000  0.3954510000000  0.5072240000000 1.0
C      1  0.5237000000000  0.4850890000000  0.5271850000000 1.0
C      1  0.5279750000000  0.4783720000000  0.4941200000000 1.0
C      1  0.5012010000000  0.4888130000000  0.4759040000000 1.0
C      1  0.4757950000000  0.4866490000000  0.4984220000000 1.0
C      1  0.4910740000000  0.4903330000000  0.5283390000000 1.0
C      1  0.5277630000000  0.5707900000000  0.5215120000000 1.0
C      1  0.5172670000000  0.5655530000000  0.4758620000000 1.0
C      1  0.4879810000000  0.5709030000000  0.4644260000000 1.0
C      1  0.4809440000000  0.5688610000000  0.4976520000000 1.0
C      1  0.4949720000000  0.5776990000000  0.5275030000000 1.0
C      1  0.5362800000000  0.4742410000000  0.5877760000000 1.0
C      1  0.5941480000000  0.4709720000000  0.4940720000000 1.0
C      1  0.5272120000000  0.4745550000000  0.4068950000000 1.0
C      1  0.4212590000000  0.4769880000000  0.4467280000000 1.0
C      1  0.4217490000000  0.4702500000000  0.5639530000000 1.0
C      1  0.4658200000000  0.5128500000000  0.5495970000000 1.0
C      1  0.5406470000000  0.5339650000000  0.5428530000000 1.0
C      1  0.5462640000000  0.5257250000000  0.4802800000000 1.0
C      1  0.4946580000000  0.5231190000000  0.4540420000000 1.0
C      1  0.4481850000000  0.5165970000000  0.4925310000000 1.0
C      1  0.4569210000000  0.5438630000000  0.4155750000000 1.0
C      1  0.4171690000000  0.5368770000000  0.5210460000000 1.0
C      1  0.4917730000000  0.5436200000000  0.5789490000000 1.0
C      1  0.5869850000000  0.5608510000000  0.5390470000000 1.0
C      1  0.5583460000000  0.5455140000000  0.4347220000000 1.0
C      1  0.4703270000000  0.5684520000000  0.5445720000000 1.0
C      1  0.5407900000000  0.5866600000000  0.5482330000000 1.0
C      1  0.5447100000000  0.5751320000000  0.4764130000000 1.0
C      1  0.4936990000000  0.5719550000000  0.4321500000000 1.0
C      1  0.4472690000000  0.5674820000000  0.4927880000000 1.0
C      1  0.4279670000000  0.5091810000000  0.5143080000000 1.0
C      1  0.4946760000000  0.5143270000000  0.5675180000000 1.0
C      1  0.5626340000000  0.5173110000000  0.5229730000000 1.0
C      1  0.5494930000000  0.5183020000000  0.4494650000000 1.0
C      1  0.4656790000000  0.5168910000000  0.4437840000000 1.0
C      1  0.4846360000000  0.4467820000000  0.4799520000000 1.0
C      1  0.4726460000000  0.4441850000000  0.5116680000000 1.0
C      1  0.5020790000000  0.4412150000000  0.5285780000000 1.0
C      1  0.5264950000000  0.4475230000000  0.5083470000000 1.0
C      1  0.5175880000000  0.4380950000000  0.4767920000000 1.0
C      1  0.5137330000000  0.5598520000000  0.5765450000000 1.0
C      1  0.5739590000000  0.5475300000000  0.5121650000000 1.0
C      1  0.5323310000000  0.5415620000000  0.4218260000000 1.0
C      1  0.4473060000000  0.5428040000000  0.4470100000000 1.0
C      1  0.4261990000000  0.5436320000000  0.5480330000000 1.0
C      1  0.5152500000000  0.5402030000000  0.5215600000000 1.0
C      1  0.5200360000000  0.5383710000000  0.4896540000000 1.0
C      1  0.4941560000000  0.5207700000000  0.4852320000000 1.0
C      1  0.4709250000000  0.5369980000000  0.5040470000000 1.0
C      1  0.4896790000000  0.5236860000000  0.5289940000000 1.0
C      1  0.5377080000000  0.5447370000000  0.5749700000000 1.0
C      1  0.5710810000000  0.5454220000000  0.4804190000000 1.0
C      1  0.5079490000000  0.5295380000000  0.4058720000000 1.0
C      1  0.4315250000000  0.5218970000000  0.4639490000000 1.0
C      1  0.4487430000000  0.5341310000000  0.5645590000000 1.0
C      1  0.5218550000000  0.5093670000000  0.4429710000000 1.0
C      1  0.4630030000000  0.4979470000000  0.4690090000000 1.0
C      1  0.4465390000000  0.4897150000000  0.5351660000000 1.0
C      1  0.5211470000000  0.5077960000000  0.5524100000000 1.0
C      1  0.5529690000000  0.5014480000000  0.4969600000000 1.0
C      1  0.4659910000000  0.4424000000000  0.5631850000000 1.0
C      1  0.5486110000000  0.4344040000000  0.5521840000000 1.0
C      1  0.5625420000000  0.4315440000000  0.4711660000000 1.0
C      1  0.4908210000000  0.4486140000000  0.4311980000000 1.0
C      1  0.4284090000000  0.4514910000000  0.4827400000000 1.0
C      1  0.5689860000000  0.4778090000000  0.4290120000000 1.0
C      1  0.4572280000000  0.4971770000000  0.4219180000000 1.0
C      1  0.3956120000000  0.4733040000000  0.5191710000000 1.0
C      1  0.4899840000000  0.4766930000000  0.5997130000000 1.0
C      1  0.5882030000000  0.4773440000000  0.5403700000000 1.0
C      1  0.5654900000000  0.5633190000000  0.4563930000000 1.0
C      1  0.4848570000000  0.5487430000000  0.4107990000000 1.0
C      1  0.4232670000000  0.5583090000000  0.5032850000000 1.0
C      1  0.4679580000000  0.5550950000000  0.5702950000000 1.0
C      1  0.5585450000000  0.5627440000000  0.5456810000000 1.0
C      1  0.5474310000000  0.4642800000000  0.5379730000000 1.0
C      1  0.5491950000000  0.4621890000000  0.4730460000000 1.0
C      1  0.4951540000000  0.4797200000000  0.4434870000000 1.0
C      1  0.4431980000000  0.4771250000000  0.4963480000000 1.0
C      1  0.4811170000000  0.4703670000000  0.5511280000000 1.0
C      1  0.5046340000000  0.4482080000000  0.5617590000000 1.0
C      1  0.5594850000000  0.4425830000000  0.5153230000000 1.0
C      1  0.5342420000000  0.4469200000000  0.4484530000000 1.0
C      1  0.4681800000000  0.4658890000000  0.4588940000000 1.0
C      1  0.4437820000000  0.4579100000000  0.5233840000000 1.0
C      1  0.5088580000000  0.4320770000000  0.4377990000000 1.0
C      1  0.4411340000000  0.4454190000000  0.4612920000000 1.0
C      1  0.4460410000000  0.4361860000000  0.5486700000000 1.0
C      1  0.5259510000000  0.4253570000000  0.5591220000000 1.0
C      1  0.5674010000000  0.4217200000000  0.4943900000000 1.0
END
