TITL C-2622965-4321-31 -0.00154652386177705 125000 -950.756572318583 0 0 170 (C1) n - 1
REM
REM in /nfs/bkarasulu/CARBON/AIRSS/Generating-Clusters/AIREBO/with-SteepDescent/Higher-Symm/SD-CG/HFTN-CG
REM
REM
REM
REM
REM
REM ./C.cell (b20cbc046b6831c77cfcea5457e17084)
REM
REM compiler GCC version 9.2.1 20190827 (Red Hat 9.2.1-1)
REM options -cpp -mtune=generic -march=x86-64 -g -O0 -fpre-include=/usr/include/finclude/math-vector-fortran.h
REM seed 322992603 316637655 1234915999 -1237292631 -871578996 882778774 -953496391 1505982980 -1806483797 869012155 -1803247493 -856092685 -2043186917 -1430291016 1931957337 2051698253 1663673840 -2051536672 -94560998 1163721693 1074372182 -310483238 194231301 -1507134020 1674404332 -351035455 -84057024 -427483306 1317515325 -1630794782 -737167447 -264708818 -1850422146
REM
CELL 1.54180   50.00000   50.00000   50.00000   90.00000   90.00000   90.00000
LATT -1
SFAC C  
C      1  0.4601610000000  0.5144690000000  0.4500980000000 1.0
C      1  0.4461420000000  0.5194810000000  0.5289980000000 1.0
C      1  0.5054410000000  0.5188440000000  0.5563340000000 1.0
C      1  0.5691840000000  0.5246280000000  0.5243290000000 1.0
C      1  0.5383620000000  0.5118740000000  0.4426360000000 1.0
C      1  0.4597650000000  0.4858380000000  0.4617520000000 1.0
C      1  0.4385370000000  0.4868530000000  0.5231880000000 1.0
C      1  0.4955950000000  0.4863400000000  0.5580450000000 1.0
C      1  0.5539360000000  0.4798870000000  0.5044530000000 1.0
C      1  0.5381350000000  0.4798710000000  0.4468630000000 1.0
C      1  0.5394140000000  0.5725740000000  0.4334240000000 1.0
C      1  0.4430260000000  0.5668040000000  0.4403490000000 1.0
C      1  0.4248420000000  0.5761950000000  0.5344790000000 1.0
C      1  0.5092960000000  0.5672430000000  0.5868030000000 1.0
C      1  0.5780260000000  0.5724750000000  0.5137310000000 1.0
C      1  0.5395210000000  0.4294170000000  0.4293080000000 1.0
C      1  0.4467780000000  0.4271680000000  0.4399640000000 1.0
C      1  0.4291270000000  0.4293670000000  0.5305000000000 1.0
C      1  0.5144130000000  0.4375870000000  0.5763260000000 1.0
C      1  0.5818000000000  0.4284440000000  0.5118060000000 1.0
C      1  0.4261030000000  0.5497780000000  0.4599260000000 1.0
C      1  0.4291850000000  0.5590720000000  0.5612000000000 1.0
C      1  0.5362770000000  0.5495750000000  0.5809660000000 1.0
C      1  0.5832470000000  0.5464250000000  0.4939140000000 1.0
C      1  0.5197220000000  0.5526120000000  0.4180420000000 1.0
C      1  0.4239270000000  0.4423420000000  0.4536650000000 1.0
C      1  0.4390310000000  0.4462190000000  0.5547390000000 1.0
C      1  0.5302470000000  0.4616060000000  0.5741490000000 1.0
C      1  0.5914630000000  0.4401050000000  0.4877340000000 1.0
C      1  0.5164350000000  0.4495040000000  0.4201080000000 1.0
C      1  0.4018860000000  0.5144210000000  0.5554130000000 1.0
C      1  0.5279810000000  0.5103820000000  0.6074750000000 1.0
C      1  0.6172960000000  0.5109090000000  0.5026240000000 1.0
C      1  0.5428290000000  0.5131440000000  0.3959630000000 1.0
C      1  0.4154080000000  0.5142300000000  0.4248900000000 1.0
C      1  0.4044750000000  0.4846370000000  0.5608550000000 1.0
C      1  0.5301080000000  0.4801810000000  0.6092840000000 1.0
C      1  0.6068680000000  0.4822280000000  0.5050080000000 1.0
C      1  0.5376720000000  0.4839290000000  0.3937200000000 1.0
C      1  0.4109660000000  0.4846740000000  0.4198090000000 1.0
C      1  0.5296490000000  0.4057750000000  0.4478610000000 1.0
C      1  0.4615700000000  0.4086160000000  0.4587020000000 1.0
C      1  0.4482160000000  0.4070040000000  0.5283570000000 1.0
C      1  0.5193970000000  0.4196040000000  0.5531380000000 1.0
C      1  0.5548860000000  0.4086310000000  0.5140550000000 1.0
C      1  0.5188470000000  0.5878830000000  0.4487430000000 1.0
C      1  0.4620280000000  0.5892440000000  0.4541050000000 1.0
C      1  0.4510160000000  0.5938940000000  0.5219220000000 1.0
C      1  0.5043260000000  0.5918860000000  0.5650390000000 1.0
C      1  0.5505780000000  0.5899590000000  0.5060320000000 1.0
C      1  0.5639190000000  0.5576190000000  0.4499630000000 1.0
C      1  0.4725430000000  0.5596940000000  0.4283580000000 1.0
C      1  0.4170280000000  0.5576990000000  0.5093570000000 1.0
C      1  0.4781110000000  0.5568730000000  0.5837580000000 1.0
C      1  0.5716130000000  0.5592790000000  0.5432790000000 1.0
C      1  0.5622550000000  0.4432490000000  0.4471160000000 1.0
C      1  0.4666030000000  0.4476050000000  0.4268560000000 1.0
C      1  0.4191190000000  0.4446350000000  0.5040540000000 1.0
C      1  0.4823940000000  0.4424430000000  0.5760940000000 1.0
C      1  0.5649090000000  0.4407240000000  0.5373160000000 1.0
C      1  0.4485850000000  0.5492110000000  0.5177320000000 1.0
C      1  0.4923370000000  0.5502000000000  0.5551600000000 1.0
C      1  0.5475520000000  0.5487950000000  0.5216220000000 1.0
C      1  0.5363010000000  0.5407720000000  0.4604430000000 1.0
C      1  0.4718820000000  0.5454620000000  0.4579740000000 1.0
C      1  0.4491010000000  0.4576770000000  0.5108090000000 1.0
C      1  0.4929240000000  0.4543650000000  0.5476430000000 1.0
C      1  0.5483490000000  0.4502470000000  0.5108830000000 1.0
C      1  0.5326840000000  0.4501310000000  0.4624340000000 1.0
C      1  0.4686800000000  0.4533780000000  0.4603360000000 1.0
C      1  0.5993580000000  0.5123800000000  0.5297160000000 1.0
C      1  0.5626870000000  0.5175750000000  0.4211330000000 1.0
C      1  0.4469890000000  0.5170990000000  0.4223050000000 1.0
C      1  0.4123270000000  0.5169390000000  0.5257630000000 1.0
C      1  0.5005520000000  0.5172440000000  0.5902860000000 1.0
C      1  0.5806550000000  0.4846970000000  0.5233970000000 1.0
C      1  0.5567600000000  0.4846600000000  0.4199400000000 1.0
C      1  0.4413690000000  0.4873240000000  0.4113840000000 1.0
C      1  0.4056330000000  0.4851900000000  0.5284590000000 1.0
C      1  0.5025210000000  0.4845060000000  0.5912930000000 1.0
C      1  0.4532610000000  0.5729020000000  0.5780650000000 1.0
C      1  0.5560140000000  0.5709280000000  0.5660530000000 1.0
C      1  0.5897230000000  0.5697490000000  0.4700340000000 1.0
C      1  0.4999460000000  0.5756630000000  0.4041200000000 1.0
C      1  0.4191210000000  0.5713750000000  0.4826400000000 1.0
C      1  0.4577050000000  0.4263090000000  0.5699880000000 1.0
C      1  0.5562100000000  0.4330600000000  0.5843470000000 1.0
C      1  0.5798240000000  0.4263690000000  0.4647340000000 1.0
C      1  0.4906240000000  0.4310810000000  0.4188120000000 1.0
C      1  0.4187700000000  0.4275690000000  0.4796110000000 1.0
C      1  0.4760630000000  0.4687570000000  0.5909540000000 1.0
C      1  0.5766300000000  0.4677130000000  0.5477500000000 1.0
C      1  0.5755640000000  0.4683140000000  0.4379610000000 1.0
C      1  0.4645950000000  0.4725030000000  0.4091800000000 1.0
C      1  0.4014740000000  0.4698620000000  0.5021940000000 1.0
C      1  0.4733270000000  0.5286750000000  0.5946320000000 1.0
C      1  0.5853250000000  0.5307990000000  0.5537410000000 1.0
C      1  0.5819400000000  0.5316340000000  0.4394090000000 1.0
C      1  0.4689140000000  0.5341370000000  0.4097600000000 1.0
C      1  0.4018050000000  0.5313020000000  0.5019900000000 1.0
C      1  0.5466740000000  0.4347250000000  0.4852900000000 1.0
C      1  0.4999940000000  0.4425250000000  0.4679370000000 1.0
C      1  0.4570710000000  0.4360530000000  0.4872660000000 1.0
C      1  0.4803780000000  0.4480400000000  0.5188100000000 1.0
C      1  0.5194640000000  0.4498180000000  0.5268630000000 1.0
C      1  0.5320300000000  0.5544420000000  0.4918920000000 1.0
C      1  0.5047000000000  0.5532650000000  0.4622360000000 1.0
C      1  0.4665190000000  0.5522590000000  0.4908630000000 1.0
C      1  0.4665020000000  0.5622010000000  0.5399360000000 1.0
C      1  0.5184500000000  0.5558630000000  0.5341340000000 1.0
C      1  0.5592370000000  0.5222740000000  0.4941430000000 1.0
C      1  0.5100430000000  0.5246570000000  0.4353560000000 1.0
C      1  0.4428180000000  0.5241750000000  0.4751420000000 1.0
C      1  0.4418430000000  0.5288040000000  0.5598010000000 1.0
C      1  0.5371850000000  0.5185870000000  0.5655300000000 1.0
C      1  0.5714570000000  0.4955840000000  0.4835850000000 1.0
C      1  0.5067840000000  0.4726940000000  0.4430720000000 1.0
C      1  0.4329530000000  0.4729830000000  0.4617810000000 1.0
C      1  0.4565450000000  0.4741960000000  0.5463260000000 1.0
C      1  0.5350150000000  0.4877850000000  0.5529810000000 1.0
C      1  0.4775770000000  0.5812580000000  0.5047860000000 1.0
C      1  0.4913020000000  0.5850780000000  0.5356850000000 1.0
C      1  0.5182860000000  0.5839730000000  0.5149980000000 1.0
C      1  0.5185020000000  0.5842260000000  0.4825550000000 1.0
C      1  0.4871990000000  0.5807110000000  0.4720960000000 1.0
C      1  0.4705470000000  0.4117430000000  0.5068940000000 1.0
C      1  0.4950090000000  0.4188500000000  0.5294110000000 1.0
C      1  0.5242270000000  0.4187030000000  0.5139240000000 1.0
C      1  0.5220820000000  0.4117300000000  0.4804760000000 1.0
C      1  0.4882950000000  0.4126850000000  0.4793290000000 1.0
C      1  0.4774590000000  0.4853520000000  0.4878080000000 1.0
C      1  0.4788500000000  0.4818780000000  0.5217950000000 1.0
C      1  0.5122550000000  0.4830220000000  0.5281750000000 1.0
C      1  0.5238980000000  0.4889290000000  0.4985680000000 1.0
C      1  0.5049420000000  0.4748950000000  0.4771310000000 1.0
C      1  0.4739130000000  0.5191730000000  0.4880110000000 1.0
C      1  0.4786070000000  0.5150630000000  0.5214340000000 1.0
C      1  0.5083660000000  0.5254840000000  0.5228860000000 1.0
C      1  0.5252210000000  0.5211520000000  0.4936320000000 1.0
C      1  0.5021180000000  0.5217520000000  0.4686570000000 1.0
C      1  0.4051040000000  0.5290150000000  0.4464080000000 1.0
C      1  0.4041360000000  0.5381020000000  0.5688830000000 1.0
C      1  0.5502010000000  0.5278270000000  0.6016190000000 1.0
C      1  0.6047160000000  0.5261050000000  0.4823500000000 1.0
C      1  0.5201110000000  0.5289070000000  0.3969470000000 1.0
C      1  0.4047010000000  0.4693670000000  0.4454330000000 1.0
C      1  0.4258860000000  0.4702600000000  0.5716990000000 1.0
C      1  0.5547110000000  0.4647600000000  0.5958540000000 1.0
C      1  0.6021800000000  0.4659640000000  0.4829400000000 1.0
C      1  0.5132740000000  0.4717840000000  0.3991490000000 1.0
C      1  0.4063990000000  0.4857990000000  0.4760870000000 1.0
C      1  0.4539970000000  0.4848580000000  0.5775070000000 1.0
C      1  0.5631530000000  0.4838490000000  0.5707120000000 1.0
C      1  0.5887060000000  0.4835260000000  0.4598510000000 1.0
C      1  0.4888940000000  0.4858530000000  0.4017330000000 1.0
C      1  0.4106250000000  0.5168070000000  0.4764260000000 1.0
C      1  0.4531860000000  0.5146590000000  0.5810130000000 1.0
C      1  0.5694190000000  0.5169240000000  0.5757560000000 1.0
C      1  0.5965910000000  0.5150600000000  0.4578130000000 1.0
C      1  0.4931150000000  0.5156550000000  0.4081360000000 1.0
C      1  0.4478110000000  0.5777450000000  0.4783480000000 1.0
C      1  0.4561090000000  0.5916820000000  0.5533280000000 1.0
C      1  0.5300430000000  0.5793140000000  0.5550910000000 1.0
C      1  0.5572430000000  0.5729610000000  0.4795680000000 1.0
C      1  0.4949750000000  0.5843860000000  0.4330640000000 1.0
C      1  0.4404710000000  0.4069700000000  0.4813000000000 1.0
C      1  0.4573160000000  0.4024030000000  0.5555620000000 1.0
C      1  0.5485060000000  0.4267850000000  0.5584360000000 1.0
C      1  0.5650740000000  0.4062140000000  0.4831030000000 1.0
C      1  0.5033100000000  0.4196720000000  0.4430280000000 1.0
END
