TITL C-2622956-4641-177 0.000636760091282969 125000 -366.154660038149 0 0 71 (C1) n - 1
REM
REM in /nfs/bkarasulu/CARBON/AIRSS/Generating-Clusters/AIREBO/with-SteepDescent/Higher-Symm/SD-CG/HFTN-CG
REM
REM
REM
REM
REM
REM ./C.cell (b20cbc046b6831c77cfcea5457e17084)
REM
REM compiler GCC version 9.2.1 20190827 (Red Hat 9.2.1-1)
REM options -cpp -mtune=generic -march=x86-64 -g -O0 -fpre-include=/usr/include/finclude/math-vector-fortran.h
REM seed -103609951 -1156467605 -866340318 -1786629023 1751762216 885965409 -1596287633 -2004911361 -1779481270 -1486887040 -2045000274 1375567864 2085750140 1637209621 -230928450 645624763 1004539146 -1001741471 626070026 631792309 -2037997683 -1741683348 -100763855 174361868 2119110764 -513253439 -1907552564 1334291986 -1928479822 751991132 -1562962560 -1447007484 1645858481
REM
CELL 1.54180   50.00000   50.00000   50.00000   90.00000   90.00000   90.00000
LATT -1
SFAC C  
C      1  0.5502790000000  0.4713140000000  0.5453300000000 1.0
C      1  0.5451510000000  0.5532680000000  0.4990260000000 1.0
C      1  0.5529710000000  0.4663330000000  0.4507980000000 1.0
C      1  0.4570780000000  0.4868880000000  0.5798810000000 1.0
C      1  0.4496760000000  0.5773670000000  0.4746800000000 1.0
C      1  0.4406050000000  0.4293850000000  0.4670750000000 1.0
C      1  0.4887320000000  0.4649040000000  0.5692110000000 1.0
C      1  0.4887150000000  0.5686710000000  0.4828690000000 1.0
C      1  0.4838110000000  0.4492090000000  0.4343800000000 1.0
C      1  0.4854880000000  0.5380670000000  0.4932780000000 1.0
C      1  0.4772930000000  0.4638250000000  0.4612890000000 1.0
C      1  0.4891890000000  0.4781230000000  0.5392220000000 1.0
C      1  0.4439910000000  0.5741350000000  0.5042320000000 1.0
C      1  0.4313690000000  0.4733920000000  0.4439240000000 1.0
C      1  0.4440710000000  0.4559790000000  0.5410320000000 1.0
C      1  0.4385130000000  0.5152520000000  0.4539960000000 1.0
C      1  0.4397520000000  0.4508530000000  0.5169280000000 1.0
C      1  0.4571970000000  0.5324710000000  0.5434650000000 1.0
C      1  0.4903540000000  0.4694020000000  0.5099180000000 1.0
C      1  0.4892990000000  0.5225650000000  0.5217940000000 1.0
C      1  0.4849870000000  0.4932980000000  0.4659850000000 1.0
C      1  0.5328900000000  0.4640860000000  0.4954300000000 1.0
C      1  0.5369820000000  0.5235660000000  0.5423210000000 1.0
C      1  0.5539640000000  0.5115800000000  0.4709250000000 1.0
C      1  0.5186100000000  0.4999740000000  0.5730430000000 1.0
C      1  0.5184440000000  0.5435810000000  0.4564440000000 1.0
C      1  0.5166040000000  0.4327060000000  0.4618640000000 1.0
C      1  0.5710530000000  0.4550920000000  0.5287580000000 1.0
C      1  0.5635580000000  0.5469550000000  0.5238950000000 1.0
C      1  0.5777560000000  0.4860990000000  0.4513710000000 1.0
C      1  0.5237690000000  0.5371060000000  0.4269680000000 1.0
C      1  0.5144640000000  0.4022000000000  0.5330600000000 1.0
C      1  0.4856100000000  0.5539720000000  0.5479340000000 1.0
C      1  0.5019550000000  0.4559600000000  0.4837830000000 1.0
C      1  0.5092330000000  0.5040120000000  0.5404060000000 1.0
C      1  0.5003930000000  0.5214410000000  0.4706070000000 1.0
C      1  0.5380610000000  0.4514710000000  0.4674410000000 1.0
C      1  0.5440070000000  0.4940230000000  0.5572970000000 1.0
C      1  0.5436170000000  0.5404470000000  0.4741440000000 1.0
C      1  0.4558350000000  0.5466190000000  0.4881460000000 1.0
C      1  0.4468020000000  0.4596930000000  0.4671210000000 1.0
C      1  0.4585040000000  0.4821640000000  0.5496490000000 1.0
C      1  0.5396630000000  0.4502630000000  0.5213280000000 1.0
C      1  0.5317650000000  0.5550610000000  0.5306210000000 1.0
C      1  0.5484150000000  0.4979100000000  0.4401500000000 1.0
C      1  0.4383240000000  0.5228510000000  0.4838280000000 1.0
C      1  0.4363990000000  0.4717110000000  0.4938970000000 1.0
C      1  0.4447700000000  0.5054060000000  0.5339270000000 1.0
C      1  0.5674780000000  0.5179340000000  0.5297280000000 1.0
C      1  0.5865400000000  0.5050740000000  0.4724080000000 1.0
C      1  0.5854240000000  0.4690860000000  0.5109430000000 1.0
C      1  0.5039650000000  0.5703690000000  0.4624250000000 1.0
C      1  0.5021930000000  0.4290190000000  0.4382570000000 1.0
C      1  0.5029370000000  0.4810990000000  0.5868030000000 1.0
C      1  0.4133560000000  0.5048680000000  0.5368370000000 1.0
C      1  0.4087960000000  0.5275700000000  0.4931420000000 1.0
C      1  0.4053190000000  0.4784890000000  0.4940100000000 1.0
C      1  0.5271730000000  0.4235850000000  0.5273570000000 1.0
C      1  0.5074600000000  0.5681960000000  0.5440890000000 1.0
C      1  0.5359860000000  0.5162170000000  0.4202550000000 1.0
C      1  0.5407480000000  0.4941830000000  0.4954260000000 1.0
C      1  0.6062150000000  0.5074050000000  0.5112410000000 1.0
C      1  0.3413590000000  0.5080380000000  0.5182170000000 1.0
C      1  0.6312760000000  0.5130680000000  0.5172350000000 1.0
C      1  0.3966010000000  0.5042050000000  0.5101600000000 1.0
C      1  0.5738910000000  0.5001250000000  0.5035810000000 1.0
C      1  0.4817090000000  0.4987110000000  0.4987480000000 1.0
C      1  0.4498000000000  0.4998380000000  0.5020250000000 1.0
C      1  0.6561630000000  0.5187010000000  0.5231990000000 1.0
C      1  0.5138400000000  0.5102660000000  0.4997670000000 1.0
C      1  0.3665500000000  0.5062920000000  0.5145420000000 1.0
END
