TITL C-2622956-4641-476 0.000404816630479043 125000 -464.600158014391 0 0 85 (C1) n - 1
REM
REM in /nfs/bkarasulu/CARBON/AIRSS/Generating-Clusters/AIREBO/with-SteepDescent/Higher-Symm/SD-CG/HFTN-CG
REM
REM
REM
REM
REM
REM ./C.cell (b20cbc046b6831c77cfcea5457e17084)
REM
REM compiler GCC version 9.2.1 20190827 (Red Hat 9.2.1-1)
REM options -cpp -mtune=generic -march=x86-64 -g -O0 -fpre-include=/usr/include/finclude/math-vector-fortran.h
REM seed 1666393045 -517562496 537679609 1396779183 -306390344 246336866 958184195 1224446970 -252241800 852220008 -1033180727 -875815202 1060845250 -1313939709 -325203221 498010636 414065583 -258662867 1009506922 1901853089 -2031083411 -111293635 -1220195322 -1869836803 -144197082 345530907 -116842519 -457806178 -1006965341 2050502776 -1280548343 -96642704 -1873713937
REM
CELL 1.54180   50.00000   50.00000   50.00000   90.00000   90.00000   90.00000
LATT -1
SFAC C  
C      1  0.5002020000000  0.5225600000000  0.5259570000000 1.0
C      1  0.5218150000000  0.5222540000000  0.4861280000000 1.0
C      1  0.4782910000000  0.5227070000000  0.4866710000000 1.0
C      1  0.4991270000000  0.4776630000000  0.4747950000000 1.0
C      1  0.5221940000000  0.4778250000000  0.5129780000000 1.0
C      1  0.4782140000000  0.4767970000000  0.5117810000000 1.0
C      1  0.5747780000000  0.4718850000000  0.4768170000000 1.0
C      1  0.4400710000000  0.4742190000000  0.4470180000000 1.0
C      1  0.4843720000000  0.4727530000000  0.5770810000000 1.0
C      1  0.5751270000000  0.5271030000000  0.5248250000000 1.0
C      1  0.4430380000000  0.5275840000000  0.5526580000000 1.0
C      1  0.4842430000000  0.5258350000000  0.4215000000000 1.0
C      1  0.5401590000000  0.4880860000000  0.4882180000000 1.0
C      1  0.4690820000000  0.4881780000000  0.4706060000000 1.0
C      1  0.4905840000000  0.4873220000000  0.5404070000000 1.0
C      1  0.5402640000000  0.5127150000000  0.5116950000000 1.0
C      1  0.4700270000000  0.5114510000000  0.5280390000000 1.0
C      1  0.4900170000000  0.5121420000000  0.4585440000000 1.0
C      1  0.4835000000000  0.4481990000000  0.4674950000000 1.0
C      1  0.4813340000000  0.4476270000000  0.5290320000000 1.0
C      1  0.5341850000000  0.4497950000000  0.4978960000000 1.0
C      1  0.4809260000000  0.5504600000000  0.5284320000000 1.0
C      1  0.4800880000000  0.5519540000000  0.4692990000000 1.0
C      1  0.5347390000000  0.5514650000000  0.4978680000000 1.0
C      1  0.4899790000000  0.4436010000000  0.4344220000000 1.0
C      1  0.4492610000000  0.4429790000000  0.5393680000000 1.0
C      1  0.5624800000000  0.4453740000000  0.5257560000000 1.0
C      1  0.4912240000000  0.5544800000000  0.5668250000000 1.0
C      1  0.4482400000000  0.5565630000000  0.4582810000000 1.0
C      1  0.5598510000000  0.5565670000000  0.4754970000000 1.0
C      1  0.5543180000000  0.5231160000000  0.4758360000000 1.0
C      1  0.4522980000000  0.5236150000000  0.4645570000000 1.0
C      1  0.4940870000000  0.5220060000000  0.5595000000000 1.0
C      1  0.5543100000000  0.4777870000000  0.5244120000000 1.0
C      1  0.4527490000000  0.4762400000000  0.5344650000000 1.0
C      1  0.4934080000000  0.4766110000000  0.4411960000000 1.0
C      1  0.5170260000000  0.4219020000000  0.5070590000000 1.0
C      1  0.4980010000000  0.4190580000000  0.4787260000000 1.0
C      1  0.4829550000000  0.4200510000000  0.5092000000000 1.0
C      1  0.5165240000000  0.5790440000000  0.4898690000000 1.0
C      1  0.4974760000000  0.5783570000000  0.5182230000000 1.0
C      1  0.4826680000000  0.5810490000000  0.4874640000000 1.0
C      1  0.5777800000000  0.5004700000000  0.4857960000000 1.0
C      1  0.4486860000000  0.5011940000000  0.4391060000000 1.0
C      1  0.4734550000000  0.4996550000000  0.5741490000000 1.0
C      1  0.5778890000000  0.5000000000000  0.5140560000000 1.0
C      1  0.4493270000000  0.4990550000000  0.5595740000000 1.0
C      1  0.4731610000000  0.4988520000000  0.4251200000000 1.0
C      1  0.5595020000000  0.4887610000000  0.5554730000000 1.0
C      1  0.5182720000000  0.4875430000000  0.4214470000000 1.0
C      1  0.4236370000000  0.4887450000000  0.5240200000000 1.0
C      1  0.5594600000000  0.5108940000000  0.4453170000000 1.0
C      1  0.5187570000000  0.5111650000000  0.5789640000000 1.0
C      1  0.4229460000000  0.5123300000000  0.4763550000000 1.0
C      1  0.5358100000000  0.5513540000000  0.4544420000000 1.0
C      1  0.4429570000000  0.5527260000000  0.4902790000000 1.0
C      1  0.5195850000000  0.5522380000000  0.5541320000000 1.0
C      1  0.5376810000000  0.4474390000000  0.5443050000000 1.0
C      1  0.4427840000000  0.4480650000000  0.5079450000000 1.0
C      1  0.5202340000000  0.4473570000000  0.4458480000000 1.0
C      1  0.5219510000000  0.5601870000000  0.5281430000000 1.0
C      1  0.5121160000000  0.5610320000000  0.4637810000000 1.0
C      1  0.4635740000000  0.5628090000000  0.5048220000000 1.0
C      1  0.5224680000000  0.4374190000000  0.4710050000000 1.0
C      1  0.5139310000000  0.4392110000000  0.5337920000000 1.0
C      1  0.4628010000000  0.4382900000000  0.4921970000000 1.0
C      1  0.4735850000000  0.4527370000000  0.5617470000000 1.0
C      1  0.5656200000000  0.4531320000000  0.4950800000000 1.0
C      1  0.4588420000000  0.4541730000000  0.4448500000000 1.0
C      1  0.4729050000000  0.5458770000000  0.4366200000000 1.0
C      1  0.5669560000000  0.5469840000000  0.5077900000000 1.0
C      1  0.4630550000000  0.5466180000000  0.5541840000000 1.0
C      1  0.5370150000000  0.5291840000000  0.4391020000000 1.0
C      1  0.4297650000000  0.5305520000000  0.4984140000000 1.0
C      1  0.5341410000000  0.5302020000000  0.5623240000000 1.0
C      1  0.5374680000000  0.4696770000000  0.5607120000000 1.0
C      1  0.4291390000000  0.4704780000000  0.5014190000000 1.0
C      1  0.5340120000000  0.4693280000000  0.4383240000000 1.0
C      1  0.5518020000000  0.5163330000000  0.5431090000000 1.0
C      1  0.5116500000000  0.5153200000000  0.4331610000000 1.0
C      1  0.4378540000000  0.5163350000000  0.5232320000000 1.0
C      1  0.5517480000000  0.4833590000000  0.4576470000000 1.0
C      1  0.5119330000000  0.4835130000000  0.5661980000000 1.0
C      1  0.4365370000000  0.4845910000000  0.4765870000000 1.0
C      1  0.5000010000000  0.5002670000000  0.5002430000000 1.0
END
