TITL C-2622958-629-745 -0.00225160741303426 125000 -606.035901225729 0 0 116 (C1) n - 1
REM
REM in /nfs/bkarasulu/CARBON/AIRSS/Generating-Clusters/AIREBO/with-SteepDescent/Higher-Symm/SD-CG/HFTN-CG
REM
REM
REM
REM
REM
REM ./C.cell (b20cbc046b6831c77cfcea5457e17084)
REM
REM compiler GCC version 9.2.1 20190827 (Red Hat 9.2.1-1)
REM options -cpp -mtune=generic -march=x86-64 -g -O0 -fpre-include=/usr/include/finclude/math-vector-fortran.h
REM seed -1885971485 -173436411 -1051401257 277311788 707949453 -1983454967 1785631846 -1101702982 -591698557 -1293203580 2082406565 -1110087220 -264764203 -87698368 -1998002729 2030796085 1085305778 -1433699794 -608271344 651685642 1567481456 614554802 -1837198337 -1655563681 228048474 -1228761792 -1254698757 472568955 2110725635 -915309992 -1699060996 -1977298047 1462917116
REM
CELL 1.54180   50.00000   50.00000   50.00000   90.00000   90.00000   90.00000
LATT -1
SFAC C  
C      1  0.4955900000000  0.5060670000000  0.5361230000000 1.0
C      1  0.5242730000000  0.4988770000000  0.5191770000000 1.0
C      1  0.5184070000000  0.5131540000000  0.4888780000000 1.0
C      1  0.4908340000000  0.4993600000000  0.4744000000000 1.0
C      1  0.4653490000000  0.5077320000000  0.4953010000000 1.0
C      1  0.5476130000000  0.5133310000000  0.4339160000000 1.0
C      1  0.4466830000000  0.5115940000000  0.4291630000000 1.0
C      1  0.4128820000000  0.5149310000000  0.5258310000000 1.0
C      1  0.5031240000000  0.5205540000000  0.5910970000000 1.0
C      1  0.5849140000000  0.5127430000000  0.5281300000000 1.0
C      1  0.5867950000000  0.5278440000000  0.5034970000000 1.0
C      1  0.5265030000000  0.5306850000000  0.4236060000000 1.0
C      1  0.4298050000000  0.5303330000000  0.4448510000000 1.0
C      1  0.4233740000000  0.5341690000000  0.5465610000000 1.0
C      1  0.5276450000000  0.5346380000000  0.5807150000000 1.0
C      1  0.4962620000000  0.4691040000000  0.4704880000000 1.0
C      1  0.4691410000000  0.4762950000000  0.4988180000000 1.0
C      1  0.4868360000000  0.4770190000000  0.5264700000000 1.0
C      1  0.5248080000000  0.4682700000000  0.5180060000000 1.0
C      1  0.5193000000000  0.4586370000000  0.4892230000000 1.0
C      1  0.4443460000000  0.4576240000000  0.4548800000000 1.0
C      1  0.4376500000000  0.4580590000000  0.5376190000000 1.0
C      1  0.5193590000000  0.4547170000000  0.5637300000000 1.0
C      1  0.5693320000000  0.4521200000000  0.4972450000000 1.0
C      1  0.5285730000000  0.4567860000000  0.4302540000000 1.0
C      1  0.4445900000000  0.5391170000000  0.5252920000000 1.0
C      1  0.5106650000000  0.5396490000000  0.5568610000000 1.0
C      1  0.5601690000000  0.5387710000000  0.5107350000000 1.0
C      1  0.5276260000000  0.5433700000000  0.4507310000000 1.0
C      1  0.4570930000000  0.5401580000000  0.4550230000000 1.0
C      1  0.5992940000000  0.5169250000000  0.4738040000000 1.0
C      1  0.5036840000000  0.5178760000000  0.4028830000000 1.0
C      1  0.4069190000000  0.5173820000000  0.4589220000000 1.0
C      1  0.4329070000000  0.5234060000000  0.5709880000000 1.0
C      1  0.5557910000000  0.5227910000000  0.5847210000000 1.0
C      1  0.5567750000000  0.4944140000000  0.5281790000000 1.0
C      1  0.5374950000000  0.5008910000000  0.4639030000000 1.0
C      1  0.4684000000000  0.4979690000000  0.4488600000000 1.0
C      1  0.4383940000000  0.4986390000000  0.5141760000000 1.0
C      1  0.4936870000000  0.4978270000000  0.5690670000000 1.0
C      1  0.4410520000000  0.4893090000000  0.4618190000000 1.0
C      1  0.4516180000000  0.4889190000000  0.5405540000000 1.0
C      1  0.5218830000000  0.4845380000000  0.5708490000000 1.0
C      1  0.5661660000000  0.4837990000000  0.4995510000000 1.0
C      1  0.5202290000000  0.4861520000000  0.4434610000000 1.0
C      1  0.5580740000000  0.5392090000000  0.4652890000000 1.0
C      1  0.4885150000000  0.5385510000000  0.4440480000000 1.0
C      1  0.4329220000000  0.5409500000000  0.4943950000000 1.0
C      1  0.4791200000000  0.5424810000000  0.5615250000000 1.0
C      1  0.5467510000000  0.5361050000000  0.5402810000000 1.0
C      1  0.4791670000000  0.5672410000000  0.5197040000000 1.0
C      1  0.5093380000000  0.5784700000000  0.5246120000000 1.0
C      1  0.5272160000000  0.5713030000000  0.4965880000000 1.0
C      1  0.5052090000000  0.5831250000000  0.4757370000000 1.0
C      1  0.4744560000000  0.5738730000000  0.4869190000000 1.0
C      1  0.4782260000000  0.5693260000000  0.4377530000000 1.0
C      1  0.4302980000000  0.5711080000000  0.5061630000000 1.0
C      1  0.4772480000000  0.5735850000000  0.5641690000000 1.0
C      1  0.5549690000000  0.5678810000000  0.5376700000000 1.0
C      1  0.5536400000000  0.5720620000000  0.4604500000000 1.0
C      1  0.4768810000000  0.4302580000000  0.5534160000000 1.0
C      1  0.5445480000000  0.4215410000000  0.5387870000000 1.0
C      1  0.5507430000000  0.4229530000000  0.4653590000000 1.0
C      1  0.4931020000000  0.4227920000000  0.4419340000000 1.0
C      1  0.4415920000000  0.4229380000000  0.4901210000000 1.0
C      1  0.5465230000000  0.4449630000000  0.5539750000000 1.0
C      1  0.5693710000000  0.4428160000000  0.4688520000000 1.0
C      1  0.4999390000000  0.4428650000000  0.4246160000000 1.0
C      1  0.4284580000000  0.4436780000000  0.4780830000000 1.0
C      1  0.4604060000000  0.4515980000000  0.5602980000000 1.0
C      1  0.5899390000000  0.4866710000000  0.4592610000000 1.0
C      1  0.4904020000000  0.4862920000000  0.4062150000000 1.0
C      1  0.4037690000000  0.4867290000000  0.4757550000000 1.0
C      1  0.4503680000000  0.4986900000000  0.5909570000000 1.0
C      1  0.5702260000000  0.4917800000000  0.5728060000000 1.0
C      1  0.4546380000000  0.4552040000000  0.4252670000000 1.0
C      1  0.4124150000000  0.4585610000000  0.5192840000000 1.0
C      1  0.4979920000000  0.4575730000000  0.5880590000000 1.0
C      1  0.5856840000000  0.4592050000000  0.5243150000000 1.0
C      1  0.5597580000000  0.4590280000000  0.4267450000000 1.0
C      1  0.5175640000000  0.5467980000000  0.5264780000000 1.0
C      1  0.5373390000000  0.5413720000000  0.4903820000000 1.0
C      1  0.5042230000000  0.5514960000000  0.4705350000000 1.0
C      1  0.4662690000000  0.5408760000000  0.4877540000000 1.0
C      1  0.4781540000000  0.5344000000000  0.5285120000000 1.0
C      1  0.4713780000000  0.4259260000000  0.5020380000000 1.0
C      1  0.4937830000000  0.4252560000000  0.5255930000000 1.0
C      1  0.5228020000000  0.4170920000000  0.5130290000000 1.0
C      1  0.5207290000000  0.4202140000000  0.4792230000000 1.0
C      1  0.4881420000000  0.4276360000000  0.4734290000000 1.0
C      1  0.5664540000000  0.5078640000000  0.4755250000000 1.0
C      1  0.4956010000000  0.5078100000000  0.4344920000000 1.0
C      1  0.4268750000000  0.5097500000000  0.4853710000000 1.0
C      1  0.4635560000000  0.5122320000000  0.5626870000000 1.0
C      1  0.5439760000000  0.5067260000000  0.5571780000000 1.0
C      1  0.4644650000000  0.4525910000000  0.5205720000000 1.0
C      1  0.5052050000000  0.4533080000000  0.5372020000000 1.0
C      1  0.5419790000000  0.4432070000000  0.5054610000000 1.0
C      1  0.5195620000000  0.4476020000000  0.4590690000000 1.0
C      1  0.4685560000000  0.4547430000000  0.4745080000000 1.0
C      1  0.4502440000000  0.5810910000000  0.5179180000000 1.0
C      1  0.4928920000000  0.5883570000000  0.5507350000000 1.0
C      1  0.5485480000000  0.5823750000000  0.5180890000000 1.0
C      1  0.5337960000000  0.5873480000000  0.4605490000000 1.0
C      1  0.4700320000000  0.5838620000000  0.4567780000000 1.0
C      1  0.5445000000000  0.4874320000000  0.5921760000000 1.0
C      1  0.5974170000000  0.4889260000000  0.4922980000000 1.0
C      1  0.5233880000000  0.4913620000000  0.4109290000000 1.0
C      1  0.4140890000000  0.4812700000000  0.4438210000000 1.0
C      1  0.4343690000000  0.4852240000000  0.5667100000000 1.0
C      1  0.5660120000000  0.4685230000000  0.5482080000000 1.0
C      1  0.5755610000000  0.4616940000000  0.4492070000000 1.0
C      1  0.4798730000000  0.4599010000000  0.4151070000000 1.0
C      1  0.4113560000000  0.4609690000000  0.4920100000000 1.0
C      1  0.4708040000000  0.4739710000000  0.5796460000000 1.0
C      1  0.4975360000000  0.5372650000000  0.5006890000000 1.0
END
