TITL C-2622953-3516-27 -0.00121851841948325 125000 -524.711489911131 0 0 98 (C1) n - 1
REM
REM in /nfs/bkarasulu/CARBON/AIRSS/Generating-Clusters/AIREBO/with-SteepDescent/Higher-Symm/SD-CG/HFTN-CG
REM
REM
REM
REM
REM
REM ./C.cell (b20cbc046b6831c77cfcea5457e17084)
REM
REM compiler GCC version 9.2.1 20190827 (Red Hat 9.2.1-1)
REM options -cpp -mtune=generic -march=x86-64 -g -O0 -fpre-include=/usr/include/finclude/math-vector-fortran.h
REM seed -465058129 -919736459 -1005466334 -866427203 -1067553945 108261184 1196595740 529880917 -1436321926 706973849 -565111985 336922925 271566857 -235350949 874413373 -1594141605 -1928672473 735258478 -6914971 605951445 42435827 1799953971 -759247983 110417284 1779776027 -708696738 -117099939 1078991026 -624300968 198659820 -941316797 -1582684017 2026702575
REM
CELL 1.54180   50.00000   50.00000   50.00000   90.00000   90.00000   90.00000
LATT -1
SFAC C  
C      1  0.5827030000000  0.5469620000000  0.4928590000000 1.0
C      1  0.5588290000000  0.5560470000000  0.5103090000000 1.0
C      1  0.5209050000000  0.5765430000000  0.4489130000000 1.0
C      1  0.5346130000000  0.5636300000000  0.5509270000000 1.0
C      1  0.4359930000000  0.4978470000000  0.5538690000000 1.0
C      1  0.4269490000000  0.4915990000000  0.4543110000000 1.0
C      1  0.5005740000000  0.5286580000000  0.4259620000000 1.0
C      1  0.4772220000000  0.5175130000000  0.5816680000000 1.0
C      1  0.5883940000000  0.5169780000000  0.4772110000000 1.0
C      1  0.5760820000000  0.5053580000000  0.5290820000000 1.0
C      1  0.5225330000000  0.4769410000000  0.5758270000000 1.0
C      1  0.5287630000000  0.4822600000000  0.4166230000000 1.0
C      1  0.4278440000000  0.4659510000000  0.4760470000000 1.0
C      1  0.4293910000000  0.4718020000000  0.5329960000000 1.0
C      1  0.4984610000000  0.5298120000000  0.5331340000000 1.0
C      1  0.5079380000000  0.5320420000000  0.4589910000000 1.0
C      1  0.4771780000000  0.5645460000000  0.4792520000000 1.0
C      1  0.4811980000000  0.5654820000000  0.5350890000000 1.0
C      1  0.5644580000000  0.5380340000000  0.4653890000000 1.0
C      1  0.5529020000000  0.5472930000000  0.5364910000000 1.0
C      1  0.5433780000000  0.4534740000000  0.5265000000000 1.0
C      1  0.5441870000000  0.4548360000000  0.4691850000000 1.0
C      1  0.4668390000000  0.4313650000000  0.5336280000000 1.0
C      1  0.4624630000000  0.4277120000000  0.4752380000000 1.0
C      1  0.5447070000000  0.5143570000000  0.5386780000000 1.0
C      1  0.5520400000000  0.5079200000000  0.4634870000000 1.0
C      1  0.5161170000000  0.5101430000000  0.4017870000000 1.0
C      1  0.4930660000000  0.5198620000000  0.6066390000000 1.0
C      1  0.4797780000000  0.4924180000000  0.4567630000000 1.0
C      1  0.4788720000000  0.4952050000000  0.5352530000000 1.0
C      1  0.4853830000000  0.4111520000000  0.4904710000000 1.0
C      1  0.4854160000000  0.4099560000000  0.5189380000000 1.0
C      1  0.4620270000000  0.4699780000000  0.5423580000000 1.0
C      1  0.4574780000000  0.4668760000000  0.4593820000000 1.0
C      1  0.4579190000000  0.5497810000000  0.4420410000000 1.0
C      1  0.4408230000000  0.5472970000000  0.5651230000000 1.0
C      1  0.5366200000000  0.5155820000000  0.4370020000000 1.0
C      1  0.5182880000000  0.5220050000000  0.5586810000000 1.0
C      1  0.4965760000000  0.4630540000000  0.4532180000000 1.0
C      1  0.5021480000000  0.4750290000000  0.5414660000000 1.0
C      1  0.5501110000000  0.4860070000000  0.5663290000000 1.0
C      1  0.5604340000000  0.4777240000000  0.4239780000000 1.0
C      1  0.4813780000000  0.5148460000000  0.5083130000000 1.0
C      1  0.4953720000000  0.5097030000000  0.4814060000000 1.0
C      1  0.5919470000000  0.4905750000000  0.4641130000000 1.0
C      1  0.5634210000000  0.4869720000000  0.5067650000000 1.0
C      1  0.4390890000000  0.4396190000000  0.4923860000000 1.0
C      1  0.4403820000000  0.4419770000000  0.5203150000000 1.0
C      1  0.5074190000000  0.4981730000000  0.4377930000000 1.0
C      1  0.5047620000000  0.4986640000000  0.5751410000000 1.0
C      1  0.4489160000000  0.5336690000000  0.5849660000000 1.0
C      1  0.4730730000000  0.5421080000000  0.4238430000000 1.0
C      1  0.4531990000000  0.5433790000000  0.4744740000000 1.0
C      1  0.4572740000000  0.5466970000000  0.5368660000000 1.0
C      1  0.5071870000000  0.5589370000000  0.5483630000000 1.0
C      1  0.4977590000000  0.5621060000000  0.4609190000000 1.0
C      1  0.4225580000000  0.5183330000000  0.4724080000000 1.0
C      1  0.4136320000000  0.5085490000000  0.5340890000000 1.0
C      1  0.5234390000000  0.5417270000000  0.5821790000000 1.0
C      1  0.5472050000000  0.5296400000000  0.4174040000000 1.0
C      1  0.4530080000000  0.5135550000000  0.4580500000000 1.0
C      1  0.4619830000000  0.5162480000000  0.5515540000000 1.0
C      1  0.4914610000000  0.4508960000000  0.5233660000000 1.0
C      1  0.4865840000000  0.4497030000000  0.4806370000000 1.0
C      1  0.5120690000000  0.4191790000000  0.4770510000000 1.0
C      1  0.5143590000000  0.4114860000000  0.5305540000000 1.0
C      1  0.4318770000000  0.4632440000000  0.4364000000000 1.0
C      1  0.4418180000000  0.4692590000000  0.5708270000000 1.0
C      1  0.4560000000000  0.4429590000000  0.5621050000000 1.0
C      1  0.4474500000000  0.4368620000000  0.4469410000000 1.0
C      1  0.5144950000000  0.4512150000000  0.5621540000000 1.0
C      1  0.5131580000000  0.4563730000000  0.4257460000000 1.0
C      1  0.5534370000000  0.4783960000000  0.4535180000000 1.0
C      1  0.5339760000000  0.4820830000000  0.5379460000000 1.0
C      1  0.5745200000000  0.4957830000000  0.5601120000000 1.0
C      1  0.5884580000000  0.4852140000000  0.4358990000000 1.0
C      1  0.5094800000000  0.5513950000000  0.5092610000000 1.0
C      1  0.5356480000000  0.5510640000000  0.4659380000000 1.0
C      1  0.5200260000000  0.4384440000000  0.4539410000000 1.0
C      1  0.5294240000000  0.4347060000000  0.5433590000000 1.0
C      1  0.4899590000000  0.6036990000000  0.5060760000000 1.0
C      1  0.5833880000000  0.4715050000000  0.4838450000000 1.0
C      1  0.5177750000000  0.4605470000000  0.4868940000000 1.0
C      1  0.5164810000000  0.4896960000000  0.4879700000000 1.0
C      1  0.4207660000000  0.5711040000000  0.5068880000000 1.0
C      1  0.5943480000000  0.5209650000000  0.5104480000000 1.0
C      1  0.4510690000000  0.5207880000000  0.5071700000000 1.0
C      1  0.5426010000000  0.5031130000000  0.4916260000000 1.0
C      1  0.4436900000000  0.4777320000000  0.5030310000000 1.0
C      1  0.4219260000000  0.5038540000000  0.5026980000000 1.0
C      1  0.5295880000000  0.5239110000000  0.5102500000000 1.0
C      1  0.5133140000000  0.4356140000000  0.5068210000000 1.0
C      1  0.4695770000000  0.4633950000000  0.5033960000000 1.0
C      1  0.4435270000000  0.5513650000000  0.5061090000000 1.0
C      1  0.3957780000000  0.4887820000000  0.4956620000000 1.0
C      1  0.4861600000000  0.5759940000000  0.5065100000000 1.0
C      1  0.5356420000000  0.5599430000000  0.4949140000000 1.0
C      1  0.5578940000000  0.4549440000000  0.4990720000000 1.0
END
