TITL C-2622960-5345-678 -60.5452705500228 125000 -716.85819480266 0 0 135 (C1) n - 1
REM
REM in /nfs/bkarasulu/CARBON/AIRSS/Generating-Clusters/AIREBO/with-SteepDescent/Higher-Symm/SD-CG/HFTN-CG
REM
REM
REM
REM
REM
REM ./C.cell (b20cbc046b6831c77cfcea5457e17084)
REM
REM compiler GCC version 9.2.1 20190827 (Red Hat 9.2.1-1)
REM options -cpp -mtune=generic -march=x86-64 -g -O0 -fpre-include=/usr/include/finclude/math-vector-fortran.h
REM seed -461589635 214766412 579100286 833565607 -1087351061 -1078253751 1702324654 911345736 -1945962390 1542927508 -1285390983 1989387274 -1285782392 169162364 -705044351 2025125620 1278158183 469057317 -672026661 1896800024 1681912147 -365769776 -504649311 -1138114775 1081851652 491730810 835278642 -1597968878 -1106379633 799199935 149001639 -987007118 -376845361
REM
CELL 1.54180   50.00000   50.00000   50.00000   90.00000   90.00000   90.00000
LATT -1
SFAC C  
C      1  0.5585780000000  0.4893550000000  0.4109070000000 1.0
C      1  0.5955220000000  0.4947400000000  0.4812930000000 1.0
C      1  0.5535230000000  0.4964900000000  0.5751130000000 1.0
C      1  0.4857600000000  0.4729670000000  0.6056410000000 1.0
C      1  0.4073770000000  0.4899260000000  0.5496550000000 1.0
C      1  0.4047660000000  0.4947270000000  0.4602290000000 1.0
C      1  0.4667970000000  0.4914850000000  0.4034200000000 1.0
C      1  0.4642110000000  0.5028000000000  0.4758160000000 1.0
C      1  0.4888540000000  0.5038750000000  0.4584080000000 1.0
C      1  0.5144060000000  0.5201400000000  0.4700320000000 1.0
C      1  0.5309020000000  0.5123420000000  0.4966590000000 1.0
C      1  0.5268860000000  0.5035480000000  0.5274580000000 1.0
C      1  0.4963570000000  0.5109620000000  0.5352060000000 1.0
C      1  0.4695050000000  0.5106810000000  0.5182290000000 1.0
C      1  0.4836730000000  0.5878480000000  0.4719850000000 1.0
C      1  0.5138570000000  0.5934060000000  0.4679940000000 1.0
C      1  0.5295040000000  0.5903610000000  0.4918550000000 1.0
C      1  0.5319140000000  0.5869640000000  0.5212340000000 1.0
C      1  0.5061430000000  0.5769320000000  0.5324570000000 1.0
C      1  0.4756230000000  0.5836650000000  0.5232300000000 1.0
C      1  0.4639840000000  0.5900620000000  0.4962870000000 1.0
C      1  0.5086650000000  0.5245640000000  0.3977550000000 1.0
C      1  0.5782030000000  0.5418430000000  0.4293070000000 1.0
C      1  0.5823280000000  0.5424600000000  0.5400190000000 1.0
C      1  0.5244410000000  0.5386520000000  0.5882830000000 1.0
C      1  0.4564900000000  0.5145220000000  0.5901340000000 1.0
C      1  0.4158660000000  0.5405280000000  0.4994900000000 1.0
C      1  0.4282950000000  0.5308460000000  0.4302310000000 1.0
C      1  0.5590340000000  0.5199110000000  0.4117180000000 1.0
C      1  0.6021930000000  0.5211670000000  0.4687590000000 1.0
C      1  0.5549570000000  0.5272320000000  0.5811130000000 1.0
C      1  0.4787990000000  0.5063030000000  0.6059460000000 1.0
C      1  0.4181230000000  0.5167290000000  0.5546210000000 1.0
C      1  0.4040010000000  0.5274070000000  0.4536690000000 1.0
C      1  0.4759150000000  0.5199280000000  0.4062870000000 1.0
C      1  0.5723850000000  0.5531700000000  0.5119190000000 1.0
C      1  0.5344640000000  0.5536130000000  0.5594180000000 1.0
C      1  0.4752760000000  0.5696860000000  0.5666930000000 1.0
C      1  0.4362160000000  0.5562930000000  0.5217740000000 1.0
C      1  0.4472100000000  0.5567800000000  0.4660490000000 1.0
C      1  0.4930340000000  0.5536780000000  0.4389100000000 1.0
C      1  0.5530400000000  0.5555020000000  0.4481480000000 1.0
C      1  0.5370510000000  0.5300030000000  0.3912270000000 1.0
C      1  0.6005080000000  0.5335160000000  0.4432210000000 1.0
C      1  0.5741300000000  0.5426150000000  0.5693640000000 1.0
C      1  0.4997420000000  0.5250220000000  0.6073080000000 1.0
C      1  0.4279990000000  0.5213380000000  0.5811380000000 1.0
C      1  0.3989680000000  0.5428940000000  0.4776720000000 1.0
C      1  0.4467090000000  0.5355750000000  0.4104270000000 1.0
C      1  0.5384400000000  0.5604240000000  0.4920530000000 1.0
C      1  0.5352710000000  0.5394270000000  0.5128550000000 1.0
C      1  0.5075460000000  0.5429340000000  0.5322270000000 1.0
C      1  0.4757230000000  0.5503720000000  0.5228470000000 1.0
C      1  0.4601560000000  0.5358740000000  0.4973230000000 1.0
C      1  0.4843720000000  0.5567020000000  0.4845040000000 1.0
C      1  0.5154690000000  0.5515880000000  0.4717340000000 1.0
C      1  0.4125810000000  0.4815600000000  0.4894370000000 1.0
C      1  0.4469380000000  0.4819410000000  0.4248300000000 1.0
C      1  0.5298000000000  0.4757240000000  0.4191720000000 1.0
C      1  0.5780130000000  0.4802750000000  0.4579570000000 1.0
C      1  0.5714170000000  0.4799440000000  0.5513860000000 1.0
C      1  0.5162340000000  0.4810220000000  0.5977660000000 1.0
C      1  0.4356540000000  0.4806030000000  0.5863040000000 1.0
C      1  0.5036080000000  0.5678230000000  0.5630990000000 1.0
C      1  0.4533310000000  0.5724820000000  0.5463400000000 1.0
C      1  0.4424620000000  0.5711560000000  0.4917490000000 1.0
C      1  0.4694250000000  0.5677240000000  0.4495280000000 1.0
C      1  0.5223190000000  0.5697830000000  0.4451590000000 1.0
C      1  0.5667640000000  0.5589350000000  0.4788680000000 1.0
C      1  0.5517350000000  0.5686490000000  0.5342030000000 1.0
C      1  0.5015000000000  0.4829990000000  0.5538620000000 1.0
C      1  0.4604260000000  0.4811990000000  0.5291070000000 1.0
C      1  0.4544540000000  0.4778790000000  0.4878190000000 1.0
C      1  0.4820390000000  0.4709310000000  0.4599920000000 1.0
C      1  0.5287870000000  0.4932150000000  0.4617530000000 1.0
C      1  0.5491910000000  0.4875650000000  0.4956410000000 1.0
C      1  0.5343130000000  0.4754970000000  0.5323000000000 1.0
C      1  0.4750210000000  0.4171620000000  0.5224810000000 1.0
C      1  0.4617730000000  0.4132660000000  0.4928720000000 1.0
C      1  0.4771880000000  0.4135430000000  0.4680240000000 1.0
C      1  0.5056040000000  0.4140420000000  0.4652100000000 1.0
C      1  0.5499980000000  0.4109820000000  0.4827320000000 1.0
C      1  0.5263780000000  0.4185050000000  0.5238010000000 1.0
C      1  0.5039810000000  0.4138340000000  0.5400040000000 1.0
C      1  0.4273590000000  0.5102250000000  0.5005840000000 1.0
C      1  0.4343990000000  0.5032970000000  0.4460580000000 1.0
C      1  0.5228280000000  0.5087600000000  0.4243410000000 1.0
C      1  0.5592740000000  0.5063450000000  0.4691500000000 1.0
C      1  0.5738250000000  0.5115710000000  0.5443500000000 1.0
C      1  0.5211800000000  0.5059480000000  0.5797790000000 1.0
C      1  0.4578300000000  0.5123560000000  0.5562210000000 1.0
C      1  0.5248980000000  0.4619060000000  0.4620420000000 1.0
C      1  0.5363810000000  0.4588550000000  0.4939040000000 1.0
C      1  0.5139520000000  0.4561380000000  0.5184680000000 1.0
C      1  0.4857830000000  0.4469890000000  0.5275970000000 1.0
C      1  0.5220800000000  0.4280970000000  0.4914230000000 1.0
C      1  0.4778600000000  0.4657470000000  0.5041850000000 1.0
C      1  0.4991280000000  0.4518110000000  0.4818080000000 1.0
C      1  0.4598000000000  0.4514790000000  0.4331690000000 1.0
C      1  0.5231890000000  0.4421890000000  0.4260660000000 1.0
C      1  0.5785600000000  0.4471640000000  0.4741790000000 1.0
C      1  0.5612280000000  0.4481800000000  0.5433080000000 1.0
C      1  0.5038230000000  0.4540700000000  0.5811320000000 1.0
C      1  0.4370350000000  0.4493640000000  0.5475000000000 1.0
C      1  0.4251050000000  0.4494980000000  0.4889010000000 1.0
C      1  0.4935450000000  0.5232480000000  0.4338160000000 1.0
C      1  0.5462070000000  0.5236800000000  0.4429800000000 1.0
C      1  0.5767650000000  0.5294930000000  0.4872240000000 1.0
C      1  0.5454170000000  0.5273620000000  0.5420590000000 1.0
C      1  0.4897080000000  0.5118670000000  0.5681890000000 1.0
C      1  0.4399470000000  0.5232810000000  0.5293840000000 1.0
C      1  0.4403360000000  0.5240660000000  0.4723430000000 1.0
C      1  0.4827160000000  0.4579710000000  0.5547620000000 1.0
C      1  0.4336500000000  0.4702330000000  0.5136040000000 1.0
C      1  0.4485210000000  0.4645750000000  0.4603590000000 1.0
C      1  0.5024050000000  0.4656630000000  0.4366210000000 1.0
C      1  0.5566110000000  0.4562430000000  0.4511570000000 1.0
C      1  0.5653670000000  0.4715680000000  0.5189770000000 1.0
C      1  0.5299160000000  0.4665480000000  0.5632230000000 1.0
C      1  0.5879310000000  0.4683190000000  0.4946700000000 1.0
C      1  0.5536990000000  0.4635050000000  0.5827990000000 1.0
C      1  0.4715470000000  0.4576760000000  0.6235450000000 1.0
C      1  0.4115950000000  0.4639680000000  0.5362690000000 1.0
C      1  0.4203920000000  0.4666030000000  0.4532840000000 1.0
C      1  0.4808910000000  0.4660830000000  0.4118540000000 1.0
C      1  0.5680170000000  0.4644320000000  0.4223960000000 1.0
C      1  0.4341040000000  0.4237770000000  0.4907700000000 1.0
C      1  0.4634660000000  0.4221280000000  0.4440370000000 1.0
C      1  0.5195570000000  0.4186880000000  0.4398440000000 1.0
C      1  0.5738840000000  0.4190180000000  0.4802930000000 1.0
C      1  0.5521600000000  0.4236760000000  0.5366370000000 1.0
C      1  0.5046610000000  0.4232810000000  0.5666910000000 1.0
C      1  0.4521130000000  0.4283750000000  0.5430700000000 1.0
C      1  0.4979960000000  0.5330760000000  0.5019910000000 1.0
C      1  0.4400790000000  0.4833470000000  0.5562930000000 1.0
END
