TITL C-2622957-9142-546 1.12168305146869 125000 -887.002495628954 0 0 172 (C1) n - 1
REM
REM in /nfs/bkarasulu/CARBON/AIRSS/Generating-Clusters/AIREBO/with-SteepDescent/Higher-Symm/SD-CG/HFTN-CG
REM
REM
REM
REM
REM
REM ./C.cell (b20cbc046b6831c77cfcea5457e17084)
REM
REM compiler GCC version 9.2.1 20190827 (Red Hat 9.2.1-1)
REM options -cpp -mtune=generic -march=x86-64 -g -O0 -fpre-include=/usr/include/finclude/math-vector-fortran.h
REM seed -1263261789 1764439604 -46923218 1469465978 -1434548104 -1119774415 -1073448186 -937629005 -584605566 -1938624449 23206570 -2015520044 2064415097 -1093953814 -1266897342 73965527 1802398191 985901486 -681889739 774539096 2062584035 -531163549 107296456 1632438307 1966795882 1548637262 -1482140208 -782144016 1715575439 1292489304 2136168134 -1731115927 -1643228077
REM
CELL 1.54180   50.00000   50.00000   50.00000   90.00000   90.00000   90.00000
LATT -1
SFAC C  
C      1  0.5758600000000  0.5247330000000  0.5221310000000 1.0
C      1  0.5025550000000  0.5313340000000  0.5722920000000 1.0
C      1  0.4262850000000  0.5236800000000  0.5322340000000 1.0
C      1  0.4528900000000  0.5319000000000  0.4474300000000 1.0
C      1  0.5374630000000  0.5392330000000  0.4344470000000 1.0
C      1  0.4317150000000  0.4819130000000  0.4866200000000 1.0
C      1  0.4971460000000  0.4828890000000  0.4277510000000 1.0
C      1  0.5618690000000  0.4843280000000  0.4715450000000 1.0
C      1  0.5469680000000  0.4852300000000  0.5496500000000 1.0
C      1  0.4636820000000  0.4920340000000  0.5678720000000 1.0
C      1  0.4914630000000  0.5781300000000  0.5264380000000 1.0
C      1  0.4807590000000  0.5982440000000  0.5035460000000 1.0
C      1  0.4880420000000  0.5960110000000  0.4717140000000 1.0
C      1  0.5409740000000  0.5976010000000  0.4861100000000 1.0
C      1  0.5228200000000  0.5820970000000  0.5299090000000 1.0
C      1  0.5162770000000  0.5152500000000  0.5237390000000 1.0
C      1  0.4684450000000  0.4991840000000  0.5366090000000 1.0
C      1  0.4647780000000  0.5009580000000  0.4972760000000 1.0
C      1  0.4992530000000  0.5008360000000  0.4549250000000 1.0
C      1  0.5298810000000  0.5045730000000  0.4944580000000 1.0
C      1  0.4751800000000  0.5488090000000  0.5208160000000 1.0
C      1  0.4862100000000  0.5436910000000  0.4892560000000 1.0
C      1  0.4999850000000  0.5700460000000  0.4835840000000 1.0
C      1  0.5286600000000  0.5674750000000  0.4827870000000 1.0
C      1  0.5421410000000  0.5649750000000  0.5101110000000 1.0
C      1  0.4983820000000  0.5257130000000  0.3901750000000 1.0
C      1  0.5960680000000  0.5200660000000  0.4741960000000 1.0
C      1  0.5524380000000  0.5188560000000  0.5811650000000 1.0
C      1  0.4409680000000  0.5211630000000  0.5914600000000 1.0
C      1  0.4056400000000  0.5203500000000  0.4606540000000 1.0
C      1  0.5473480000000  0.4468270000000  0.4155400000000 1.0
C      1  0.5820610000000  0.4287220000000  0.5135350000000 1.0
C      1  0.5241140000000  0.4357910000000  0.5819090000000 1.0
C      1  0.4299200000000  0.4444060000000  0.5374780000000 1.0
C      1  0.4475370000000  0.4366370000000  0.4401300000000 1.0
C      1  0.5117430000000  0.4500230000000  0.5202930000000 1.0
C      1  0.4827400000000  0.4417200000000  0.5238590000000 1.0
C      1  0.4756170000000  0.4343210000000  0.4945260000000 1.0
C      1  0.4995700000000  0.4290340000000  0.4752420000000 1.0
C      1  0.5250180000000  0.4375780000000  0.4924180000000 1.0
C      1  0.5276500000000  0.3918680000000  0.5063520000000 1.0
C      1  0.5046350000000  0.3985690000000  0.5305150000000 1.0
C      1  0.4735040000000  0.4011070000000  0.5165020000000 1.0
C      1  0.4780830000000  0.3963620000000  0.4825810000000 1.0
C      1  0.5111260000000  0.3881840000000  0.4784230000000 1.0
C      1  0.6083810000000  0.4484840000000  0.5070210000000 1.0
C      1  0.5337450000000  0.4556480000000  0.6030620000000 1.0
C      1  0.4093950000000  0.4515050000000  0.5626490000000 1.0
C      1  0.4211610000000  0.4548220000000  0.4304100000000 1.0
C      1  0.5511340000000  0.4686910000000  0.3928150000000 1.0
C      1  0.4014900000000  0.5077770000000  0.4900040000000 1.0
C      1  0.4796820000000  0.5073490000000  0.4118460000000 1.0
C      1  0.5823250000000  0.5076530000000  0.4463620000000 1.0
C      1  0.5736970000000  0.5046360000000  0.5577620000000 1.0
C      1  0.4738670000000  0.5126890000000  0.5929060000000 1.0
C      1  0.5314380000000  0.4341030000000  0.5426580000000 1.0
C      1  0.4710270000000  0.4338480000000  0.5512750000000 1.0
C      1  0.4444300000000  0.4255880000000  0.4855980000000 1.0
C      1  0.5053710000000  0.4286100000000  0.4421430000000 1.0
C      1  0.5533530000000  0.4248660000000  0.4785270000000 1.0
C      1  0.4371430000000  0.5099020000000  0.4680590000000 1.0
C      1  0.5111300000000  0.5305340000000  0.4202540000000 1.0
C      1  0.5693930000000  0.5094660000000  0.4924370000000 1.0
C      1  0.5261060000000  0.5090730000000  0.5619960000000 1.0
C      1  0.4391320000000  0.5151770000000  0.5584240000000 1.0
C      1  0.5502160000000  0.4405550000000  0.5150580000000 1.0
C      1  0.4947750000000  0.4478360000000  0.5712740000000 1.0
C      1  0.4418710000000  0.4501430000000  0.5080480000000 1.0
C      1  0.4680570000000  0.4669570000000  0.4581120000000 1.0
C      1  0.5474870000000  0.4376980000000  0.4475920000000 1.0
C      1  0.4941260000000  0.5507420000000  0.5989230000000 1.0
C      1  0.4113140000000  0.5522180000000  0.5260340000000 1.0
C      1  0.4475750000000  0.5503820000000  0.4189450000000 1.0
C      1  0.5597200000000  0.5597950000000  0.4190120000000 1.0
C      1  0.5875660000000  0.5513010000000  0.5322950000000 1.0
C      1  0.6055380000000  0.4800130000000  0.5022590000000 1.0
C      1  0.5329370000000  0.4877740000000  0.5986070000000 1.0
C      1  0.4126860000000  0.4801260000000  0.5686540000000 1.0
C      1  0.4240540000000  0.4850130000000  0.4388380000000 1.0
C      1  0.5376480000000  0.4958840000000  0.3993570000000 1.0
C      1  0.5049520000000  0.4926410000000  0.3902830000000 1.0
C      1  0.6009640000000  0.4894470000000  0.4724390000000 1.0
C      1  0.5638990000000  0.4876700000000  0.5855850000000 1.0
C      1  0.4295150000000  0.4896860000000  0.5884470000000 1.0
C      1  0.4003460000000  0.4868380000000  0.4632240000000 1.0
C      1  0.5185500000000  0.3975850000000  0.4465950000000 1.0
C      1  0.5602940000000  0.4038080000000  0.5043210000000 1.0
C      1  0.5137830000000  0.4113160000000  0.5606890000000 1.0
C      1  0.4480790000000  0.4153920000000  0.5342650000000 1.0
C      1  0.4584370000000  0.4115470000000  0.4591100000000 1.0
C      1  0.5515130000000  0.4935800000000  0.5166560000000 1.0
C      1  0.4976790000000  0.4909600000000  0.5667750000000 1.0
C      1  0.4410980000000  0.4891280000000  0.5186200000000 1.0
C      1  0.4682640000000  0.4962400000000  0.4668500000000 1.0
C      1  0.5316560000000  0.4905580000000  0.4571470000000 1.0
C      1  0.4701730000000  0.5591610000000  0.5787830000000 1.0
C      1  0.4133690000000  0.5562160000000  0.4921690000000 1.0
C      1  0.4745360000000  0.5657990000000  0.4101230000000 1.0
C      1  0.5681090000000  0.5609060000000  0.4522750000000 1.0
C      1  0.5633390000000  0.5603600000000  0.5545470000000 1.0
C      1  0.4541810000000  0.4727810000000  0.5942380000000 1.0
C      1  0.4020960000000  0.4683530000000  0.4918880000000 1.0
C      1  0.4818900000000  0.4695660000000  0.4012280000000 1.0
C      1  0.5858530000000  0.4686470000000  0.4528620000000 1.0
C      1  0.5718830000000  0.4651290000000  0.5611450000000 1.0
C      1  0.5398280000000  0.5367340000000  0.5477540000000 1.0
C      1  0.4644110000000  0.5339220000000  0.5608350000000 1.0
C      1  0.4355630000000  0.5339710000000  0.4891330000000 1.0
C      1  0.4872360000000  0.5449070000000  0.4316790000000 1.0
C      1  0.5620670000000  0.5392920000000  0.4778330000000 1.0
C      1  0.5614940000000  0.5876030000000  0.5373390000000 1.0
C      1  0.4789200000000  0.5824090000000  0.5577720000000 1.0
C      1  0.4274990000000  0.5808770000000  0.5049990000000 1.0
C      1  0.4721540000000  0.5931460000000  0.4249390000000 1.0
C      1  0.5509890000000  0.5890090000000  0.4554200000000 1.0
C      1  0.5933080000000  0.5524370000000  0.4741650000000 1.0
C      1  0.5518780000000  0.5489230000000  0.5835300000000 1.0
C      1  0.4367340000000  0.5533040000000  0.5808490000000 1.0
C      1  0.4060490000000  0.5503160000000  0.4601870000000 1.0
C      1  0.5036140000000  0.5591130000000  0.3938180000000 1.0
C      1  0.5072370000000  0.5112050000000  0.5993230000000 1.0
C      1  0.4051860000000  0.5061760000000  0.5169400000000 1.0
C      1  0.4486570000000  0.5060630000000  0.4257280000000 1.0
C      1  0.5543780000000  0.5104910000000  0.4271230000000 1.0
C      1  0.5921800000000  0.4972000000000  0.5301340000000 1.0
C      1  0.4815360000000  0.4756940000000  0.5244670000000 1.0
C      1  0.4667000000000  0.4670110000000  0.4979890000000 1.0
C      1  0.4937770000000  0.4595650000000  0.4699300000000 1.0
C      1  0.5329050000000  0.4579190000000  0.4665880000000 1.0
C      1  0.5100690000000  0.4819770000000  0.5187270000000 1.0
C      1  0.5763910000000  0.4704070000000  0.5163760000000 1.0
C      1  0.5011940000000  0.4778600000000  0.5965320000000 1.0
C      1  0.4128350000000  0.4804360000000  0.5352730000000 1.0
C      1  0.4555950000000  0.4747060000000  0.4313950000000 1.0
C      1  0.5365860000000  0.4827630000000  0.4281270000000 1.0
C      1  0.4529470000000  0.5648820000000  0.4557490000000 1.0
C      1  0.5274770000000  0.5718080000000  0.4386290000000 1.0
C      1  0.5712560000000  0.5791640000000  0.5089970000000 1.0
C      1  0.5069650000000  0.5642000000000  0.5639270000000 1.0
C      1  0.4480510000000  0.5677590000000  0.5287030000000 1.0
C      1  0.4534120000000  0.5967200000000  0.5119200000000 1.0
C      1  0.4674680000000  0.5882610000000  0.4515980000000 1.0
C      1  0.5183230000000  0.5976820000000  0.4591720000000 1.0
C      1  0.5420150000000  0.6046120000000  0.5151680000000 1.0
C      1  0.5097400000000  0.5969300000000  0.5561580000000 1.0
C      1  0.4292690000000  0.5575970000000  0.5530520000000 1.0
C      1  0.4250530000000  0.5600390000000  0.4421890000000 1.0
C      1  0.5287900000000  0.5662230000000  0.4064040000000 1.0
C      1  0.5951580000000  0.5642820000000  0.5031360000000 1.0
C      1  0.5260520000000  0.5582840000000  0.5899860000000 1.0
C      1  0.5168720000000  0.4548030000000  0.4283980000000 1.0
C      1  0.5666030000000  0.4547830000000  0.4878040000000 1.0
C      1  0.5245390000000  0.4620980000000  0.5607370000000 1.0
C      1  0.4532640000000  0.4627080000000  0.5541140000000 1.0
C      1  0.4400760000000  0.4544920000000  0.4682200000000 1.0
C      1  0.4612390000000  0.4499780000000  0.4112910000000 1.0
C      1  0.5742270000000  0.4511270000000  0.4361350000000 1.0
C      1  0.5786520000000  0.4476630000000  0.5415690000000 1.0
C      1  0.4777600000000  0.4575830000000  0.5990640000000 1.0
C      1  0.4035560000000  0.4528460000000  0.5176850000000 1.0
C      1  0.4891790000000  0.5257020000000  0.5414850000000 1.0
C      1  0.4519560000000  0.5271440000000  0.5134490000000 1.0
C      1  0.4846390000000  0.5312720000000  0.4595990000000 1.0
C      1  0.5350610000000  0.5430420000000  0.4659950000000 1.0
C      1  0.5436260000000  0.5343710000000  0.5171670000000 1.0
C      1  0.4826280000000  0.4024700000000  0.5563170000000 1.0
C      1  0.4415800000000  0.3995370000000  0.5048990000000 1.0
C      1  0.4865140000000  0.4012660000000  0.4500010000000 1.0
C      1  0.5429190000000  0.3954600000000  0.4674560000000 1.0
C      1  0.5441590000000  0.4041110000000  0.5329290000000 1.0
C      1  0.5149910000000  0.5300750000000  0.4855970000000 1.0
C      1  0.5133350000000  0.4755600000000  0.4880880000000 1.0
END
