TITL C-2622959-7779-748 0.00162786245559741 125000 -743.949618608817 0 0 137 (C1) n - 1
REM
REM in /nfs/bkarasulu/CARBON/AIRSS/Generating-Clusters/AIREBO/with-SteepDescent/Higher-Symm/SD-CG/HFTN-CG
REM
REM
REM
REM
REM
REM ./C.cell (b20cbc046b6831c77cfcea5457e17084)
REM
REM compiler GCC version 9.2.1 20190827 (Red Hat 9.2.1-1)
REM options -cpp -mtune=generic -march=x86-64 -g -O0 -fpre-include=/usr/include/finclude/math-vector-fortran.h
REM seed 932209700 1169740819 -743553890 1444315526 -307060309 1155096860 -787025827 1169294933 -1439114836 183434535 -960129984 -1450596481 1778618668 1998767794 724750796 1754044937 -275786462 1425624609 -903963476 -2145523682 -1882836691 313303862 -905719115 1255749744 2046035287 848176668 -337690074 -1983507809 -103316883 -293307543 -1976676546 -1020548432 -152001922
REM
CELL 1.54180   50.00000   50.00000   50.00000   90.00000   90.00000   90.00000
LATT -1
SFAC C  
C      1  0.5401690000000  0.4334790000000  0.5291350000000 1.0
C      1  0.5455840000000  0.5721590000000  0.4648270000000 1.0
C      1  0.4416780000000  0.5819530000000  0.4881900000000 1.0
C      1  0.4461180000000  0.4029590000000  0.5094130000000 1.0
C      1  0.5064550000000  0.5469380000000  0.4872430000000 1.0
C      1  0.5027670000000  0.4546100000000  0.4969370000000 1.0
C      1  0.5190650000000  0.4863810000000  0.6137450000000 1.0
C      1  0.5214910000000  0.5230500000000  0.4024100000000 1.0
C      1  0.4071440000000  0.5161130000000  0.5207220000000 1.0
C      1  0.4059010000000  0.4823900000000  0.4706410000000 1.0
C      1  0.5975180000000  0.4796110000000  0.4978070000000 1.0
C      1  0.5962940000000  0.5121470000000  0.4996420000000 1.0
C      1  0.5092090000000  0.5842030000000  0.5203030000000 1.0
C      1  0.5140410000000  0.4132560000000  0.4714640000000 1.0
C      1  0.5539830000000  0.4331940000000  0.4977780000000 1.0
C      1  0.5589380000000  0.5663080000000  0.4961120000000 1.0
C      1  0.4676300000000  0.4697880000000  0.5878490000000 1.0
C      1  0.4711280000000  0.5186180000000  0.4101550000000 1.0
C      1  0.5125810000000  0.5379690000000  0.4265170000000 1.0
C      1  0.5050500000000  0.4538670000000  0.5619180000000 1.0
C      1  0.4373300000000  0.4296400000000  0.5603160000000 1.0
C      1  0.4526390000000  0.5511750000000  0.4310460000000 1.0
C      1  0.4806170000000  0.4443060000000  0.5361780000000 1.0
C      1  0.4818990000000  0.5557400000000  0.4654310000000 1.0
C      1  0.4557840000000  0.5919520000000  0.4626180000000 1.0
C      1  0.4560670000000  0.4084150000000  0.5414730000000 1.0
C      1  0.5043590000000  0.4847320000000  0.4365310000000 1.0
C      1  0.5037870000000  0.5252110000000  0.5730810000000 1.0
C      1  0.4775190000000  0.4710640000000  0.5569400000000 1.0
C      1  0.4809840000000  0.5340750000000  0.4388140000000 1.0
C      1  0.4113740000000  0.4856990000000  0.5262510000000 1.0
C      1  0.4074150000000  0.5099030000000  0.4740550000000 1.0
C      1  0.4908850000000  0.4034800000000  0.4898150000000 1.0
C      1  0.4765250000000  0.5846730000000  0.5200570000000 1.0
C      1  0.4839080000000  0.5262170000000  0.5023950000000 1.0
C      1  0.4828500000000  0.4811170000000  0.5045420000000 1.0
C      1  0.4445660000000  0.5671060000000  0.4515270000000 1.0
C      1  0.4334180000000  0.4288450000000  0.5267650000000 1.0
C      1  0.4789360000000  0.5418130000000  0.5995610000000 1.0
C      1  0.4672260000000  0.4723210000000  0.4286040000000 1.0
C      1  0.4979040000000  0.5242770000000  0.5396030000000 1.0
C      1  0.4972440000000  0.4812990000000  0.4676740000000 1.0
C      1  0.5456940000000  0.4720050000000  0.5024730000000 1.0
C      1  0.5473030000000  0.5282400000000  0.4986710000000 1.0
C      1  0.5552950000000  0.5556740000000  0.5498050000000 1.0
C      1  0.5552520000000  0.4409870000000  0.4446180000000 1.0
C      1  0.4368440000000  0.5188660000000  0.4718010000000 1.0
C      1  0.4422470000000  0.4797550000000  0.5200820000000 1.0
C      1  0.5434840000000  0.4724490000000  0.6087070000000 1.0
C      1  0.5490630000000  0.5267640000000  0.3959920000000 1.0
C      1  0.5331660000000  0.4758250000000  0.4104360000000 1.0
C      1  0.5396360000000  0.5302380000000  0.5940480000000 1.0
C      1  0.5555630000000  0.4813600000000  0.5339940000000 1.0
C      1  0.5540410000000  0.5033980000000  0.4765410000000 1.0
C      1  0.4631460000000  0.4088860000000  0.4873040000000 1.0
C      1  0.4522860000000  0.5913370000000  0.5121770000000 1.0
C      1  0.4893740000000  0.4806620000000  0.6050780000000 1.0
C      1  0.4611270000000  0.5297060000000  0.3794720000000 1.0
C      1  0.4964990000000  0.4550720000000  0.4218740000000 1.0
C      1  0.4979560000000  0.5583650000000  0.5778690000000 1.0
C      1  0.5647430000000  0.5179520000000  0.4179380000000 1.0
C      1  0.5587980000000  0.4813240000000  0.5864720000000 1.0
C      1  0.5075970000000  0.4988180000000  0.5192330000000 1.0
C      1  0.5070420000000  0.5071790000000  0.4862710000000 1.0
C      1  0.4118640000000  0.4676510000000  0.4974170000000 1.0
C      1  0.3950980000000  0.5212050000000  0.4968710000000 1.0
C      1  0.5259920000000  0.5739560000000  0.4925600000000 1.0
C      1  0.5208100000000  0.4269600000000  0.5019500000000 1.0
C      1  0.4869230000000  0.4509110000000  0.4604040000000 1.0
C      1  0.4855980000000  0.5556900000000  0.5353490000000 1.0
C      1  0.5198440000000  0.5367960000000  0.5168090000000 1.0
C      1  0.5266140000000  0.4681690000000  0.4787260000000 1.0
C      1  0.5446780000000  0.4682090000000  0.4523460000000 1.0
C      1  0.5385590000000  0.5318890000000  0.5407350000000 1.0
C      1  0.4993040000000  0.5989820000000  0.4395950000000 1.0
C      1  0.4986190000000  0.4065520000000  0.5672870000000 1.0
C      1  0.4329900000000  0.5350410000000  0.4222010000000 1.0
C      1  0.4402900000000  0.4565050000000  0.5717310000000 1.0
C      1  0.4588580000000  0.5093540000000  0.5180460000000 1.0
C      1  0.4606200000000  0.4988150000000  0.4857680000000 1.0
C      1  0.5296520000000  0.5114750000000  0.5602550000000 1.0
C      1  0.5301590000000  0.4989330000000  0.4535400000000 1.0
C      1  0.5851540000000  0.4557390000000  0.5415240000000 1.0
C      1  0.5846230000000  0.5334810000000  0.4580810000000 1.0
C      1  0.4429230000000  0.5086200000000  0.3940070000000 1.0
C      1  0.4376570000000  0.4817230000000  0.5943280000000 1.0
C      1  0.4434030000000  0.5101690000000  0.5548320000000 1.0
C      1  0.4493610000000  0.4858030000000  0.4499920000000 1.0
C      1  0.4406310000000  0.5495280000000  0.4777820000000 1.0
C      1  0.4469030000000  0.4541890000000  0.5173750000000 1.0
C      1  0.5821160000000  0.5057050000000  0.4708420000000 1.0
C      1  0.6085950000000  0.4673430000000  0.5267960000000 1.0
C      1  0.5316040000000  0.5551160000000  0.5741890000000 1.0
C      1  0.5282870000000  0.4451390000000  0.4242900000000 1.0
C      1  0.4335010000000  0.5074150000000  0.5851400000000 1.0
C      1  0.4230750000000  0.4986420000000  0.4096980000000 1.0
C      1  0.4527620000000  0.5534320000000  0.5267670000000 1.0
C      1  0.4572690000000  0.4392570000000  0.4731860000000 1.0
C      1  0.4865150000000  0.5893260000000  0.4625720000000 1.0
C      1  0.4864550000000  0.4133090000000  0.5430650000000 1.0
C      1  0.5648780000000  0.4238980000000  0.4716100000000 1.0
C      1  0.5682610000000  0.5734390000000  0.5242530000000 1.0
C      1  0.4745290000000  0.5006920000000  0.5469550000000 1.0
C      1  0.4759280000000  0.5057170000000  0.4573320000000 1.0
C      1  0.5536180000000  0.5078690000000  0.5803000000000 1.0
C      1  0.5531990000000  0.4926670000000  0.4293260000000 1.0
C      1  0.5241540000000  0.4844460000000  0.5455590000000 1.0
C      1  0.5225130000000  0.5287860000000  0.4650250000000 1.0
C      1  0.6017400000000  0.4602880000000  0.4719100000000 1.0
C      1  0.6008810000000  0.5338920000000  0.5232620000000 1.0
C      1  0.5341300000000  0.4523250000000  0.5507140000000 1.0
C      1  0.5383140000000  0.5487080000000  0.4460030000000 1.0
C      1  0.5665020000000  0.5376270000000  0.4377030000000 1.0
C      1  0.5624990000000  0.4647500000000  0.5620240000000 1.0
C      1  0.5863480000000  0.4432830000000  0.4581460000000 1.0
C      1  0.5864370000000  0.5511060000000  0.5374810000000 1.0
C      1  0.4726410000000  0.4443630000000  0.5030960000000 1.0
C      1  0.4682540000000  0.5534330000000  0.4965020000000 1.0
C      1  0.5746770000000  0.4568750000000  0.5091860000000 1.0
C      1  0.5781530000000  0.5397230000000  0.4908770000000 1.0
C      1  0.5115940000000  0.4331280000000  0.4514880000000 1.0
C      1  0.5167500000000  0.5652160000000  0.5452980000000 1.0
C      1  0.4342930000000  0.5286710000000  0.5298150000000 1.0
C      1  0.4351100000000  0.4650520000000  0.4722510000000 1.0
C      1  0.4253470000000  0.4813660000000  0.5560370000000 1.0
C      1  0.4289770000000  0.5083820000000  0.4404160000000 1.0
C      1  0.5010630000000  0.5961820000000  0.4886540000000 1.0
C      1  0.5012160000000  0.4043830000000  0.5181530000000 1.0
C      1  0.4693580000000  0.5720340000000  0.5737190000000 1.0
C      1  0.4690260000000  0.4399370000000  0.4349960000000 1.0
C      1  0.5141270000000  0.4951120000000  0.3994450000000 1.0
C      1  0.5222120000000  0.5183720000000  0.6129060000000 1.0
C      1  0.4918600000000  0.5125870000000  0.6014070000000 1.0
C      1  0.4851720000000  0.4914790000000  0.4097930000000 1.0
C      1  0.4457040000000  0.4244750000000  0.4448230000000 1.0
C      1  0.4542730000000  0.5721860000000  0.5537560000000 1.0
C      1  0.5405760000000  0.5024110000000  0.5138720000000 1.0
END
