TITL C-2622966-9038-404 3.65151314734401e-07 125000 -118.666768071525 0 0 20 (S4) n - 1
REM
REM in /nfs/bkarasulu/CARBON/AIRSS/Generating-Clusters/AIREBO/with-SteepDescent/Higher-Symm/SD-CG/HFTN-CG
REM
REM
REM
REM
REM
REM ./C.cell (b20cbc046b6831c77cfcea5457e17084)
REM
REM compiler GCC version 9.2.1 20190827 (Red Hat 9.2.1-1)
REM options -cpp -mtune=generic -march=x86-64 -g -O0 -fpre-include=/usr/include/finclude/math-vector-fortran.h
REM seed -190031962 1092585436 1031119994 -1308279053 -1700806699 -479302241 -2051625968 1413673949 -1070950933 -1704100451 -2001213835 1877076131 19477539 -195597384 2013828675 -861924304 -2019724359 -1473037376 -2091916144 -63127668 -680533943 -1978962507 -1242311017 -1378043320 891468532 851579582 318951131 -2096901077 -179518250 934190536 -967686456 1319189878 1636758393
REM
CELL 1.54180   50.00000   50.00000   50.00000   90.00000   90.00000   90.00000
LATT -1
SFAC C  
C      1  0.5134760000000  0.4745560000000  0.4533590000000 1.0
C      1  0.5434320000000  0.5312540000000  0.5118850000000 1.0
C      1  0.4913240000000  0.4703770000000  0.5452950000000 1.0
C      1  0.4517680000000  0.5238130000000  0.4894610000000 1.0
C      1  0.4996760000000  0.5147890000000  0.5271220000000 1.0
C      1  0.4746870000000  0.4822990000000  0.5005860000000 1.0
C      1  0.4976470000000  0.5159200000000  0.4736290000000 1.0
C      1  0.5279890000000  0.4869920000000  0.4986630000000 1.0
C      1  0.5315020000000  0.5473910000000  0.4923750000000 1.0
C      1  0.5125920000000  0.4557970000000  0.5344090000000 1.0
C      1  0.4608110000000  0.5408040000000  0.5097820000000 1.0
C      1  0.4950950000000  0.4560080000000  0.4634340000000 1.0
C      1  0.4908380000000  0.4596430000000  0.4914640000000 1.0
C      1  0.5040800000000  0.5404080000000  0.4883370000000 1.0
C      1  0.5160380000000  0.4614690000000  0.5066070000000 1.0
C      1  0.4890440000000  0.5384800000000  0.5135920000000 1.0
C      1  0.5273090000000  0.5084410000000  0.5184150000000 1.0
C      1  0.4824280000000  0.4912780000000  0.5277720000000 1.0
C      1  0.4715650000000  0.5044750000000  0.4819000000000 1.0
C      1  0.5186980000000  0.4958050000000  0.4719120000000 1.0
END
