TITL C-2622965-4321-820 -0.00074361458404172 125000 -178.00489754083 0 0 32 (Ci) n - 1
REM
REM in /nfs/bkarasulu/CARBON/AIRSS/Generating-Clusters/AIREBO/with-SteepDescent/Higher-Symm/SD-CG/HFTN-CG
REM
REM
REM
REM
REM
REM ./C.cell (b20cbc046b6831c77cfcea5457e17084)
REM
REM compiler GCC version 9.2.1 20190827 (Red Hat 9.2.1-1)
REM options -cpp -mtune=generic -march=x86-64 -g -O0 -fpre-include=/usr/include/finclude/math-vector-fortran.h
REM seed 133813936 -1557579771 48770666 -1575108979 318796503 -658883758 1148902161 -223627733 725749450 -1932562645 214090215 -1364300064 244059498 144757452 244180601 1377759362 1115217525 2030675294 340763812 -1149784946 -868448769 2051924344 170459672 -1194581956 -130236561 -1438883059 -922614140 1618680628 -309513590 1991363497 286631713 -1573102649 -2140785298
REM
CELL 1.54180   50.00000   50.00000   50.00000   90.00000   90.00000   90.00000
LATT -1
SFAC C  
C      1  0.4921040000000  0.5244030000000  0.5456960000000 1.0
C      1  0.5110280000000  0.5060080000000  0.4581310000000 1.0
C      1  0.4889720000000  0.4939920000000  0.5418690000000 1.0
C      1  0.5078960000000  0.4755970000000  0.4543040000000 1.0
C      1  0.4548460000000  0.4831240000000  0.4971770000000 1.0
C      1  0.5488060000000  0.4837320000000  0.5105130000000 1.0
C      1  0.4511940000000  0.5162680000000  0.4894870000000 1.0
C      1  0.5451540000000  0.5168760000000  0.5028230000000 1.0
C      1  0.4793340000000  0.5682230000000  0.5352870000000 1.0
C      1  0.5203120000000  0.5621420000000  0.4730930000000 1.0
C      1  0.4796880000000  0.4378580000000  0.5269070000000 1.0
C      1  0.5206660000000  0.4317770000000  0.4647130000000 1.0
C      1  0.4964430000000  0.5243310000000  0.5126790000000 1.0
C      1  0.4909850000000  0.5228500000000  0.4789690000000 1.0
C      1  0.5090150000000  0.4771500000000  0.5210310000000 1.0
C      1  0.5035570000000  0.4756690000000  0.4873210000000 1.0
C      1  0.5142190000000  0.4509860000000  0.4453790000000 1.0
C      1  0.4878120000000  0.4600460000000  0.5401230000000 1.0
C      1  0.5121880000000  0.5399540000000  0.4598770000000 1.0
C      1  0.4857810000000  0.5490140000000  0.5546210000000 1.0
C      1  0.4697070000000  0.5447380000000  0.4911450000000 1.0
C      1  0.5265360000000  0.5353880000000  0.5127920000000 1.0
C      1  0.4734640000000  0.4646120000000  0.4872080000000 1.0
C      1  0.5302930000000  0.4552620000000  0.5088550000000 1.0
C      1  0.5146210000000  0.4373200000000  0.4921520000000 1.0
C      1  0.4858380000000  0.4394980000000  0.4988460000000 1.0
C      1  0.5141620000000  0.5605020000000  0.5011540000000 1.0
C      1  0.4853790000000  0.5626800000000  0.5078480000000 1.0
C      1  0.4582870000000  0.4872500000000  0.5293410000000 1.0
C      1  0.5342800000000  0.4847470000000  0.4825920000000 1.0
C      1  0.4657200000000  0.5152530000000  0.5174080000000 1.0
C      1  0.5417130000000  0.5127500000000  0.4706590000000 1.0
END
