TITL C-2622962-9663-863 -0.00192089041090473 125000 -640.579258603005 0 0 124 (C1) n - 1
REM
REM in /nfs/bkarasulu/CARBON/AIRSS/Generating-Clusters/AIREBO/with-SteepDescent/Higher-Symm/SD-CG/HFTN-CG
REM
REM
REM
REM
REM
REM ./C.cell (b20cbc046b6831c77cfcea5457e17084)
REM
REM compiler GCC version 9.2.1 20190827 (Red Hat 9.2.1-1)
REM options -cpp -mtune=generic -march=x86-64 -g -O0 -fpre-include=/usr/include/finclude/math-vector-fortran.h
REM seed 1610541266 812082061 2122639546 -858672279 598856979 -1889786723 -331890477 274966737 395613857 1262637279 738324845 -796255351 1378920217 1875584707 -1929906757 -908452737 912305143 455040309 2130024175 410602113 -1612901021 -201469975 -998803726 -895712089 -1490851717 416638783 1895407437 2025400389 -2071797916 1006308075 -1341842928 -984529713 -1024417669
REM
CELL 1.54180   50.00000   50.00000   50.00000   90.00000   90.00000   90.00000
LATT -1
SFAC C  
C      1  0.4527720000000  0.4995530000000  0.5183420000000 1.0
C      1  0.4998330000000  0.5241790000000  0.4539280000000 1.0
C      1  0.5297040000000  0.4541400000000  0.4877810000000 1.0
C      1  0.5484730000000  0.5050770000000  0.4755970000000 1.0
C      1  0.5449830000000  0.4966030000000  0.5212430000000 1.0
C      1  0.4498620000000  0.5001500000000  0.4699760000000 1.0
C      1  0.4960440000000  0.5161790000000  0.5433170000000 1.0
C      1  0.4998310000000  0.4762300000000  0.4544050000000 1.0
C      1  0.5042560000000  0.4842470000000  0.5384900000000 1.0
C      1  0.4845200000000  0.4639270000000  0.5029220000000 1.0
C      1  0.4699510000000  0.5435830000000  0.4897820000000 1.0
C      1  0.5150050000000  0.5336240000000  0.5027590000000 1.0
C      1  0.5232460000000  0.5007730000000  0.4567740000000 1.0
C      1  0.4494490000000  0.5198840000000  0.4924280000000 1.0
C      1  0.4950970000000  0.4575870000000  0.5304120000000 1.0
C      1  0.4678760000000  0.5023320000000  0.5463930000000 1.0
C      1  0.5281600000000  0.5063010000000  0.5483680000000 1.0
C      1  0.4752460000000  0.4997940000000  0.4530910000000 1.0
C      1  0.5451560000000  0.5241070000000  0.5035810000000 1.0
C      1  0.4555170000000  0.4699760000000  0.5074640000000 1.0
C      1  0.5515030000000  0.4731370000000  0.4994620000000 1.0
C      1  0.5019840000000  0.4653180000000  0.4836560000000 1.0
C      1  0.4974150000000  0.5338250000000  0.4837830000000 1.0
C      1  0.5054910000000  0.5417370000000  0.5300840000000 1.0
C      1  0.4074180000000  0.5698830000000  0.4749160000000 1.0
C      1  0.5667880000000  0.4739350000000  0.4116580000000 1.0
C      1  0.4873560000000  0.4152230000000  0.5695740000000 1.0
C      1  0.5839450000000  0.5663710000000  0.5206640000000 1.0
C      1  0.5886840000000  0.4323150000000  0.4818990000000 1.0
C      1  0.4137470000000  0.4283500000000  0.5366450000000 1.0
C      1  0.4292720000000  0.4786430000000  0.5800360000000 1.0
C      1  0.4328550000000  0.5211230000000  0.4127400000000 1.0
C      1  0.5687980000000  0.5265960000000  0.5981920000000 1.0
C      1  0.5321260000000  0.4175110000000  0.4089210000000 1.0
C      1  0.5123790000000  0.5838810000000  0.5694650000000 1.0
C      1  0.4675660000000  0.5856560000000  0.4139000000000 1.0
C      1  0.4782180000000  0.5604070000000  0.4078950000000 1.0
C      1  0.4090630000000  0.4737930000000  0.5616770000000 1.0
C      1  0.5672130000000  0.4158480000000  0.4763080000000 1.0
C      1  0.5256890000000  0.5709470000000  0.5939200000000 1.0
C      1  0.4840120000000  0.4282280000000  0.5939440000000 1.0
C      1  0.5194150000000  0.4443620000000  0.4078960000000 1.0
C      1  0.5837010000000  0.4801100000000  0.4326280000000 1.0
C      1  0.4081320000000  0.5318320000000  0.4274430000000 1.0
C      1  0.5847830000000  0.5342610000000  0.5744130000000 1.0
C      1  0.4276990000000  0.4049570000000  0.5424880000000 1.0
C      1  0.5748430000000  0.5925210000000  0.5231970000000 1.0
C      1  0.4303150000000  0.5855470000000  0.4751270000000 1.0
C      1  0.5346140000000  0.5512470000000  0.5733880000000 1.0
C      1  0.5457220000000  0.5753680000000  0.5273060000000 1.0
C      1  0.5710010000000  0.5287100000000  0.5492360000000 1.0
C      1  0.4781430000000  0.5423410000000  0.4350630000000 1.0
C      1  0.4718490000000  0.4518050000000  0.5725880000000 1.0
C      1  0.5243370000000  0.4591800000000  0.4381000000000 1.0
C      1  0.4566850000000  0.5676630000000  0.4697780000000 1.0
C      1  0.4527590000000  0.4242280000000  0.5298820000000 1.0
C      1  0.5426920000000  0.4311610000000  0.4668430000000 1.0
C      1  0.4270070000000  0.5319730000000  0.4504390000000 1.0
C      1  0.4354680000000  0.4797220000000  0.5406310000000 1.0
C      1  0.5673670000000  0.4816040000000  0.4604880000000 1.0
C      1  0.5595870000000  0.5443270000000  0.5268150000000 1.0
C      1  0.5238580000000  0.5632860000000  0.5449600000000 1.0
C      1  0.5467660000000  0.5222270000000  0.5719670000000 1.0
C      1  0.4319670000000  0.5457470000000  0.4778490000000 1.0
C      1  0.5680480000000  0.4558030000000  0.4767900000000 1.0
C      1  0.4339450000000  0.4516020000000  0.5262630000000 1.0
C      1  0.4726610000000  0.5730080000000  0.4451970000000 1.0
C      1  0.5271910000000  0.4254950000000  0.4417600000000 1.0
C      1  0.4760900000000  0.4336040000000  0.5452330000000 1.0
C      1  0.4553910000000  0.5230600000000  0.4382090000000 1.0
C      1  0.5440420000000  0.4834780000000  0.4358220000000 1.0
C      1  0.4583360000000  0.4758170000000  0.5654900000000 1.0
C      1  0.4324660000000  0.4563620000000  0.4871070000000 1.0
C      1  0.4643010000000  0.4738020000000  0.4214070000000 1.0
C      1  0.4965250000000  0.4264210000000  0.4474990000000 1.0
C      1  0.5666110000000  0.4634580000000  0.5266880000000 1.0
C      1  0.5648120000000  0.5465250000000  0.4872320000000 1.0
C      1  0.4302350000000  0.5538930000000  0.5108160000000 1.0
C      1  0.5506520000000  0.4888700000000  0.5773040000000 1.0
C      1  0.5428360000000  0.5147900000000  0.4229240000000 1.0
C      1  0.4527890000000  0.5142650000000  0.5740440000000 1.0
C      1  0.5156630000000  0.4344460000000  0.5410680000000 1.0
C      1  0.5037460000000  0.5700580000000  0.4505550000000 1.0
C      1  0.4866580000000  0.5685900000000  0.5313760000000 1.0
C      1  0.4850310000000  0.4529670000000  0.4345080000000 1.0
C      1  0.4265240000000  0.4798070000000  0.4666510000000 1.0
C      1  0.4499720000000  0.4297010000000  0.4971010000000 1.0
C      1  0.5050310000000  0.4510690000000  0.5687850000000 1.0
C      1  0.4804430000000  0.5321750000000  0.5772510000000 1.0
C      1  0.5183050000000  0.5442840000000  0.4336550000000 1.0
C      1  0.5639970000000  0.4888620000000  0.5484170000000 1.0
C      1  0.4266990000000  0.5103230000000  0.5525900000000 1.0
C      1  0.5751010000000  0.5231480000000  0.4646230000000 1.0
C      1  0.5319610000000  0.4285010000000  0.5051390000000 1.0
C      1  0.4609250000000  0.5655030000000  0.5123870000000 1.0
C      1  0.5546290000000  0.5732980000000  0.4945570000000 1.0
C      1  0.4992970000000  0.4122100000000  0.5212650000000 1.0
C      1  0.4098880000000  0.5304170000000  0.5071930000000 1.0
C      1  0.5213580000000  0.4971270000000  0.4060340000000 1.0
C      1  0.4912450000000  0.4118960000000  0.4708350000000 1.0
C      1  0.5075410000000  0.5896060000000  0.5146730000000 1.0
C      1  0.5069680000000  0.5840200000000  0.4752210000000 1.0
C      1  0.5851170000000  0.5247030000000  0.5036110000000 1.0
C      1  0.5909480000000  0.4748160000000  0.5057550000000 1.0
C      1  0.4149210000000  0.4794760000000  0.5048550000000 1.0
C      1  0.4736360000000  0.4974210000000  0.5950310000000 1.0
C      1  0.4822970000000  0.4965060000000  0.4035840000000 1.0
C      1  0.5244410000000  0.4941440000000  0.5911350000000 1.0
C      1  0.5145300000000  0.4069070000000  0.4934120000000 1.0
C      1  0.5036040000000  0.5216840000000  0.4128590000000 1.0
C      1  0.4106930000000  0.5060260000000  0.5243060000000 1.0
C      1  0.4757670000000  0.4139310000000  0.4978320000000 1.0
C      1  0.5304290000000  0.5896850000000  0.4932860000000 1.0
C      1  0.4820400000000  0.5848810000000  0.4953410000000 1.0
C      1  0.5007250000000  0.5149890000000  0.5962860000000 1.0
C      1  0.4992720000000  0.4759490000000  0.5887330000000 1.0
C      1  0.5013630000000  0.4698130000000  0.4073650000000 1.0
C      1  0.5921250000000  0.5013440000000  0.4844940000000 1.0
C      1  0.4129150000000  0.5055040000000  0.4844100000000 1.0
C      1  0.5847020000000  0.4993830000000  0.5235690000000 1.0
C      1  0.5465140000000  0.4378650000000  0.5310110000000 1.0
C      1  0.4827970000000  0.5534950000000  0.5608260000000 1.0
C      1  0.5471130000000  0.5335900000000  0.4482530000000 1.0
C      1  0.4400740000000  0.4741070000000  0.4359440000000 1.0
END
