TITL C-2622968-4806-6 -0.00054949411663888 125000 -972.342045538013 0 0 182 (C1) n - 1
REM
REM in /nfs/bkarasulu/CARBON/AIRSS/Generating-Clusters/AIREBO/with-SteepDescent/Higher-Symm/SD-CG/HFTN-CG
REM
REM
REM
REM
REM
REM ./C.cell (b20cbc046b6831c77cfcea5457e17084)
REM
REM compiler GCC version 9.2.1 20190827 (Red Hat 9.2.1-1)
REM options -cpp -mtune=generic -march=x86-64 -g -O0 -fpre-include=/usr/include/finclude/math-vector-fortran.h
REM seed 1770332086 -1993736195 -1676514765 -1261134962 1730707099 1050070829 -1848307460 1599350122 1740474539 -1206919890 1508290379 -293330215 1065832777 -1805147167 1751550311 -1754000408 2131441947 -1906673489 1085432765 1688442162 2054953260 1338751238 1308699372 -743511745 1934661914 1916565279 1506803693 -65506437 -1643973835 528299632 -179463712 -2002975899 -2059468385
REM
CELL 1.54180   50.00000   50.00000   50.00000   90.00000   90.00000   90.00000
LATT -1
SFAC C  
C      1  0.5408110000000  0.4742070000000  0.5915180000000 1.0
C      1  0.4583910000000  0.5269380000000  0.4067500000000 1.0
C      1  0.5303160000000  0.4253950000000  0.5121900000000 1.0
C      1  0.4721310000000  0.5731950000000  0.4856150000000 1.0
C      1  0.5579870000000  0.4438440000000  0.5509400000000 1.0
C      1  0.4420800000000  0.5555820000000  0.4457600000000 1.0
C      1  0.5405200000000  0.4180640000000  0.4365490000000 1.0
C      1  0.4636050000000  0.5783100000000  0.5642800000000 1.0
C      1  0.5829310000000  0.5166790000000  0.5148150000000 1.0
C      1  0.4182660000000  0.4887050000000  0.4828360000000 1.0
C      1  0.4729240000000  0.5046270000000  0.5696570000000 1.0
C      1  0.5304260000000  0.4922290000000  0.4250200000000 1.0
C      1  0.4857810000000  0.4798400000000  0.5531830000000 1.0
C      1  0.5148610000000  0.5162440000000  0.4426700000000 1.0
C      1  0.5029340000000  0.5443460000000  0.4169640000000 1.0
C      1  0.4926310000000  0.4585720000000  0.5860700000000 1.0
C      1  0.3940520000000  0.5494620000000  0.5152720000000 1.0
C      1  0.6073780000000  0.4511690000000  0.4846900000000 1.0
C      1  0.5668960000000  0.5931440000000  0.4760830000000 1.0
C      1  0.4301870000000  0.4059210000000  0.5209270000000 1.0
C      1  0.5553180000000  0.4047980000000  0.5181280000000 1.0
C      1  0.4440870000000  0.5907970000000  0.4801790000000 1.0
C      1  0.5662650000000  0.4345620000000  0.4465480000000 1.0
C      1  0.4336540000000  0.5651070000000  0.5549190000000 1.0
C      1  0.5606250000000  0.5618510000000  0.4661250000000 1.0
C      1  0.4373600000000  0.4364780000000  0.5324110000000 1.0
C      1  0.5188210000000  0.5598170000000  0.4646920000000 1.0
C      1  0.4917740000000  0.4337920000000  0.5287550000000 1.0
C      1  0.5697070000000  0.4743190000000  0.5531930000000 1.0
C      1  0.4322400000000  0.5261640000000  0.4486040000000 1.0
C      1  0.4633690000000  0.6002720000000  0.4538890000000 1.0
C      1  0.5135670000000  0.4150490000000  0.5469550000000 1.0
C      1  0.4685530000000  0.4060310000000  0.5099420000000 1.0
C      1  0.5302340000000  0.5878660000000  0.4906650000000 1.0
C      1  0.5646420000000  0.5692920000000  0.5788540000000 1.0
C      1  0.4403930000000  0.4333710000000  0.4231260000000 1.0
C      1  0.4935670000000  0.5408850000000  0.5064020000000 1.0
C      1  0.4964710000000  0.4550740000000  0.4903660000000 1.0
C      1  0.5099770000000  0.4857950000000  0.5842440000000 1.0
C      1  0.4896890000000  0.5159770000000  0.4115980000000 1.0
C      1  0.5483170000000  0.5792070000000  0.5359090000000 1.0
C      1  0.4516730000000  0.4212080000000  0.4642800000000 1.0
C      1  0.6027930000000  0.5399580000000  0.4890780000000 1.0
C      1  0.3959670000000  0.4618770000000  0.5105540000000 1.0
C      1  0.5134220000000  0.4337090000000  0.5821510000000 1.0
C      1  0.4813980000000  0.5674870000000  0.4172310000000 1.0
C      1  0.4502270000000  0.5377050000000  0.5593550000000 1.0
C      1  0.5533230000000  0.4626660000000  0.4389570000000 1.0
C      1  0.5949640000000  0.5478260000000  0.5212520000000 1.0
C      1  0.4107490000000  0.4555790000000  0.4803680000000 1.0
C      1  0.5859170000000  0.4617220000000  0.4619600000000 1.0
C      1  0.4159490000000  0.5405730000000  0.5390510000000 1.0
C      1  0.4430340000000  0.4602310000000  0.5923030000000 1.0
C      1  0.5469600000000  0.5189450000000  0.4110660000000 1.0
C      1  0.4920650000000  0.4671830000000  0.5222530000000 1.0
C      1  0.5147530000000  0.5271690000000  0.4733760000000 1.0
C      1  0.4568580000000  0.3959000000000  0.5395660000000 1.0
C      1  0.5375600000000  0.5988370000000  0.4596690000000 1.0
C      1  0.5774080000000  0.4936360000000  0.4701000000000 1.0
C      1  0.4226390000000  0.5106190000000  0.5268880000000 1.0
C      1  0.4164590000000  0.5793140000000  0.5292440000000 1.0
C      1  0.5803690000000  0.4186670000000  0.4731120000000 1.0
C      1  0.4607360000000  0.4699920000000  0.4809210000000 1.0
C      1  0.5411790000000  0.5313720000000  0.5189670000000 1.0
C      1  0.5406920000000  0.3837380000000  0.4723740000000 1.0
C      1  0.4657280000000  0.6114860000000  0.5262200000000 1.0
C      1  0.5356900000000  0.5115580000000  0.4917780000000 1.0
C      1  0.4645920000000  0.4844940000000  0.5116980000000 1.0
C      1  0.5081720000000  0.6039330000000  0.5496790000000 1.0
C      1  0.4952810000000  0.3969150000000  0.4531100000000 1.0
C      1  0.5014090000000  0.4123960000000  0.5039240000000 1.0
C      1  0.4996320000000  0.5859140000000  0.4759630000000 1.0
C      1  0.5217940000000  0.4213940000000  0.4160040000000 1.0
C      1  0.4822620000000  0.5753690000000  0.5852220000000 1.0
C      1  0.4410510000000  0.4051090000000  0.4905230000000 1.0
C      1  0.5565670000000  0.5930140000000  0.5072690000000 1.0
C      1  0.5429730000000  0.4477070000000  0.5812230000000 1.0
C      1  0.4562080000000  0.5533330000000  0.4169090000000 1.0
C      1  0.4353870000000  0.5563900000000  0.5160700000000 1.0
C      1  0.5677910000000  0.4458190000000  0.4845600000000 1.0
C      1  0.4521620000000  0.5142700000000  0.5153370000000 1.0
C      1  0.5492470000000  0.4838720000000  0.4865170000000 1.0
C      1  0.4196410000000  0.5366310000000  0.4968480000000 1.0
C      1  0.5831460000000  0.4684520000000  0.5011870000000 1.0
C      1  0.5805540000000  0.5784520000000  0.5246020000000 1.0
C      1  0.4187070000000  0.4232390000000  0.4723780000000 1.0
C      1  0.5390790000000  0.5831090000000  0.5816080000000 1.0
C      1  0.4640500000000  0.4176650000000  0.4202890000000 1.0
C      1  0.5116800000000  0.5516020000000  0.5556010000000 1.0
C      1  0.4937340000000  0.4439090000000  0.4486080000000 1.0
C      1  0.3968870000000  0.5064720000000  0.4658690000000 1.0
C      1  0.6033160000000  0.4969180000000  0.5335640000000 1.0
C      1  0.5443350000000  0.5294320000000  0.4493770000000 1.0
C      1  0.4571820000000  0.4698950000000  0.5415030000000 1.0
C      1  0.4932300000000  0.5210920000000  0.5333010000000 1.0
C      1  0.5037130000000  0.4763550000000  0.4695770000000 1.0
C      1  0.5105000000000  0.5704480000000  0.5797460000000 1.0
C      1  0.4941830000000  0.4263720000000  0.4229380000000 1.0
C      1  0.4249140000000  0.4647920000000  0.5430670000000 1.0
C      1  0.5762180000000  0.5353600000000  0.4549570000000 1.0
C      1  0.6116260000000  0.4260440000000  0.4963690000000 1.0
C      1  0.3872180000000  0.5808000000000  0.5120390000000 1.0
C      1  0.4642000000000  0.4496100000000  0.4582340000000 1.0
C      1  0.5401120000000  0.5498320000000  0.5430710000000 1.0
C      1  0.5263240000000  0.4036500000000  0.4593850000000 1.0
C      1  0.4798790000000  0.5924560000000  0.5410120000000 1.0
C      1  0.4720770000000  0.5058450000000  0.4395110000000 1.0
C      1  0.5299290000000  0.5008330000000  0.5611710000000 1.0
C      1  0.5915810000000  0.5681670000000  0.4786940000000 1.0
C      1  0.4061190000000  0.4314170000000  0.5199750000000 1.0
C      1  0.4174560000000  0.5638180000000  0.4677240000000 1.0
C      1  0.5846570000000  0.4408460000000  0.5300060000000 1.0
C      1  0.4983640000000  0.4061810000000  0.5760470000000 1.0
C      1  0.4867640000000  0.5906820000000  0.4318070000000 1.0
C      1  0.5671880000000  0.5223670000000  0.4851610000000 1.0
C      1  0.4308630000000  0.4805170000000  0.5133360000000 1.0
C      1  0.4642400000000  0.5654170000000  0.5163390000000 1.0
C      1  0.5369490000000  0.4458420000000  0.4858440000000 1.0
C      1  0.5352990000000  0.5014610000000  0.5302600000000 1.0
C      1  0.4677290000000  0.4993800000000  0.4714660000000 1.0
C      1  0.4710370000000  0.4378450000000  0.5021100000000 1.0
C      1  0.5168490000000  0.5580390000000  0.4985120000000 1.0
C      1  0.4974550000000  0.5028720000000  0.4847080000000 1.0
C      1  0.5055800000000  0.4975460000000  0.5150560000000 1.0
C      1  0.5787400000000  0.5574800000000  0.5498670000000 1.0
C      1  0.4209440000000  0.4456430000000  0.4487760000000 1.0
C      1  0.6036990000000  0.5080670000000  0.4437640000000 1.0
C      1  0.4072120000000  0.4999780000000  0.5610220000000 1.0
C      1  0.5560040000000  0.5118750000000  0.5768130000000 1.0
C      1  0.4479600000000  0.4901120000000  0.4248550000000 1.0
C      1  0.4440470000000  0.4513250000000  0.5039270000000 1.0
C      1  0.5474370000000  0.5493880000000  0.4911790000000 1.0
C      1  0.5657150000000  0.4882850000000  0.5226270000000 1.0
C      1  0.4385610000000  0.5156330000000  0.4779330000000 1.0
C      1  0.4940450000000  0.5627130000000  0.5324810000000 1.0
C      1  0.5100010000000  0.4285730000000  0.4743460000000 1.0
C      1  0.5418750000000  0.4662900000000  0.5124280000000 1.0
C      1  0.4635680000000  0.5341410000000  0.4917030000000 1.0
C      1  0.5328670000000  0.5958550000000  0.5555630000000 1.0
C      1  0.4706190000000  0.4044170000000  0.4465960000000 1.0
C      1  0.4906360000000  0.6153610000000  0.4619650000000 1.0
C      1  0.4906760000000  0.3924010000000  0.5401440000000 1.0
C      1  0.5148380000000  0.6051740000000  0.4444100000000 1.0
C      1  0.4739090000000  0.3876800000000  0.5680670000000 1.0
C      1  0.5437470000000  0.4656590000000  0.4081420000000 1.0
C      1  0.4668120000000  0.5326630000000  0.5857570000000 1.0
C      1  0.5790170000000  0.5142470000000  0.4211710000000 1.0
C      1  0.4227740000000  0.4853780000000  0.5875020000000 1.0
C      1  0.4164300000000  0.5842710000000  0.4949910000000 1.0
C      1  0.5815560000000  0.4160220000000  0.5070430000000 1.0
C      1  0.5098120000000  0.5165920000000  0.5986750000000 1.0
C      1  0.4886180000000  0.4833000000000  0.4111100000000 1.0
C      1  0.4683900000000  0.5499460000000  0.4638000000000 1.0
C      1  0.5290370000000  0.4500800000000  0.5354050000000 1.0
C      1  0.4648090000000  0.5359000000000  0.5333660000000 1.0
C      1  0.5343170000000  0.4695520000000  0.4626340000000 1.0
C      1  0.5102780000000  0.4565810000000  0.5570720000000 1.0
C      1  0.4871360000000  0.5356750000000  0.4458010000000 1.0
C      1  0.5415750000000  0.5618550000000  0.4395070000000 1.0
C      1  0.4651180000000  0.4377650000000  0.5494910000000 1.0
C      1  0.4115870000000  0.4612410000000  0.5678790000000 1.0
C      1  0.5931920000000  0.5434130000000  0.4297870000000 1.0
C      1  0.4389100000000  0.5089340000000  0.5699590000000 1.0
C      1  0.5602640000000  0.4958950000000  0.4409170000000 1.0
C      1  0.5389100000000  0.5051080000000  0.6029290000000 1.0
C      1  0.4607910000000  0.4949530000000  0.3954090000000 1.0
C      1  0.6044020000000  0.5140980000000  0.4732680000000 1.0
C      1  0.3962860000000  0.4894000000000  0.5306020000000 1.0
C      1  0.6004130000000  0.4692130000000  0.5279670000000 1.0
C      1  0.4001600000000  0.5347010000000  0.4709000000000 1.0
C      1  0.3975550000000  0.4991040000000  0.4379520000000 1.0
C      1  0.6031620000000  0.5033580000000  0.5614070000000 1.0
C      1  0.4459350000000  0.4633040000000  0.4349610000000 1.0
C      1  0.5594070000000  0.5385760000000  0.5673410000000 1.0
C      1  0.5446980000000  0.4127830000000  0.5471070000000 1.0
C      1  0.4330830000000  0.5882940000000  0.4480750000000 1.0
C      1  0.5786250000000  0.4936270000000  0.5717610000000 1.0
C      1  0.4238590000000  0.5065840000000  0.4302330000000 1.0
C      1  0.4647490000000  0.4505090000000  0.5790070000000 1.0
C      1  0.5322960000000  0.5444090000000  0.4149060000000 1.0
C      1  0.5028150000000  0.5202740000000  0.5654020000000 1.0
C      1  0.5047740000000  0.4728190000000  0.4360650000000 1.0
END
