TITL C-2622962-9663-761 0.000988334030930961 125000 -884.908585870067 0 0 175 (C1) n - 1
REM
REM in /nfs/bkarasulu/CARBON/AIRSS/Generating-Clusters/AIREBO/with-SteepDescent/Higher-Symm/SD-CG/HFTN-CG
REM
REM
REM
REM
REM
REM ./C.cell (b20cbc046b6831c77cfcea5457e17084)
REM
REM compiler GCC version 9.2.1 20190827 (Red Hat 9.2.1-1)
REM options -cpp -mtune=generic -march=x86-64 -g -O0 -fpre-include=/usr/include/finclude/math-vector-fortran.h
REM seed 2108574426 1140244508 -1303291726 -1164173091 -1973814587 -1065021949 -1196775026 -2090098291 1148441791 1031153469 1150422229 -832122477 1573358059 -1570502086 -1870607739 -55184101 625091342 -442089455 -1715196985 1323197229 862129212 -2086085750 243639129 -1211584537 492466772 1801880117 -304883530 139417289 -1522123284 -1476168978 -1513518857 1970277565 1085349145
REM
CELL 1.54180   50.00000   50.00000   50.00000   90.00000   90.00000   90.00000
LATT -1
SFAC C  
C      1  0.5484410000000  0.5137210000000  0.5727220000000 1.0
C      1  0.5802800000000  0.5452900000000  0.5224150000000 1.0
C      1  0.5140680000000  0.5720570000000  0.5448790000000 1.0
C      1  0.4465340000000  0.5170220000000  0.4241680000000 1.0
C      1  0.5466270000000  0.4837420000000  0.4265140000000 1.0
C      1  0.4505750000000  0.4849200000000  0.5728380000000 1.0
C      1  0.4205860000000  0.5488900000000  0.4871910000000 1.0
C      1  0.5740430000000  0.4554420000000  0.4866210000000 1.0
C      1  0.4233080000000  0.4524210000000  0.5183130000000 1.0
C      1  0.4789960000000  0.5764350000000  0.4490360000000 1.0
C      1  0.5164020000000  0.4276640000000  0.4571480000000 1.0
C      1  0.4810940000000  0.4195480000000  0.5463700000000 1.0
C      1  0.5461200000000  0.4799400000000  0.5760490000000 1.0
C      1  0.5821110000000  0.4567950000000  0.5197180000000 1.0
C      1  0.5149170000000  0.4237750000000  0.5505710000000 1.0
C      1  0.4491550000000  0.4831510000000  0.4261370000000 1.0
C      1  0.5541570000000  0.5170060000000  0.4272800000000 1.0
C      1  0.4575580000000  0.5179950000000  0.5767580000000 1.0
C      1  0.4259100000000  0.4531030000000  0.4860610000000 1.0
C      1  0.5781360000000  0.5486850000000  0.4885910000000 1.0
C      1  0.4180850000000  0.5444340000000  0.5208360000000 1.0
C      1  0.4832140000000  0.4239670000000  0.4564870000000 1.0
C      1  0.5128850000000  0.5735460000000  0.4490180000000 1.0
C      1  0.4803900000000  0.5761680000000  0.5418300000000 1.0
C      1  0.5200210000000  0.4589580000000  0.4442160000000 1.0
C      1  0.4251500000000  0.5183440000000  0.4504280000000 1.0
C      1  0.4479700000000  0.4299580000000  0.5182670000000 1.0
C      1  0.4782880000000  0.4514160000000  0.5579100000000 1.0
C      1  0.5215720000000  0.5419620000000  0.5588310000000 1.0
C      1  0.4740480000000  0.5530080000000  0.4268980000000 1.0
C      1  0.5739290000000  0.5176950000000  0.5505730000000 1.0
C      1  0.4443870000000  0.4807730000000  0.5396140000000 1.0
C      1  0.5615460000000  0.4783460000000  0.4565970000000 1.0
C      1  0.5437870000000  0.4402140000000  0.4832100000000 1.0
C      1  0.4501510000000  0.5602230000000  0.4762010000000 1.0
C      1  0.5476660000000  0.5548990000000  0.5230650000000 1.0
C      1  0.5220170000000  0.5462160000000  0.4309610000000 1.0
C      1  0.4417760000000  0.4773770000000  0.4588300000000 1.0
C      1  0.4442200000000  0.5639700000000  0.5163380000000 1.0
C      1  0.4824670000000  0.5491370000000  0.5623620000000 1.0
C      1  0.5171910000000  0.4579210000000  0.5517670000000 1.0
C      1  0.4794720000000  0.4525970000000  0.4415110000000 1.0
C      1  0.5635430000000  0.4793150000000  0.5468320000000 1.0
C      1  0.4412780000000  0.5196930000000  0.5479270000000 1.0
C      1  0.5690040000000  0.5210000000000  0.4550190000000 1.0
C      1  0.5462960000000  0.5593020000000  0.4830810000000 1.0
C      1  0.4558600000000  0.4403210000000  0.4803880000000 1.0
C      1  0.5494960000000  0.4498360000000  0.5213890000000 1.0
C      1  0.4852090000000  0.3792220000000  0.5253820000000 1.0
C      1  0.5290330000000  0.4872550000000  0.3901060000000 1.0
C      1  0.3826460000000  0.5180460000000  0.4951020000000 1.0
C      1  0.5112230000000  0.3858100000000  0.4746060000000 1.0
C      1  0.4866470000000  0.6145990000000  0.4707300000000 1.0
C      1  0.5088230000000  0.6123580000000  0.5193790000000 1.0
C      1  0.4774170000000  0.4861500000000  0.6113700000000 1.0
C      1  0.5338610000000  0.5105180000000  0.6150010000000 1.0
C      1  0.4653840000000  0.5148280000000  0.3781250000000 1.0
C      1  0.6247270000000  0.5253120000000  0.5143180000000 1.0
C      1  0.3876130000000  0.4700030000000  0.5151840000000 1.0
C      1  0.6146920000000  0.4716220000000  0.4896510000000 1.0
C      1  0.4837430000000  0.6124110000000  0.5227190000000 1.0
C      1  0.5353340000000  0.5103640000000  0.3825430000000 1.0
C      1  0.3894010000000  0.4689350000000  0.4899440000000 1.0
C      1  0.5110460000000  0.6089350000000  0.4675530000000 1.0
C      1  0.4860160000000  0.3826980000000  0.4747280000000 1.0
C      1  0.5104930000000  0.3805560000000  0.5248000000000 1.0
C      1  0.4771700000000  0.5113770000000  0.6132880000000 1.0
C      1  0.5468960000000  0.4892540000000  0.6087460000000 1.0
C      1  0.4762450000000  0.4928210000000  0.3836220000000 1.0
C      1  0.6178900000000  0.4736290000000  0.5147070000000 1.0
C      1  0.3813070000000  0.5191550000000  0.5204750000000 1.0
C      1  0.6209040000000  0.5237350000000  0.4892370000000 1.0
C      1  0.4457470000000  0.5764480000000  0.4417280000000 1.0
C      1  0.4416220000000  0.4521150000000  0.5734330000000 1.0
C      1  0.5723550000000  0.4399210000000  0.4563720000000 1.0
C      1  0.5453080000000  0.5734130000000  0.5582490000000 1.0
C      1  0.4499050000000  0.4234820000000  0.5593620000000 1.0
C      1  0.5453710000000  0.4284110000000  0.4417720000000 1.0
C      1  0.5608430000000  0.4528470000000  0.4270960000000 1.0
C      1  0.4344460000000  0.5486980000000  0.4268320000000 1.0
C      1  0.5581670000000  0.5463050000000  0.5734590000000 1.0
C      1  0.4245880000000  0.4404900000000  0.5487100000000 1.0
C      1  0.5748510000000  0.5618030000000  0.5505660000000 1.0
C      1  0.4196650000000  0.5588340000000  0.4546780000000 1.0
C      1  0.4521070000000  0.4241940000000  0.4440050000000 1.0
C      1  0.4420190000000  0.5475330000000  0.5751820000000 1.0
C      1  0.5761870000000  0.5602560000000  0.4566640000000 1.0
C      1  0.5484150000000  0.4248750000000  0.5563190000000 1.0
C      1  0.4517180000000  0.5737730000000  0.5585760000000 1.0
C      1  0.5467630000000  0.5735440000000  0.4460430000000 1.0
C      1  0.5617510000000  0.5501110000000  0.4292840000000 1.0
C      1  0.4423660000000  0.4498400000000  0.4268950000000 1.0
C      1  0.5605660000000  0.4492520000000  0.5735830000000 1.0
C      1  0.4244190000000  0.5582520000000  0.5503200000000 1.0
C      1  0.5769720000000  0.4371410000000  0.5469880000000 1.0
C      1  0.4260380000000  0.4410220000000  0.4542750000000 1.0
C      1  0.4690790000000  0.5866460000000  0.5114440000000 1.0
C      1  0.5150230000000  0.4673680000000  0.5818270000000 1.0
C      1  0.5907180000000  0.5182060000000  0.4801910000000 1.0
C      1  0.5246330000000  0.5825240000000  0.4796840000000 1.0
C      1  0.4685850000000  0.4089120000000  0.4832540000000 1.0
C      1  0.5219320000000  0.4095030000000  0.5204880000000 1.0
C      1  0.4804960000000  0.4807490000000  0.4131250000000 1.0
C      1  0.5374060000000  0.5324570000000  0.4037680000000 1.0
C      1  0.4880750000000  0.5278090000000  0.5882490000000 1.0
C      1  0.4100840000000  0.5154550000000  0.5367580000000 1.0
C      1  0.5931310000000  0.4866730000000  0.5317690000000 1.0
C      1  0.4143220000000  0.4832210000000  0.4753100000000 1.0
C      1  0.4702030000000  0.4056680000000  0.5171920000000 1.0
C      1  0.5220730000000  0.5271910000000  0.5894590000000 1.0
C      1  0.5885900000000  0.4844710000000  0.4762590000000 1.0
C      1  0.5241980000000  0.4126370000000  0.4866800000000 1.0
C      1  0.4663710000000  0.5897440000000  0.4776780000000 1.0
C      1  0.5210800000000  0.5832010000000  0.5135100000000 1.0
C      1  0.4616100000000  0.5353340000000  0.4008420000000 1.0
C      1  0.5142070000000  0.4789490000000  0.4173330000000 1.0
C      1  0.4817480000000  0.4744310000000  0.5815680000000 1.0
C      1  0.4127630000000  0.4819780000000  0.5313990000000 1.0
C      1  0.5997550000000  0.5200420000000  0.5317980000000 1.0
C      1  0.4116750000000  0.5167400000000  0.4805400000000 1.0
C      1  0.4664770000000  0.4847300000000  0.4810100000000 1.0
C      1  0.4832860000000  0.4560710000000  0.4865100000000 1.0
C      1  0.4864290000000  0.4790730000000  0.4540610000000 1.0
C      1  0.5524480000000  0.4829660000000  0.5148740000000 1.0
C      1  0.4619570000000  0.5200420000000  0.5236440000000 1.0
C      1  0.5511160000000  0.5134290000000  0.4798130000000 1.0
C      1  0.5207400000000  0.4592350000000  0.5128320000000 1.0
C      1  0.4714900000000  0.5470570000000  0.5070120000000 1.0
C      1  0.5274200000000  0.5329950000000  0.4825200000000 1.0
C      1  0.5114880000000  0.4843150000000  0.5315450000000 1.0
C      1  0.4854670000000  0.5226780000000  0.5446740000000 1.0
C      1  0.5168310000000  0.5223560000000  0.4521620000000 1.0
C      1  0.4506560000000  0.5135730000000  0.4723990000000 1.0
C      1  0.4724190000000  0.5356400000000  0.4749990000000 1.0
C      1  0.4863000000000  0.5338220000000  0.4465960000000 1.0
C      1  0.5486740000000  0.5129980000000  0.5319980000000 1.0
C      1  0.4641040000000  0.4882170000000  0.5147740000000 1.0
C      1  0.5395430000000  0.4826760000000  0.4821550000000 1.0
C      1  0.5231170000000  0.5399830000000  0.5143010000000 1.0
C      1  0.4739550000000  0.4454210000000  0.5155580000000 1.0
C      1  0.5153210000000  0.4588010000000  0.4821500000000 1.0
C      1  0.5175840000000  0.5172990000000  0.5373830000000 1.0
C      1  0.4825050000000  0.4704610000000  0.5334230000000 1.0
C      1  0.5173450000000  0.4901740000000  0.4574920000000 1.0
C      1  0.4861710000000  0.5578510000000  0.3972620000000 1.0
C      1  0.4186930000000  0.4927390000000  0.5817130000000 1.0
C      1  0.5639420000000  0.4138620000000  0.4906910000000 1.0
C      1  0.5189870000000  0.5609690000000  0.5870490000000 1.0
C      1  0.4841100000000  0.4241970000000  0.5799200000000 1.0
C      1  0.5093300000000  0.4393560000000  0.4185690000000 1.0
C      1  0.5882730000000  0.4838390000000  0.4363060000000 1.0
C      1  0.4059700000000  0.5052980000000  0.4278570000000 1.0
C      1  0.5873050000000  0.5092300000000  0.5806320000000 1.0
C      1  0.4195370000000  0.4139130000000  0.5087520000000 1.0
C      1  0.5536070000000  0.5841650000000  0.5163090000000 1.0
C      1  0.4380600000000  0.6043410000000  0.4865340000000 1.0
C      1  0.4823290000000  0.4476850000000  0.4110200000000 1.0
C      1  0.4025620000000  0.5077080000000  0.5689980000000 1.0
C      1  0.5717630000000  0.5818200000000  0.4928460000000 1.0
C      1  0.5138020000000  0.4335880000000  0.5831160000000 1.0
C      1  0.4912080000000  0.5691250000000  0.5884470000000 1.0
C      1  0.5141260000000  0.5547870000000  0.3991070000000 1.0
C      1  0.5925120000000  0.5093760000000  0.4356300000000 1.0
C      1  0.4175730000000  0.4867330000000  0.4144710000000 1.0
C      1  0.5856760000000  0.4836670000000  0.5717550000000 1.0
C      1  0.4297860000000  0.5933500000000  0.5082430000000 1.0
C      1  0.5519480000000  0.4202280000000  0.5168710000000 1.0
C      1  0.4345790000000  0.4139790000000  0.4834800000000 1.0
C      1  0.4845980000000  0.5055340000000  0.4357120000000 1.0
C      1  0.4383650000000  0.5161660000000  0.5016090000000 1.0
C      1  0.5025780000000  0.4350810000000  0.5143250000000 1.0
C      1  0.4886670000000  0.4988090000000  0.5607940000000 1.0
C      1  0.5702790000000  0.5104780000000  0.5058640000000 1.0
C      1  0.4981710000000  0.5581830000000  0.5111280000000 1.0
C      1  0.4977940000000  0.5214900000000  0.4885700000000 1.0
END
