TITL C-2622961-1971-373 0.000295846816216012 125000 -521.920346196817 0 0 90 (C1) n - 1
REM
REM in /nfs/bkarasulu/CARBON/AIRSS/Generating-Clusters/AIREBO/with-SteepDescent/Higher-Symm/SD-CG/HFTN-CG
REM
REM
REM
REM
REM
REM ./C.cell (b20cbc046b6831c77cfcea5457e17084)
REM
REM compiler GCC version 9.2.1 20190827 (Red Hat 9.2.1-1)
REM options -cpp -mtune=generic -march=x86-64 -g -O0 -fpre-include=/usr/include/finclude/math-vector-fortran.h
REM seed -507438787 784267427 -1058510440 -28055717 453618029 1017926951 -1438470716 288503602 -854936535 -459102795 527854457 -1991458890 204259801 273192894 -192686886 -1170627096 234879223 -133086035 -585979457 2147379457 662642418 1109934516 -973951866 613003149 272711348 1086852392 -406819767 1760691055 -963314783 2060709704 -953919135 1278405811 1442724862
REM
CELL 1.54180   50.00000   50.00000   50.00000   90.00000   90.00000   90.00000
LATT -1
SFAC C  
C      1  0.5484840000000  0.4418070000000  0.5118730000000 1.0
C      1  0.5606440000000  0.5537770000000  0.4917870000000 1.0
C      1  0.4410660000000  0.5513510000000  0.5045250000000 1.0
C      1  0.4443720000000  0.4490110000000  0.4966220000000 1.0
C      1  0.5024630000000  0.5338170000000  0.5665510000000 1.0
C      1  0.4719050000000  0.5062330000000  0.4369040000000 1.0
C      1  0.4951830000000  0.4723610000000  0.5673580000000 1.0
C      1  0.5215580000000  0.4947960000000  0.4340940000000 1.0
C      1  0.4583060000000  0.5402810000000  0.5388140000000 1.0
C      1  0.4544160000000  0.4581140000000  0.4469330000000 1.0
C      1  0.5433210000000  0.4627340000000  0.5457660000000 1.0
C      1  0.5446400000000  0.5387360000000  0.4487920000000 1.0
C      1  0.5366970000000  0.5679570000000  0.4975900000000 1.0
C      1  0.4228760000000  0.5264630000000  0.4962820000000 1.0
C      1  0.4668840000000  0.4320700000000  0.5015280000000 1.0
C      1  0.5629420000000  0.4661690000000  0.5110860000000 1.0
C      1  0.5693750000000  0.4937610000000  0.4603110000000 1.0
C      1  0.5271850000000  0.5673260000000  0.5288650000000 1.0
C      1  0.4303120000000  0.5274290000000  0.4630850000000 1.0
C      1  0.4744990000000  0.4315420000000  0.5345410000000 1.0
C      1  0.5082540000000  0.3992770000000  0.5101480000000 1.0
C      1  0.6027550000000  0.5162040000000  0.4876030000000 1.0
C      1  0.4908130000000  0.5998910000000  0.5198660000000 1.0
C      1  0.4117020000000  0.4839770000000  0.4818180000000 1.0
C      1  0.5421620000000  0.4758680000000  0.4498320000000 1.0
C      1  0.5294650000000  0.5443590000000  0.5538350000000 1.0
C      1  0.4589510000000  0.5318040000000  0.4469790000000 1.0
C      1  0.4705010000000  0.4566570000000  0.5570540000000 1.0
C      1  0.5710870000000  0.4802040000000  0.5366940000000 1.0
C      1  0.5165400000000  0.5642170000000  0.4788720000000 1.0
C      1  0.4357570000000  0.5182900000000  0.5259060000000 1.0
C      1  0.4841410000000  0.4279200000000  0.4794820000000 1.0
C      1  0.5935490000000  0.5198670000000  0.5128420000000 1.0
C      1  0.4764540000000  0.5788120000000  0.5025110000000 1.0
C      1  0.4165160000000  0.4867180000000  0.5089030000000 1.0
C      1  0.5172150000000  0.4053010000000  0.4855600000000 1.0
C      1  0.5011090000000  0.5441900000000  0.4276340000000 1.0
C      1  0.4589110000000  0.5022700000000  0.5692930000000 1.0
C      1  0.4983020000000  0.4607530000000  0.4246520000000 1.0
C      1  0.5386590000000  0.5017120000000  0.5735360000000 1.0
C      1  0.4892480000000  0.4755670000000  0.4748320000000 1.0
C      1  0.5141800000000  0.4888340000000  0.5178200000000 1.0
C      1  0.5096930000000  0.5158600000000  0.4763700000000 1.0
C      1  0.4895480000000  0.5052410000000  0.5226460000000 1.0
C      1  0.5644880000000  0.5336810000000  0.5129110000000 1.0
C      1  0.4586150000000  0.5623830000000  0.4791290000000 1.0
C      1  0.4352200000000  0.4637540000000  0.5234160000000 1.0
C      1  0.5408350000000  0.4285040000000  0.4835760000000 1.0
C      1  0.4835790000000  0.5046460000000  0.4063910000000 1.0
C      1  0.4916460000000  0.4931680000000  0.5926310000000 1.0
C      1  0.5076750000000  0.4961070000000  0.4052930000000 1.0
C      1  0.5056770000000  0.5142730000000  0.5922910000000 1.0
C      1  0.5272350000000  0.4724990000000  0.5719440000000 1.0
C      1  0.5254620000000  0.5275550000000  0.4281820000000 1.0
C      1  0.4694200000000  0.5298510000000  0.5621180000000 1.0
C      1  0.4729100000000  0.4738310000000  0.4294760000000 1.0
C      1  0.5513370000000  0.5258550000000  0.5593060000000 1.0
C      1  0.4791700000000  0.5526650000000  0.4455380000000 1.0
C      1  0.4466120000000  0.4735310000000  0.5604530000000 1.0
C      1  0.5195220000000  0.4522370000000  0.4404300000000 1.0
C      1  0.4945360000000  0.4544820000000  0.5196630000000 1.0
C      1  0.5554540000000  0.4838490000000  0.4864880000000 1.0
C      1  0.5082270000000  0.5404770000000  0.5205470000000 1.0
C      1  0.4470860000000  0.5017180000000  0.4767370000000 1.0
C      1  0.5310530000000  0.5018690000000  0.4934520000000 1.0
C      1  0.4891340000000  0.5237800000000  0.4978870000000 1.0
C      1  0.4680430000000  0.4858520000000  0.4923160000000 1.0
C      1  0.5104660000000  0.4675890000000  0.4940360000000 1.0
C      1  0.4052600000000  0.5059730000000  0.4668490000000 1.0
C      1  0.5037130000000  0.4172120000000  0.5300070000000 1.0
C      1  0.5837680000000  0.5176070000000  0.4659230000000 1.0
C      1  0.5109380000000  0.5933740000000  0.5338470000000 1.0
C      1  0.5715010000000  0.5124220000000  0.5378860000000 1.0
C      1  0.4886060000000  0.5730340000000  0.4710990000000 1.0
C      1  0.4238660000000  0.4904620000000  0.5416440000000 1.0
C      1  0.5138190000000  0.4306620000000  0.4630410000000 1.0
C      1  0.4618640000000  0.5006940000000  0.5358160000000 1.0
C      1  0.4794390000000  0.4506800000000  0.4612800000000 1.0
C      1  0.5347110000000  0.4951770000000  0.5403440000000 1.0
C      1  0.5207450000000  0.5406360000000  0.4654550000000 1.0
C      1  0.4771020000000  0.5533840000000  0.5216230000000 1.0
C      1  0.4386430000000  0.4692290000000  0.4709800000000 1.0
C      1  0.5238780000000  0.4419850000000  0.5316850000000 1.0
C      1  0.5674060000000  0.5417500000000  0.4652840000000 1.0
C      1  0.4665770000000  0.4726120000000  0.5199670000000 1.0
C      1  0.5349310000000  0.4602640000000  0.4791940000000 1.0
C      1  0.5364790000000  0.5216200000000  0.5190360000000 1.0
C      1  0.4617330000000  0.5297760000000  0.4874470000000 1.0
C      1  0.4972080000000  0.5026640000000  0.5541830000000 1.0
C      1  0.4976920000000  0.4972220000000  0.4552060000000 1.0
END
