TITL C-2622955-8511-616 -0.00178103624296912 125000 -726.954643055061 0 0 131 (C1) n - 1
REM
REM in /nfs/bkarasulu/CARBON/AIRSS/Generating-Clusters/AIREBO/with-SteepDescent/Higher-Symm/SD-CG/HFTN-CG
REM
REM
REM
REM
REM
REM ./C.cell (b20cbc046b6831c77cfcea5457e17084)
REM
REM compiler GCC version 9.2.1 20190827 (Red Hat 9.2.1-1)
REM options -cpp -mtune=generic -march=x86-64 -g -O0 -fpre-include=/usr/include/finclude/math-vector-fortran.h
REM seed -97724067 -804615937 -2134592946 257438659 463637619 2054527385 -1266493110 249458383 -1891750733 936558648 -804099264 138033465 -351181375 -1563441572 -152185589 -214911618 -1834350722 276986159 -220071759 931624306 1599251785 -369113064 1309696167 2020340934 -1784946553 56658632 290083016 -1895206078 -917941460 -271147305 -849673446 678436983 -1970276569
REM
CELL 1.54180   50.00000   50.00000   50.00000   90.00000   90.00000   90.00000
LATT -1
SFAC C  
C      1  0.4474570000000  0.4163910000000  0.5383270000000 1.0
C      1  0.5546410000000  0.5796040000000  0.5427770000000 1.0
C      1  0.4418640000000  0.5757960000000  0.5411460000000 1.0
C      1  0.5491680000000  0.4233200000000  0.5406390000000 1.0
C      1  0.4645400000000  0.4371610000000  0.5538420000000 1.0
C      1  0.5275770000000  0.5594460000000  0.5385790000000 1.0
C      1  0.4699030000000  0.5566550000000  0.5391050000000 1.0
C      1  0.5260820000000  0.4463020000000  0.5401700000000 1.0
C      1  0.4859570000000  0.5879840000000  0.4620250000000 1.0
C      1  0.5123320000000  0.4151300000000  0.4510720000000 1.0
C      1  0.4875350000000  0.4106020000000  0.4617170000000 1.0
C      1  0.5131600000000  0.5889760000000  0.4596780000000 1.0
C      1  0.4454030000000  0.5117700000000  0.4346820000000 1.0
C      1  0.5547800000000  0.4845160000000  0.4365120000000 1.0
C      1  0.4461940000000  0.4846880000000  0.4339700000000 1.0
C      1  0.5566560000000  0.5119900000000  0.4416930000000 1.0
C      1  0.4852800000000  0.4846080000000  0.5589400000000 1.0
C      1  0.5246750000000  0.5173220000000  0.5699950000000 1.0
C      1  0.4741020000000  0.5126710000000  0.5674200000000 1.0
C      1  0.5290650000000  0.4879240000000  0.5823920000000 1.0
C      1  0.5677630000000  0.4678040000000  0.4544510000000 1.0
C      1  0.4284370000000  0.5239340000000  0.4535840000000 1.0
C      1  0.5791770000000  0.5251400000000  0.4625810000000 1.0
C      1  0.4306120000000  0.4699060000000  0.4518350000000 1.0
C      1  0.4941940000000  0.4868360000000  0.5288410000000 1.0
C      1  0.5167390000000  0.5177970000000  0.5395810000000 1.0
C      1  0.4864260000000  0.5181000000000  0.5377310000000 1.0
C      1  0.5267680000000  0.4912450000000  0.5251660000000 1.0
C      1  0.4370930000000  0.5132440000000  0.4811280000000 1.0
C      1  0.5611260000000  0.4765300000000  0.4822940000000 1.0
C      1  0.4352350000000  0.4805620000000  0.4802940000000 1.0
C      1  0.5577390000000  0.5072690000000  0.4821050000000 1.0
C      1  0.5284950000000  0.4805620000000  0.4867930000000 1.0
C      1  0.4698190000000  0.5184170000000  0.4832600000000 1.0
C      1  0.5266150000000  0.5146660000000  0.4873800000000 1.0
C      1  0.4684010000000  0.4859130000000  0.4824120000000 1.0
C      1  0.5164170000000  0.5621800000000  0.4946320000000 1.0
C      1  0.4825520000000  0.4452670000000  0.5062420000000 1.0
C      1  0.5106110000000  0.4425330000000  0.4925390000000 1.0
C      1  0.4865060000000  0.5625180000000  0.4982260000000 1.0
C      1  0.5127640000000  0.4247370000000  0.5628500000000 1.0
C      1  0.4871580000000  0.5923980000000  0.5687540000000 1.0
C      1  0.5118640000000  0.6040240000000  0.5627890000000 1.0
C      1  0.4878940000000  0.4051520000000  0.5629630000000 1.0
C      1  0.4271670000000  0.4649070000000  0.5066380000000 1.0
C      1  0.5860220000000  0.5202180000000  0.4955200000000 1.0
C      1  0.4262020000000  0.5300370000000  0.5062670000000 1.0
C      1  0.5714710000000  0.4667470000000  0.5101540000000 1.0
C      1  0.5609940000000  0.5642870000000  0.4779080000000 1.0
C      1  0.4453920000000  0.4324820000000  0.4742860000000 1.0
C      1  0.5573310000000  0.4274150000000  0.4757670000000 1.0
C      1  0.4413910000000  0.5627790000000  0.4742870000000 1.0
C      1  0.4098040000000  0.5138340000000  0.5312960000000 1.0
C      1  0.5939520000000  0.4835730000000  0.5293520000000 1.0
C      1  0.4094740000000  0.4836750000000  0.5291070000000 1.0
C      1  0.5957990000000  0.5139130000000  0.5274740000000 1.0
C      1  0.4567410000000  0.5844460000000  0.5132440000000 1.0
C      1  0.5387350000000  0.4133240000000  0.5110090000000 1.0
C      1  0.4600080000000  0.4101200000000  0.5080960000000 1.0
C      1  0.5415260000000  0.5868760000000  0.5133290000000 1.0
C      1  0.5510410000000  0.5467810000000  0.5678060000000 1.0
C      1  0.4494200000000  0.4565480000000  0.5751240000000 1.0
C      1  0.5506990000000  0.4567730000000  0.5697100000000 1.0
C      1  0.4571890000000  0.5410700000000  0.5733640000000 1.0
C      1  0.4849770000000  0.4454860000000  0.4144580000000 1.0
C      1  0.5430080000000  0.5596990000000  0.4319400000000 1.0
C      1  0.4597740000000  0.5546680000000  0.4177070000000 1.0
C      1  0.5153040000000  0.4414110000000  0.4228800000000 1.0
C      1  0.4370260000000  0.4423780000000  0.4493690000000 1.0
C      1  0.5799310000000  0.5549480000000  0.4580960000000 1.0
C      1  0.4276150000000  0.5523530000000  0.4521140000000 1.0
C      1  0.5631990000000  0.4406200000000  0.4495920000000 1.0
C      1  0.5602130000000  0.5277390000000  0.5163440000000 1.0
C      1  0.4490340000000  0.4830470000000  0.5253130000000 1.0
C      1  0.5562850000000  0.4944930000000  0.5227010000000 1.0
C      1  0.4488460000000  0.5137000000000  0.5249050000000 1.0
C      1  0.5140630000000  0.5298360000000  0.4628710000000 1.0
C      1  0.4839070000000  0.4659760000000  0.4610970000000 1.0
C      1  0.5152080000000  0.4664950000000  0.4608910000000 1.0
C      1  0.4838440000000  0.5327670000000  0.4592730000000 1.0
C      1  0.5170340000000  0.5490030000000  0.5669250000000 1.0
C      1  0.4828550000000  0.4576830000000  0.5732820000000 1.0
C      1  0.5167450000000  0.4585500000000  0.5704910000000 1.0
C      1  0.4859820000000  0.5586800000000  0.5690080000000 1.0
C      1  0.4132200000000  0.5748990000000  0.5298510000000 1.0
C      1  0.5788260000000  0.4197180000000  0.5345410000000 1.0
C      1  0.4184240000000  0.4153900000000  0.5287010000000 1.0
C      1  0.5832710000000  0.5750660000000  0.5325990000000 1.0
C      1  0.5270770000000  0.4725330000000  0.4300790000000 1.0
C      1  0.4710990000000  0.5278570000000  0.4323930000000 1.0
C      1  0.5318020000000  0.5303670000000  0.4365190000000 1.0
C      1  0.4727250000000  0.4715880000000  0.4317940000000 1.0
C      1  0.5704300000000  0.5631480000000  0.4324230000000 1.0
C      1  0.4543960000000  0.4365090000000  0.4263940000000 1.0
C      1  0.5442160000000  0.4358150000000  0.4282030000000 1.0
C      1  0.4358640000000  0.5631820000000  0.4265560000000 1.0
C      1  0.5304290000000  0.5596260000000  0.4637520000000 1.0
C      1  0.4749320000000  0.4366110000000  0.4754610000000 1.0
C      1  0.5279250000000  0.4358170000000  0.4675960000000 1.0
C      1  0.4711090000000  0.5594840000000  0.4701020000000 1.0
C      1  0.5690980000000  0.4764530000000  0.5488790000000 1.0
C      1  0.4347140000000  0.5257820000000  0.5516660000000 1.0
C      1  0.5726150000000  0.5289390000000  0.5477990000000 1.0
C      1  0.4305380000000  0.4710280000000  0.5511980000000 1.0
C      1  0.4721070000000  0.5353120000000  0.5127270000000 1.0
C      1  0.5215600000000  0.4617210000000  0.5143380000000 1.0
C      1  0.4749080000000  0.4738430000000  0.5105670000000 1.0
C      1  0.5275190000000  0.5366030000000  0.5133850000000 1.0
C      1  0.4741380000000  0.5933130000000  0.4904050000000 1.0
C      1  0.5117080000000  0.4099990000000  0.4932650000000 1.0
C      1  0.4837850000000  0.3984370000000  0.4897950000000 1.0
C      1  0.5294030000000  0.5924530000000  0.4861760000000 1.0
C      1  0.5575160000000  0.5142900000000  0.5733060000000 1.0
C      1  0.4323510000000  0.4836070000000  0.5824670000000 1.0
C      1  0.5637960000000  0.4851730000000  0.5813120000000 1.0
C      1  0.4435880000000  0.5101300000000  0.5789160000000 1.0
C      1  0.5634570000000  0.5607790000000  0.5089420000000 1.0
C      1  0.4345250000000  0.4327880000000  0.5043250000000 1.0
C      1  0.5660480000000  0.4334130000000  0.5061570000000 1.0
C      1  0.4323210000000  0.5615230000000  0.5050980000000 1.0
C      1  0.4688290000000  0.5959430000000  0.5431380000000 1.0
C      1  0.5126680000000  0.4095800000000  0.5325400000000 1.0
C      1  0.4810530000000  0.3961660000000  0.5308940000000 1.0
C      1  0.5208110000000  0.5984570000000  0.5358790000000 1.0
C      1  0.5140770000000  0.5223550000000  0.4140860000000 1.0
C      1  0.4850470000000  0.4743450000000  0.3998900000000 1.0
C      1  0.5144890000000  0.4890410000000  0.4085290000000 1.0
C      1  0.4858190000000  0.5392260000000  0.4036410000000 1.0
C      1  0.4975660000000  0.5751510000000  0.5345270000000 1.0
C      1  0.4853950000000  0.4298790000000  0.5316790000000 1.0
C      1  0.4865720000000  0.5063400000000  0.4027580000000 1.0
END
