TITL C-2622953-3516-443 0.00273307582158088 125000 -538.318557491464 0 0 99 (C1) n - 1
REM
REM in /nfs/bkarasulu/CARBON/AIRSS/Generating-Clusters/AIREBO/with-SteepDescent/Higher-Symm/SD-CG/HFTN-CG
REM
REM
REM
REM
REM
REM ./C.cell (b20cbc046b6831c77cfcea5457e17084)
REM
REM compiler GCC version 9.2.1 20190827 (Red Hat 9.2.1-1)
REM options -cpp -mtune=generic -march=x86-64 -g -O0 -fpre-include=/usr/include/finclude/math-vector-fortran.h
REM seed 1048553692 -783895901 1367909823 1437594552 1692542838 -1333548905 2066279776 848805756 -272338646 1782831447 2046464426 -1322198819 1853084400 -1474732114 908321250 -783532164 -1654414699 -1567815162 1021687702 -469785370 -835382140 -1287041911 -1749796900 -1503530876 -231528056 489527928 1625594181 129056558 -2111604311 -1528324448 1117087238 290637449 70982133
REM
CELL 1.54180   50.00000   50.00000   50.00000   90.00000   90.00000   90.00000
LATT -1
SFAC C  
C      1  0.4482490000000  0.5650970000000  0.5124230000000 1.0
C      1  0.4506850000000  0.4509900000000  0.5538720000000 1.0
C      1  0.4406870000000  0.4766420000000  0.4381040000000 1.0
C      1  0.5476380000000  0.5752470000000  0.5266760000000 1.0
C      1  0.5552140000000  0.4478150000000  0.5375700000000 1.0
C      1  0.5488240000000  0.4837570000000  0.4364180000000 1.0
C      1  0.4692340000000  0.5226380000000  0.5379530000000 1.0
C      1  0.4765900000000  0.4560140000000  0.5063770000000 1.0
C      1  0.4795930000000  0.5222630000000  0.4653690000000 1.0
C      1  0.5218710000000  0.5326260000000  0.5324360000000 1.0
C      1  0.5243650000000  0.4387560000000  0.4960660000000 1.0
C      1  0.5303350000000  0.5353480000000  0.4648570000000 1.0
C      1  0.4379750000000  0.5320210000000  0.5607880000000 1.0
C      1  0.4361100000000  0.4291220000000  0.5033020000000 1.0
C      1  0.4486400000000  0.5271110000000  0.4405030000000 1.0
C      1  0.5634940000000  0.5334640000000  0.5690400000000 1.0
C      1  0.5615330000000  0.4121740000000  0.4838330000000 1.0
C      1  0.5677820000000  0.5402900000000  0.4517800000000 1.0
C      1  0.4920220000000  0.4749330000000  0.4869180000000 1.0
C      1  0.4949080000000  0.5199460000000  0.4945820000000 1.0
C      1  0.4876750000000  0.5051890000000  0.5189940000000 1.0
C      1  0.5253090000000  0.4685570000000  0.4833750000000 1.0
C      1  0.5264280000000  0.5346780000000  0.4987660000000 1.0
C      1  0.5193010000000  0.4988140000000  0.5297340000000 1.0
C      1  0.4433310000000  0.5017680000000  0.5462040000000 1.0
C      1  0.4347510000000  0.4441010000000  0.4741190000000 1.0
C      1  0.4476800000000  0.5298170000000  0.4743480000000 1.0
C      1  0.5565090000000  0.5030250000000  0.5585010000000 1.0
C      1  0.5576900000000  0.4361370000000  0.4629710000000 1.0
C      1  0.5615520000000  0.5548540000000  0.4799260000000 1.0
C      1  0.4898330000000  0.5502410000000  0.4959180000000 1.0
C      1  0.4857390000000  0.4771640000000  0.5313910000000 1.0
C      1  0.4818420000000  0.4903110000000  0.4605210000000 1.0
C      1  0.5165290000000  0.5669350000000  0.5030360000000 1.0
C      1  0.5147030000000  0.4718740000000  0.5458050000000 1.0
C      1  0.5143250000000  0.4811080000000  0.4564710000000 1.0
C      1  0.4678280000000  0.4761460000000  0.4381280000000 1.0
C      1  0.4776180000000  0.5734860000000  0.5174760000000 1.0
C      1  0.4828150000000  0.4468250000000  0.5461460000000 1.0
C      1  0.5182900000000  0.4948260000000  0.4266490000000 1.0
C      1  0.5152660000000  0.5727580000000  0.5344770000000 1.0
C      1  0.5256230000000  0.4473390000000  0.5350230000000 1.0
C      1  0.4521100000000  0.4063360000000  0.5015340000000 1.0
C      1  0.4640340000000  0.5411000000000  0.4230280000000 1.0
C      1  0.4517600000000  0.5433180000000  0.5819080000000 1.0
C      1  0.5352490000000  0.4005560000000  0.4991410000000 1.0
C      1  0.5458680000000  0.5410590000000  0.4275570000000 1.0
C      1  0.5392840000000  0.5535490000000  0.5789220000000 1.0
C      1  0.4399570000000  0.4739570000000  0.5655410000000 1.0
C      1  0.4282260000000  0.4528710000000  0.4437340000000 1.0
C      1  0.4411830000000  0.5600560000000  0.4858370000000 1.0
C      1  0.5637460000000  0.4707910000000  0.5502570000000 1.0
C      1  0.5596290000000  0.4594660000000  0.4400040000000 1.0
C      1  0.5630540000000  0.5747810000000  0.5048030000000 1.0
C      1  0.5269340000000  0.4220800000000  0.4665420000000 1.0
C      1  0.5388810000000  0.5669650000000  0.4570720000000 1.0
C      1  0.5269480000000  0.5191630000000  0.5632700000000 1.0
C      1  0.4674830000000  0.4363890000000  0.4801210000000 1.0
C      1  0.4804250000000  0.5545980000000  0.4567120000000 1.0
C      1  0.4767000000000  0.5152110000000  0.5690590000000 1.0
C      1  0.5122030000000  0.5413620000000  0.5843860000000 1.0
C      1  0.5075140000000  0.4036110000000  0.4874670000000 1.0
C      1  0.5207430000000  0.5559970000000  0.4303950000000 1.0
C      1  0.4842650000000  0.5414110000000  0.5831070000000 1.0
C      1  0.4810290000000  0.4078020000000  0.4911860000000 1.0
C      1  0.4934080000000  0.5525290000000  0.4295450000000 1.0
C      1  0.4295140000000  0.4769320000000  0.5273780000000 1.0
C      1  0.4260070000000  0.4769530000000  0.4753560000000 1.0
C      1  0.4301470000000  0.5249690000000  0.5032860000000 1.0
C      1  0.5515540000000  0.5066790000000  0.5264820000000 1.0
C      1  0.5559940000000  0.4629920000000  0.4795330000000 1.0
C      1  0.5597220000000  0.5280830000000  0.5008610000000 1.0
C      1  0.4825290000000  0.4535370000000  0.4321360000000 1.0
C      1  0.4857350000000  0.5895890000000  0.4912120000000 1.0
C      1  0.4874450000000  0.4655450000000  0.5741680000000 1.0
C      1  0.5120660000000  0.4610380000000  0.4307150000000 1.0
C      1  0.5141920000000  0.5941320000000  0.4874040000000 1.0
C      1  0.5157500000000  0.4723150000000  0.5766300000000 1.0
C      1  0.5465960000000  0.5514760000000  0.5462050000000 1.0
C      1  0.5514810000000  0.4279060000000  0.5122100000000 1.0
C      1  0.5480080000000  0.5132330000000  0.4460080000000 1.0
C      1  0.4420310000000  0.5405110000000  0.5281140000000 1.0
C      1  0.4472730000000  0.4508810000000  0.5219680000000 1.0
C      1  0.4304820000000  0.5024480000000  0.4506310000000 1.0
C      1  0.5776230000000  0.4950710000000  0.5142670000000 1.0
C      1  0.5757690000000  0.4796340000000  0.4868360000000 1.0
C      1  0.5850360000000  0.5107420000000  0.4872830000000 1.0
C      1  0.4125280000000  0.5041210000000  0.5175050000000 1.0
C      1  0.4090330000000  0.4771010000000  0.5013720000000 1.0
C      1  0.4143890000000  0.5088090000000  0.4779240000000 1.0
C      1  0.4731650000000  0.5783410000000  0.4687440000000 1.0
C      1  0.4737290000000  0.4895990000000  0.5792320000000 1.0
C      1  0.4760090000000  0.4328680000000  0.4487090000000 1.0
C      1  0.5301700000000  0.5949990000000  0.4658110000000 1.0
C      1  0.5283760000000  0.4944100000000  0.5853170000000 1.0
C      1  0.5283020000000  0.4349770000000  0.4361330000000 1.0
C      1  0.5003740000000  0.4351880000000  0.5189010000000 1.0
C      1  0.4917580000000  0.5481950000000  0.5357230000000 1.0
C      1  0.5086850000000  0.5195640000000  0.4479720000000 1.0
END
