TITL C-2622958-629-438 -0.00206293080534467 125000 -985.693533829765 0 0 185 (C1) n - 1
REM
REM in /nfs/bkarasulu/CARBON/AIRSS/Generating-Clusters/AIREBO/with-SteepDescent/Higher-Symm/SD-CG/HFTN-CG
REM
REM
REM
REM
REM
REM ./C.cell (b20cbc046b6831c77cfcea5457e17084)
REM
REM compiler GCC version 9.2.1 20190827 (Red Hat 9.2.1-1)
REM options -cpp -mtune=generic -march=x86-64 -g -O0 -fpre-include=/usr/include/finclude/math-vector-fortran.h
REM seed 1479325478 132815256 343701808 790440487 636461468 -635390291 1618834303 1920248137 -1376670589 1139312741 1726439927 49508927 335403304 1534212099 441798242 -84243596 -532899843 1791759595 -2050800885 -632341972 1945668963 789668856 -1405613806 1170393367 -389223937 320756135 1243224259 168217148 -1073007104 -1137554831 -516667943 -326666213 1331554517
REM
CELL 1.54180   50.00000   50.00000   50.00000   90.00000   90.00000   90.00000
LATT -1
SFAC C  
C      1  0.3952450000000  0.5535200000000  0.5188110000000 1.0
C      1  0.6045940000000  0.4468810000000  0.4757010000000 1.0
C      1  0.4836760000000  0.5069960000000  0.5710960000000 1.0
C      1  0.5153120000000  0.4921150000000  0.4297360000000 1.0
C      1  0.4655640000000  0.4370760000000  0.4603870000000 1.0
C      1  0.5336930000000  0.5619510000000  0.5424190000000 1.0
C      1  0.4324650000000  0.4232940000000  0.5441760000000 1.0
C      1  0.5668920000000  0.5765990000000  0.4557500000000 1.0
C      1  0.5340880000000  0.4157210000000  0.4813140000000 1.0
C      1  0.4664670000000  0.5903520000000  0.5211340000000 1.0
C      1  0.4134950000000  0.4997120000000  0.4379600000000 1.0
C      1  0.5860760000000  0.4983610000000  0.5594560000000 1.0
C      1  0.4988220000000  0.4300100000000  0.4601050000000 1.0
C      1  0.5008370000000  0.5706780000000  0.5412650000000 1.0
C      1  0.4525560000000  0.5272540000000  0.4120650000000 1.0
C      1  0.5477730000000  0.4717300000000  0.5876430000000 1.0
C      1  0.4805530000000  0.5600600000000  0.5177730000000 1.0
C      1  0.5160920000000  0.4419250000000  0.4836990000000 1.0
C      1  0.4883690000000  0.4116140000000  0.5197230000000 1.0
C      1  0.5110440000000  0.5856720000000  0.4802170000000 1.0
C      1  0.5365610000000  0.4900420000000  0.4901690000000 1.0
C      1  0.4615570000000  0.5104640000000  0.5109020000000 1.0
C      1  0.5934130000000  0.5156670000000  0.5337280000000 1.0
C      1  0.4063250000000  0.4828500000000  0.4645850000000 1.0
C      1  0.4693870000000  0.5066370000000  0.5419100000000 1.0
C      1  0.5286090000000  0.4940670000000  0.4594750000000 1.0
C      1  0.4006280000000  0.5691190000000  0.4964690000000 1.0
C      1  0.5933920000000  0.4271910000000  0.4924310000000 1.0
C      1  0.5428120000000  0.4512370000000  0.4974400000000 1.0
C      1  0.4543120000000  0.5508150000000  0.5005980000000 1.0
C      1  0.4571970000000  0.5578190000000  0.4483820000000 1.0
C      1  0.5420280000000  0.4415890000000  0.5506220000000 1.0
C      1  0.6007090000000  0.4748090000000  0.5207860000000 1.0
C      1  0.3961930000000  0.5241660000000  0.4777540000000 1.0
C      1  0.5565420000000  0.5039160000000  0.4509630000000 1.0
C      1  0.4407280000000  0.4973450000000  0.5488960000000 1.0
C      1  0.6037270000000  0.4744630000000  0.4881190000000 1.0
C      1  0.3911870000000  0.5242520000000  0.5113970000000 1.0
C      1  0.5869320000000  0.5204310000000  0.4826060000000 1.0
C      1  0.4134070000000  0.4792480000000  0.5163260000000 1.0
C      1  0.3938730000000  0.4953740000000  0.4936420000000 1.0
C      1  0.6068140000000  0.5039710000000  0.5047450000000 1.0
C      1  0.4803870000000  0.4243800000000  0.5626510000000 1.0
C      1  0.5183360000000  0.5763370000000  0.4381060000000 1.0
C      1  0.5049840000000  0.4999680000000  0.6040960000000 1.0
C      1  0.4972010000000  0.5004350000000  0.3953620000000 1.0
C      1  0.4757290000000  0.4877910000000  0.4262520000000 1.0
C      1  0.5245440000000  0.5146460000000  0.5726850000000 1.0
C      1  0.4576450000000  0.4060190000000  0.4842450000000 1.0
C      1  0.5429520000000  0.5931860000000  0.5161260000000 1.0
C      1  0.4399810000000  0.5192680000000  0.4401480000000 1.0
C      1  0.5591780000000  0.4788450000000  0.5578680000000 1.0
C      1  0.4380450000000  0.4189690000000  0.4518780000000 1.0
C      1  0.5617910000000  0.5780640000000  0.5499860000000 1.0
C      1  0.5934340000000  0.5520050000000  0.4950840000000 1.0
C      1  0.4070030000000  0.4471060000000  0.5053470000000 1.0
C      1  0.5591610000000  0.3960790000000  0.4680690000000 1.0
C      1  0.4342450000000  0.5824070000000  0.5286030000000 1.0
C      1  0.4926250000000  0.5477100000000  0.5649520000000 1.0
C      1  0.5091110000000  0.4528670000000  0.4409320000000 1.0
C      1  0.5042420000000  0.5715260000000  0.3934750000000 1.0
C      1  0.4951900000000  0.4291400000000  0.6073150000000 1.0
C      1  0.5197960000000  0.4265360000000  0.5928570000000 1.0
C      1  0.4794850000000  0.5740590000000  0.4076080000000 1.0
C      1  0.4968820000000  0.5055270000000  0.4551160000000 1.0
C      1  0.5018110000000  0.4947960000000  0.5450440000000 1.0
C      1  0.5545060000000  0.4849010000000  0.5152720000000 1.0
C      1  0.4438290000000  0.5146000000000  0.4850990000000 1.0
C      1  0.5635280000000  0.5141810000000  0.5793980000000 1.0
C      1  0.4356310000000  0.4888800000000  0.4145270000000 1.0
C      1  0.4864880000000  0.5268070000000  0.4142840000000 1.0
C      1  0.5138710000000  0.4730090000000  0.5853260000000 1.0
C      1  0.5556780000000  0.4681190000000  0.4742430000000 1.0
C      1  0.4422390000000  0.5332010000000  0.5235410000000 1.0
C      1  0.5228740000000  0.5510490000000  0.5143480000000 1.0
C      1  0.4770190000000  0.4494500000000  0.4873230000000 1.0
C      1  0.5390860000000  0.5392510000000  0.5904510000000 1.0
C      1  0.4580180000000  0.4633600000000  0.4125590000000 1.0
C      1  0.5722300000000  0.4159890000000  0.5530840000000 1.0
C      1  0.4262180000000  0.5823090000000  0.4474510000000 1.0
C      1  0.4732750000000  0.4899730000000  0.5963370000000 1.0
C      1  0.5288430000000  0.5089560000000  0.4048530000000 1.0
C      1  0.4237700000000  0.5343100000000  0.4659760000000 1.0
C      1  0.5739150000000  0.4624950000000  0.5319420000000 1.0
C      1  0.4960510000000  0.5510550000000  0.4361270000000 1.0
C      1  0.5031280000000  0.4495840000000  0.5645640000000 1.0
C      1  0.4819270000000  0.5322570000000  0.5904120000000 1.0
C      1  0.5284970000000  0.4693170000000  0.4101230000000 1.0
C      1  0.4826500000000  0.4194570000000  0.4135380000000 1.0
C      1  0.5190060000000  0.5846450000000  0.5873270000000 1.0
C      1  0.5355870000000  0.4956040000000  0.5488690000000 1.0
C      1  0.4632020000000  0.5038170000000  0.4507640000000 1.0
C      1  0.5855690000000  0.4402460000000  0.5545100000000 1.0
C      1  0.4136650000000  0.5574060000000  0.4431570000000 1.0
C      1  0.5341710000000  0.4611170000000  0.5287420000000 1.0
C      1  0.4632680000000  0.5385080000000  0.4706270000000 1.0
C      1  0.4147820000000  0.5281090000000  0.5584520000000 1.0
C      1  0.5895560000000  0.4764290000000  0.4388720000000 1.0
C      1  0.4462900000000  0.4557000000000  0.4399420000000 1.0
C      1  0.5532450000000  0.5406160000000  0.5606310000000 1.0
C      1  0.4348740000000  0.3927270000000  0.4633700000000 1.0
C      1  0.5653160000000  0.6039710000000  0.5384030000000 1.0
C      1  0.4293910000000  0.5227610000000  0.5810670000000 1.0
C      1  0.5771200000000  0.4835190000000  0.4146210000000 1.0
C      1  0.4648660000000  0.6022720000000  0.4893070000000 1.0
C      1  0.5370230000000  0.4016800000000  0.5120390000000 1.0
C      1  0.5252300000000  0.5609330000000  0.4106170000000 1.0
C      1  0.4738090000000  0.4391470000000  0.5903550000000 1.0
C      1  0.4871050000000  0.4006620000000  0.4726630000000 1.0
C      1  0.5143830000000  0.5984780000000  0.5270980000000 1.0
C      1  0.5206330000000  0.5598540000000  0.6018230000000 1.0
C      1  0.4797600000000  0.4459460000000  0.4004400000000 1.0
C      1  0.3991740000000  0.4531230000000  0.4600000000000 1.0
C      1  0.6004750000000  0.5451530000000  0.5397720000000 1.0
C      1  0.5405620000000  0.4105320000000  0.5418220000000 1.0
C      1  0.4576500000000  0.5889900000000  0.4587810000000 1.0
C      1  0.4265130000000  0.4133290000000  0.4965170000000 1.0
C      1  0.5740470000000  0.5857750000000  0.5040270000000 1.0
C      1  0.4632310000000  0.4995740000000  0.3970440000000 1.0
C      1  0.5387180000000  0.5006880000000  0.5993900000000 1.0
C      1  0.4646930000000  0.5910480000000  0.5529990000000 1.0
C      1  0.5469070000000  0.4210140000000  0.4502710000000 1.0
C      1  0.5876110000000  0.5655020000000  0.5211230000000 1.0
C      1  0.4125450000000  0.4332210000000  0.4791540000000 1.0
C      1  0.4408200000000  0.4666860000000  0.5599840000000 1.0
C      1  0.5574940000000  0.5345630000000  0.4410800000000 1.0
C      1  0.4969350000000  0.5375120000000  0.4665010000000 1.0
C      1  0.5014020000000  0.4626230000000  0.5340510000000 1.0
C      1  0.4909410000000  0.4399310000000  0.5141140000000 1.0
C      1  0.5066990000000  0.5587200000000  0.4880450000000 1.0
C      1  0.4269230000000  0.4524770000000  0.5323820000000 1.0
C      1  0.5727760000000  0.5478980000000  0.4683860000000 1.0
C      1  0.4971360000000  0.6028050000000  0.4987660000000 1.0
C      1  0.5052440000000  0.3964120000000  0.5011110000000 1.0
C      1  0.6048680000000  0.5257050000000  0.4541910000000 1.0
C      1  0.3941960000000  0.4728610000000  0.5436630000000 1.0
C      1  0.5240590000000  0.5196150000000  0.4897000000000 1.0
C      1  0.4734640000000  0.4807070000000  0.5120240000000 1.0
C      1  0.4183970000000  0.4401130000000  0.4405010000000 1.0
C      1  0.5816460000000  0.5575300000000  0.5596490000000 1.0
C      1  0.5681910000000  0.4053780000000  0.4988270000000 1.0
C      1  0.4356380000000  0.5876640000000  0.4972290000000 1.0
C      1  0.5392190000000  0.5367970000000  0.4136110000000 1.0
C      1  0.4599410000000  0.4635490000000  0.5878910000000 1.0
C      1  0.4852630000000  0.5841590000000  0.4391660000000 1.0
C      1  0.5134310000000  0.4164370000000  0.5616300000000 1.0
C      1  0.5964730000000  0.4663650000000  0.5646850000000 1.0
C      1  0.4028120000000  0.5315200000000  0.4321180000000 1.0
C      1  0.4546300000000  0.4753040000000  0.4639280000000 1.0
C      1  0.5445430000000  0.5224430000000  0.5340630000000 1.0
C      1  0.4529760000000  0.4273210000000  0.5103310000000 1.0
C      1  0.5472280000000  0.5721810000000  0.4900250000000 1.0
C      1  0.4170510000000  0.5110670000000  0.5291010000000 1.0
C      1  0.5802880000000  0.4897110000000  0.4687750000000 1.0
C      1  0.4463270000000  0.5503950000000  0.5492290000000 1.0
C      1  0.5627030000000  0.4494310000000  0.4510370000000 1.0
C      1  0.5363980000000  0.5857050000000  0.4607460000000 1.0
C      1  0.4632040000000  0.4141440000000  0.5399760000000 1.0
C      1  0.5907700000000  0.5339680000000  0.4341120000000 1.0
C      1  0.4072020000000  0.4665030000000  0.5650750000000 1.0
C      1  0.4513480000000  0.4595670000000  0.5020320000000 1.0
C      1  0.5479520000000  0.5400620000000  0.4983300000000 1.0
C      1  0.4877830000000  0.4727630000000  0.4556320000000 1.0
C      1  0.5112210000000  0.5277550000000  0.5446030000000 1.0
C      1  0.5052460000000  0.5333590000000  0.6107770000000 1.0
C      1  0.5006870000000  0.4665810000000  0.3940840000000 1.0
C      1  0.4684360000000  0.4667850000000  0.5412620000000 1.0
C      1  0.5302360000000  0.5339090000000  0.4606470000000 1.0
C      1  0.5939550000000  0.4482930000000  0.4496050000000 1.0
C      1  0.4147590000000  0.5577810000000  0.5416870000000 1.0
C      1  0.4662600000000  0.5648610000000  0.5605080000000 1.0
C      1  0.5373300000000  0.4469170000000  0.4307180000000 1.0
C      1  0.4881400000000  0.4071480000000  0.4381120000000 1.0
C      1  0.5149360000000  0.5938460000000  0.5617780000000 1.0
C      1  0.4525600000000  0.5169990000000  0.5941170000000 1.0
C      1  0.5541340000000  0.4866000000000  0.4006130000000 1.0
C      1  0.4314060000000  0.4829880000000  0.4875440000000 1.0
C      1  0.5682230000000  0.5156780000000  0.5106170000000 1.0
C      1  0.4956410000000  0.5309070000000  0.5152340000000 1.0
C      1  0.5017250000000  0.4713110000000  0.4857000000000 1.0
C      1  0.4599980000000  0.5560430000000  0.4199530000000 1.0
C      1  0.5397400000000  0.4433870000000  0.5790430000000 1.0
C      1  0.5672110000000  0.4370580000000  0.5112280000000 1.0
C      1  0.4294260000000  0.5613180000000  0.4820840000000 1.0
C      1  0.4987280000000  0.5003830000000  0.5005870000000 1.0
END
