TITL C-2622959-7779-419 -0.00116318286534129 125000 -445.009086383818 0 0 85 (C1) n - 1
REM
REM in /nfs/bkarasulu/CARBON/AIRSS/Generating-Clusters/AIREBO/with-SteepDescent/Higher-Symm/SD-CG/HFTN-CG
REM
REM
REM
REM
REM
REM ./C.cell (b20cbc046b6831c77cfcea5457e17084)
REM
REM compiler GCC version 9.2.1 20190827 (Red Hat 9.2.1-1)
REM options -cpp -mtune=generic -march=x86-64 -g -O0 -fpre-include=/usr/include/finclude/math-vector-fortran.h
REM seed 1648218538 979834786 -1530744767 1021229792 1254489743 451856820 -900071199 -1241529037 344422304 1066207381 -767226829 -1224898407 -1152244495 -1144547605 1539322874 25072714 1636920059 -580666674 576111972 -953404513 1446084339 1084329584 1182015471 -1254696595 -1231600954 2146553109 898006905 -700076839 972482211 -358531526 652131605 -1785231602 1987918069
REM
CELL 1.54180   50.00000   50.00000   50.00000   90.00000   90.00000   90.00000
LATT -1
SFAC C  
C      1  0.5477150000000  0.4870210000000  0.4820960000000 1.0
C      1  0.5463250000000  0.5223070000000  0.4957690000000 1.0
C      1  0.5449550000000  0.4927070000000  0.5194280000000 1.0
C      1  0.5496020000000  0.4587260000000  0.4414800000000 1.0
C      1  0.5485010000000  0.5717600000000  0.4912550000000 1.0
C      1  0.5486540000000  0.4733380000000  0.5653590000000 1.0
C      1  0.4991090000000  0.5208910000000  0.5332660000000 1.0
C      1  0.4999950000000  0.4609630000000  0.5023890000000 1.0
C      1  0.5007360000000  0.5205250000000  0.4597320000000 1.0
C      1  0.4916770000000  0.5530900000000  0.5321680000000 1.0
C      1  0.4899810000000  0.4462740000000  0.5314000000000 1.0
C      1  0.4912280000000  0.5010660000000  0.4343610000000 1.0
C      1  0.4780130000000  0.4578720000000  0.5614290000000 1.0
C      1  0.4796630000000  0.4690060000000  0.4343330000000 1.0
C      1  0.4792360000000  0.5713930000000  0.5061960000000 1.0
C      1  0.4575340000000  0.5054350000000  0.5680410000000 1.0
C      1  0.4596740000000  0.4398520000000  0.4711210000000 1.0
C      1  0.4575150000000  0.5550880000000  0.4630510000000 1.0
C      1  0.5421820000000  0.5306430000000  0.5624950000000 1.0
C      1  0.5417530000000  0.4358420000000  0.4978310000000 1.0
C      1  0.5403150000000  0.5387950000000  0.4427410000000 1.0
C      1  0.4548020000000  0.5278250000000  0.5350150000000 1.0
C      1  0.4587350000000  0.4589060000000  0.5084360000000 1.0
C      1  0.4541820000000  0.5155910000000  0.4583820000000 1.0
C      1  0.4411190000000  0.5456000000000  0.4406910000000 1.0
C      1  0.4419910000000  0.5300140000000  0.5700600000000 1.0
C      1  0.4420740000000  0.4209120000000  0.4878250000000 1.0
C      1  0.5261580000000  0.4227960000000  0.4755120000000 1.0
C      1  0.5233370000000  0.5635240000000  0.4439760000000 1.0
C      1  0.5240970000000  0.5172500000000  0.5824670000000 1.0
C      1  0.4443300000000  0.4900230000000  0.4715260000000 1.0
C      1  0.4444690000000  0.5292860000000  0.5064440000000 1.0
C      1  0.4442500000000  0.4805650000000  0.5239130000000 1.0
C      1  0.5392180000000  0.5071860000000  0.4332350000000 1.0
C      1  0.5383890000000  0.5515140000000  0.5359220000000 1.0
C      1  0.5381540000000  0.4382040000000  0.5301560000000 1.0
C      1  0.4793120000000  0.5712770000000  0.4568510000000 1.0
C      1  0.4798840000000  0.5028340000000  0.5845620000000 1.0
C      1  0.4824170000000  0.4275870000000  0.4604570000000 1.0
C      1  0.4599980000000  0.5248030000000  0.4278780000000 1.0
C      1  0.4607360000000  0.5505690000000  0.5570340000000 1.0
C      1  0.4600450000000  0.4308690000000  0.5099830000000 1.0
C      1  0.5628560000000  0.5481250000000  0.4876570000000 1.0
C      1  0.5623630000000  0.4873660000000  0.5457780000000 1.0
C      1  0.5650490000000  0.4690590000000  0.4624620000000 1.0
C      1  0.5225470000000  0.4871080000000  0.5721610000000 1.0
C      1  0.5248670000000  0.4462820000000  0.4532150000000 1.0
C      1  0.5226480000000  0.5707030000000  0.4753320000000 1.0
C      1  0.4938870000000  0.4779960000000  0.5790340000000 1.0
C      1  0.4962640000000  0.4450610000000  0.4426820000000 1.0
C      1  0.4937670000000  0.5784210000000  0.4805620000000 1.0
C      1  0.4491820000000  0.5620790000000  0.5026700000000 1.0
C      1  0.4479880000000  0.4661780000000  0.5541790000000 1.0
C      1  0.4499120000000  0.4698430000000  0.4453670000000 1.0
C      1  0.5652040000000  0.4208870000000  0.5314360000000 1.0
C      1  0.5710820000000  0.5095480000000  0.4341960000000 1.0
C      1  0.5695450000000  0.5446390000000  0.5315300000000 1.0
C      1  0.4849010000000  0.5856010000000  0.5361320000000 1.0
C      1  0.4838660000000  0.4250910000000  0.5566070000000 1.0
C      1  0.4839970000000  0.4860730000000  0.4057370000000 1.0
C      1  0.5272560000000  0.5369250000000  0.4732910000000 1.0
C      1  0.5273400000000  0.5065790000000  0.5442750000000 1.0
C      1  0.5275190000000  0.4617340000000  0.4834780000000 1.0
C      1  0.4961050000000  0.5200520000000  0.4934140000000 1.0
C      1  0.4957280000000  0.4894770000000  0.5274450000000 1.0
C      1  0.4970740000000  0.4879430000000  0.4821670000000 1.0
C      1  0.5206780000000  0.5338310000000  0.5125590000000 1.0
C      1  0.5225400000000  0.4685580000000  0.5258380000000 1.0
C      1  0.5235880000000  0.4958770000000  0.4616060000000 1.0
C      1  0.5464570000000  0.4466590000000  0.5613750000000 1.0
C      1  0.5445870000000  0.4764600000000  0.4212720000000 1.0
C      1  0.5448310000000  0.5786330000000  0.5174630000000 1.0
C      1  0.4992940000000  0.4164740000000  0.4807910000000 1.0
C      1  0.4964880000000  0.5603230000000  0.4362900000000 1.0
C      1  0.4974460000000  0.5259610000000  0.5840220000000 1.0
C      1  0.5171460000000  0.5183290000000  0.4098960000000 1.0
C      1  0.5180070000000  0.5677040000000  0.5578010000000 1.0
C      1  0.5143190000000  0.4150060000000  0.5313930000000 1.0
C      1  0.4899190000000  0.4201430000000  0.5096340000000 1.0
C      1  0.4902940000000  0.5332150000000  0.4233120000000 1.0
C      1  0.4910920000000  0.5500120000000  0.5660320000000 1.0
C      1  0.4659730000000  0.4981270000000  0.5386660000000 1.0
C      1  0.4678260000000  0.4706210000000  0.4808890000000 1.0
C      1  0.4665420000000  0.5319580000000  0.4833240000000 1.0
C      1  0.4339290000000  0.4997280000000  0.5005290000000 1.0
END
