TITL C-2622957-9142-222 0.00445194970522593 125000 -970.902726896332 0 0 176 (C1) n - 1
REM
REM in /nfs/bkarasulu/CARBON/AIRSS/Generating-Clusters/AIREBO/with-SteepDescent/Higher-Symm/SD-CG/HFTN-CG
REM
REM
REM
REM
REM
REM ./C.cell (b20cbc046b6831c77cfcea5457e17084)
REM
REM compiler GCC version 9.2.1 20190827 (Red Hat 9.2.1-1)
REM options -cpp -mtune=generic -march=x86-64 -g -O0 -fpre-include=/usr/include/finclude/math-vector-fortran.h
REM seed -696280003 -894523318 -1221666550 -1938556561 -273265785 -210356543 -194587332 -76158736 214112752 2008808137 1743825800 -1580157995 -1340665149 1631280293 1196023207 -1844903257 -1867531587 1281605298 -1289668526 -1364652887 -1492051090 575955399 -143620434 -538785412 381503684 302142956 410364779 656375472 -1185091436 1105697780 226825924 -698948411 -1103328389
REM
CELL 1.54180   50.00000   50.00000   50.00000   90.00000   90.00000   90.00000
LATT -1
SFAC C  
C      1  0.5874170000000  0.5362760000000  0.4633130000000 1.0
C      1  0.5646710000000  0.5390570000000  0.5752400000000 1.0
C      1  0.4493230000000  0.5326980000000  0.5872300000000 1.0
C      1  0.4143460000000  0.5415370000000  0.4649680000000 1.0
C      1  0.5067440000000  0.5243620000000  0.3944900000000 1.0
C      1  0.5153470000000  0.5994150000000  0.4795060000000 1.0
C      1  0.5247070000000  0.5827360000000  0.5034550000000 1.0
C      1  0.5030830000000  0.5847230000000  0.5279370000000 1.0
C      1  0.4867560000000  0.5988890000000  0.5062020000000 1.0
C      1  0.4880790000000  0.5791690000000  0.4812420000000 1.0
C      1  0.5315370000000  0.4849850000000  0.3807090000000 1.0
C      1  0.6260810000000  0.5107650000000  0.4825040000000 1.0
C      1  0.5483190000000  0.5044140000000  0.6102890000000 1.0
C      1  0.4150960000000  0.4933750000000  0.5882650000000 1.0
C      1  0.3932140000000  0.5053390000000  0.4332260000000 1.0
C      1  0.5389630000000  0.5968080000000  0.5407290000000 1.0
C      1  0.4884880000000  0.5985350000000  0.5525000000000 1.0
C      1  0.4559530000000  0.5913810000000  0.5015550000000 1.0
C      1  0.4826910000000  0.5896410000000  0.4506710000000 1.0
C      1  0.5296500000000  0.5955780000000  0.4558770000000 1.0
C      1  0.4111910000000  0.4882950000000  0.5339030000000 1.0
C      1  0.4341500000000  0.4981040000000  0.4009410000000 1.0
C      1  0.5731990000000  0.4766880000000  0.4114170000000 1.0
C      1  0.5970220000000  0.4914020000000  0.5334720000000 1.0
C      1  0.4950620000000  0.4835870000000  0.6128660000000 1.0
C      1  0.4385540000000  0.4787450000000  0.4865060000000 1.0
C      1  0.4923560000000  0.4854350000000  0.4402660000000 1.0
C      1  0.5565220000000  0.4906460000000  0.4740880000000 1.0
C      1  0.5440210000000  0.4849160000000  0.5411570000000 1.0
C      1  0.4679060000000  0.4735550000000  0.5386780000000 1.0
C      1  0.4659640000000  0.4527960000000  0.5869320000000 1.0
C      1  0.3993230000000  0.4692420000000  0.4861930000000 1.0
C      1  0.4734880000000  0.4660930000000  0.4108430000000 1.0
C      1  0.5879320000000  0.4554210000000  0.4555210000000 1.0
C      1  0.5771730000000  0.4570470000000  0.5638820000000 1.0
C      1  0.5177480000000  0.5693480000000  0.4200130000000 1.0
C      1  0.5799660000000  0.5839780000000  0.4927180000000 1.0
C      1  0.5247520000000  0.5735130000000  0.5787710000000 1.0
C      1  0.4426570000000  0.5750620000000  0.5499580000000 1.0
C      1  0.4357130000000  0.5777280000000  0.4532180000000 1.0
C      1  0.4384810000000  0.4902760000000  0.4544980000000 1.0
C      1  0.5214750000000  0.4830900000000  0.4327790000000 1.0
C      1  0.5748870000000  0.4924680000000  0.5004410000000 1.0
C      1  0.5249210000000  0.4925230000000  0.5678910000000 1.0
C      1  0.4480020000000  0.4931010000000  0.5488250000000 1.0
C      1  0.5882930000000  0.4861720000000  0.5643320000000 1.0
C      1  0.4727630000000  0.4799400000000  0.5957620000000 1.0
C      1  0.3963940000000  0.4977950000000  0.5044210000000 1.0
C      1  0.4622800000000  0.4896800000000  0.3997550000000 1.0
C      1  0.5867390000000  0.4815960000000  0.4366050000000 1.0
C      1  0.4266250000000  0.4633460000000  0.4372120000000 1.0
C      1  0.5243030000000  0.4518310000000  0.4239480000000 1.0
C      1  0.5955650000000  0.4655350000000  0.5022240000000 1.0
C      1  0.5302380000000  0.4620310000000  0.5803140000000 1.0
C      1  0.4333340000000  0.4462860000000  0.5556220000000 1.0
C      1  0.5156250000000  0.3980240000000  0.5113210000000 1.0
C      1  0.4886510000000  0.3984150000000  0.5227040000000 1.0
C      1  0.4701210000000  0.4004470000000  0.5005660000000 1.0
C      1  0.4852430000000  0.4052090000000  0.4766990000000 1.0
C      1  0.5122920000000  0.4010960000000  0.4833110000000 1.0
C      1  0.4084830000000  0.5750020000000  0.4635800000000 1.0
C      1  0.4961960000000  0.5532690000000  0.4069480000000 1.0
C      1  0.5791610000000  0.5688770000000  0.4687750000000 1.0
C      1  0.5506140000000  0.5675460000000  0.5873880000000 1.0
C      1  0.4523700000000  0.5651110000000  0.5774100000000 1.0
C      1  0.5083970000000  0.4088110000000  0.5687110000000 1.0
C      1  0.4246640000000  0.4097860000000  0.5347660000000 1.0
C      1  0.4553540000000  0.4100480000000  0.4450440000000 1.0
C      1  0.5331880000000  0.4133830000000  0.4371820000000 1.0
C      1  0.5623550000000  0.4174730000000  0.5100790000000 1.0
C      1  0.5326910000000  0.5319910000000  0.5844200000000 1.0
C      1  0.4260040000000  0.5329060000000  0.5624820000000 1.0
C      1  0.4175540000000  0.5464250000000  0.4314670000000 1.0
C      1  0.5264650000000  0.5233560000000  0.4184220000000 1.0
C      1  0.5900390000000  0.5315380000000  0.4969000000000 1.0
C      1  0.5477310000000  0.5508560000000  0.4850260000000 1.0
C      1  0.5294820000000  0.5434830000000  0.5462540000000 1.0
C      1  0.4684100000000  0.5432760000000  0.5412930000000 1.0
C      1  0.4460660000000  0.5467060000000  0.4760900000000 1.0
C      1  0.5035610000000  0.5389900000000  0.4471960000000 1.0
C      1  0.5484200000000  0.5721570000000  0.4585190000000 1.0
C      1  0.5458130000000  0.5660780000000  0.5329840000000 1.0
C      1  0.4805780000000  0.5668040000000  0.5595350000000 1.0
C      1  0.4426850000000  0.5626890000000  0.5037430000000 1.0
C      1  0.4811400000000  0.5605850000000  0.4366300000000 1.0
C      1  0.4356290000000  0.5467350000000  0.5329430000000 1.0
C      1  0.4497450000000  0.5487580000000  0.4421760000000 1.0
C      1  0.5354880000000  0.5477350000000  0.4393560000000 1.0
C      1  0.5642240000000  0.5452870000000  0.5142430000000 1.0
C      1  0.5057070000000  0.5466090000000  0.5703850000000 1.0
C      1  0.5399340000000  0.5200300000000  0.4773210000000 1.0
C      1  0.5462390000000  0.5184320000000  0.5463490000000 1.0
C      1  0.4754130000000  0.5201710000000  0.5591130000000 1.0
C      1  0.4416720000000  0.5097790000000  0.4962940000000 1.0
C      1  0.4839540000000  0.5143760000000  0.4357270000000 1.0
C      1  0.4442960000000  0.4167630000000  0.5082800000000 1.0
C      1  0.4827300000000  0.4269080000000  0.4509510000000 1.0
C      1  0.5316430000000  0.4185010000000  0.4701650000000 1.0
C      1  0.5369450000000  0.4139450000000  0.5204400000000 1.0
C      1  0.4833220000000  0.4168030000000  0.5503090000000 1.0
C      1  0.5331510000000  0.4241630000000  0.5695510000000 1.0
C      1  0.4336280000000  0.4066050000000  0.5605740000000 1.0
C      1  0.4477180000000  0.3863470000000  0.4394690000000 1.0
C      1  0.5125790000000  0.4139530000000  0.4189020000000 1.0
C      1  0.5862890000000  0.4190960000000  0.4909970000000 1.0
C      1  0.4263950000000  0.4411500000000  0.5238440000000 1.0
C      1  0.4446080000000  0.4384360000000  0.4480540000000 1.0
C      1  0.5399680000000  0.4433020000000  0.4499920000000 1.0
C      1  0.5674820000000  0.4495220000000  0.5088560000000 1.0
C      1  0.5108560000000  0.4473730000000  0.5585460000000 1.0
C      1  0.5005710000000  0.5326730000000  0.4767980000000 1.0
C      1  0.5177430000000  0.5504920000000  0.4949260000000 1.0
C      1  0.5081510000000  0.5539880000000  0.5255430000000 1.0
C      1  0.4828430000000  0.5354820000000  0.5149590000000 1.0
C      1  0.4769620000000  0.5511920000000  0.4869910000000 1.0
C      1  0.4084100000000  0.5191360000000  0.5426490000000 1.0
C      1  0.4328650000000  0.5263990000000  0.3962070000000 1.0
C      1  0.5887650000000  0.4698370000000  0.3896580000000 1.0
C      1  0.5956740000000  0.5238420000000  0.5261740000000 1.0
C      1  0.4923790000000  0.4810950000000  0.6401110000000 1.0
C      1  0.6199990000000  0.5282940000000  0.4652710000000 1.0
C      1  0.5654600000000  0.5222930000000  0.6048350000000 1.0
C      1  0.4254750000000  0.5127220000000  0.6009700000000 1.0
C      1  0.3898560000000  0.5220050000000  0.4517420000000 1.0
C      1  0.5188020000000  0.5054500000000  0.3738580000000 1.0
C      1  0.4713330000000  0.5056500000000  0.4801580000000 1.0
C      1  0.5050330000000  0.5012830000000  0.4819100000000 1.0
C      1  0.5261650000000  0.5099500000000  0.5067430000000 1.0
C      1  0.5071260000000  0.5027850000000  0.5299100000000 1.0
C      1  0.4797940000000  0.5016670000000  0.5128470000000 1.0
C      1  0.4867420000000  0.4380560000000  0.5273810000000 1.0
C      1  0.4672370000000  0.4400750000000  0.5026910000000 1.0
C      1  0.4858230000000  0.4461260000000  0.4769770000000 1.0
C      1  0.5398980000000  0.4447440000000  0.4901740000000 1.0
C      1  0.5261870000000  0.4412430000000  0.5296760000000 1.0
C      1  0.5053190000000  0.5145750000000  0.5589120000000 1.0
C      1  0.4447050000000  0.5145710000000  0.5266600000000 1.0
C      1  0.4567680000000  0.5168170000000  0.4515350000000 1.0
C      1  0.5348730000000  0.5084390000000  0.4457230000000 1.0
C      1  0.5566130000000  0.5123650000000  0.5151150000000 1.0
C      1  0.4985800000000  0.4699320000000  0.5279560000000 1.0
C      1  0.4648440000000  0.4717540000000  0.5060840000000 1.0
C      1  0.4787440000000  0.4747090000000  0.4681650000000 1.0
C      1  0.5280620000000  0.4763460000000  0.4860030000000 1.0
C      1  0.5287170000000  0.4715630000000  0.5175900000000 1.0
C      1  0.4934330000000  0.4407840000000  0.4217650000000 1.0
C      1  0.5959690000000  0.4438060000000  0.4800760000000 1.0
C      1  0.5566200000000  0.4438700000000  0.5764940000000 1.0
C      1  0.4581660000000  0.4261420000000  0.5673120000000 1.0
C      1  0.4227530000000  0.4546780000000  0.4684180000000 1.0
C      1  0.4821620000000  0.5388030000000  0.5936660000000 1.0
C      1  0.4057630000000  0.5369490000000  0.5186640000000 1.0
C      1  0.4537950000000  0.5385690000000  0.4099750000000 1.0
C      1  0.5682550000000  0.5395460000000  0.4354030000000 1.0
C      1  0.5796160000000  0.5426370000000  0.5448290000000 1.0
C      1  0.4779970000000  0.5177940000000  0.4057420000000 1.0
C      1  0.5795920000000  0.5044670000000  0.4541390000000 1.0
C      1  0.5688280000000  0.5059870000000  0.5685140000000 1.0
C      1  0.4602480000000  0.5015890000000  0.5789110000000 1.0
C      1  0.4127410000000  0.5224060000000  0.4916230000000 1.0
C      1  0.4662450000000  0.4620970000000  0.4415940000000 1.0
C      1  0.5591030000000  0.4625190000000  0.4579090000000 1.0
C      1  0.5705270000000  0.4697410000000  0.5330480000000 1.0
C      1  0.4827790000000  0.4569350000000  0.5619760000000 1.0
C      1  0.4195530000000  0.4667130000000  0.5122730000000 1.0
C      1  0.6089780000000  0.4952680000000  0.5018750000000 1.0
C      1  0.5228940000000  0.4854970000000  0.6013140000000 1.0
C      1  0.4229570000000  0.4770440000000  0.5625930000000 1.0
C      1  0.4195990000000  0.4913480000000  0.4262380000000 1.0
C      1  0.5426730000000  0.4745130000000  0.4075970000000 1.0
C      1  0.4540160000000  0.5943990000000  0.4677040000000 1.0
C      1  0.5107510000000  0.5915860000000  0.4352210000000 1.0
C      1  0.5560330000000  0.5892590000000  0.5117480000000 1.0
C      1  0.5200960000000  0.5956190000000  0.5622260000000 1.0
C      1  0.4595530000000  0.5927740000000  0.5355630000000 1.0
C      1  0.5078140000000  0.4418400000000  0.5010540000000 1.0
END
