TITL C-2622962-9663-589 8.21807463432772e-07 125000 -223.119073081804 0 0 38 (C1) n - 1
REM
REM in /nfs/bkarasulu/CARBON/AIRSS/Generating-Clusters/AIREBO/with-SteepDescent/Higher-Symm/SD-CG/HFTN-CG
REM
REM
REM
REM
REM
REM ./C.cell (b20cbc046b6831c77cfcea5457e17084)
REM
REM compiler GCC version 9.2.1 20190827 (Red Hat 9.2.1-1)
REM options -cpp -mtune=generic -march=x86-64 -g -O0 -fpre-include=/usr/include/finclude/math-vector-fortran.h
REM seed 1135810257 -846776583 -2132662345 -1344268782 1463592368 -1803040116 -1586486032 616043665 -1894747580 -341114649 -1169972410 -907775128 156237294 178530088 -2001825329 660485152 160665147 -1380268846 1610959731 -610263146 -1261757140 838122402 395953574 -1974362603 -63359859 -780791381 89908328 -1315018540 99078414 -1220694601 -2007055085 -181777194 866820333
REM
CELL 1.54180   50.00000   50.00000   50.00000   90.00000   90.00000   90.00000
LATT -1
SFAC C  
C      1  0.5648970000000  0.5154660000000  0.5232730000000 1.0
C      1  0.4103160000000  0.5018870000000  0.5210600000000 1.0
C      1  0.5553700000000  0.5040110000000  0.4990360000000 1.0
C      1  0.5924010000000  0.5143980000000  0.5297320000000 1.0
C      1  0.4094010000000  0.4740110000000  0.5167740000000 1.0
C      1  0.5534030000000  0.4759840000000  0.4958890000000 1.0
C      1  0.5433400000000  0.4647620000000  0.4720310000000 1.0
C      1  0.6004760000000  0.5142090000000  0.5560570000000 1.0
C      1  0.4138100000000  0.4669350000000  0.4896080000000 1.0
C      1  0.5478360000000  0.5183280000000  0.4755330000000 1.0
C      1  0.5484970000000  0.5272840000000  0.5433990000000 1.0
C      1  0.4180150000000  0.5193260000000  0.5002300000000 1.0
C      1  0.4009690000000  0.5314470000000  0.4565850000000 1.0
C      1  0.5631130000000  0.5212070000000  0.4298100000000 1.0
C      1  0.5379580000000  0.5216170000000  0.5901580000000 1.0
C      1  0.3916970000000  0.4760030000000  0.4475400000000 1.0
C      1  0.5554180000000  0.4652000000000  0.4252250000000 1.0
C      1  0.5940680000000  0.5345750000000  0.5995460000000 1.0
C      1  0.4628160000000  0.5490470000000  0.5021540000000 1.0
C      1  0.5069940000000  0.5527950000000  0.4817790000000 1.0
C      1  0.5035960000000  0.5546000000000  0.5285910000000 1.0
C      1  0.4534830000000  0.4327760000000  0.4768760000000 1.0
C      1  0.5004990000000  0.4320370000000  0.4710260000000 1.0
C      1  0.4759750000000  0.3910600000000  0.4710160000000 1.0
C      1  0.5511850000000  0.4783510000000  0.4483780000000 1.0
C      1  0.5841440000000  0.5247640000000  0.5765150000000 1.0
C      1  0.4038440000000  0.4850390000000  0.4698730000000 1.0
C      1  0.5543390000000  0.5063100000000  0.4505300000000 1.0
C      1  0.5563580000000  0.5247650000000  0.5706520000000 1.0
C      1  0.4072910000000  0.5126390000000  0.4748240000000 1.0
C      1  0.4047850000000  0.4559970000000  0.5361960000000 1.0
C      1  0.4316150000000  0.4467510000000  0.4830100000000 1.0
C      1  0.5235390000000  0.4454500000000  0.4715700000000 1.0
C      1  0.5264990000000  0.5422550000000  0.5358260000000 1.0
C      1  0.4388870000000  0.5372380000000  0.5032130000000 1.0
C      1  0.5302460000000  0.5396520000000  0.4775880000000 1.0
C      1  0.4766690000000  0.4179440000000  0.4732030000000 1.0
C      1  0.4899350000000  0.5540880000000  0.5040580000000 1.0
END
