TITL C-2622960-5345-367 -0.00150194830134068 125000 -870.261163226094 0 0 160 (C1) n - 1
REM
REM in /nfs/bkarasulu/CARBON/AIRSS/Generating-Clusters/AIREBO/with-SteepDescent/Higher-Symm/SD-CG/HFTN-CG
REM
REM
REM
REM
REM
REM ./C.cell (b20cbc046b6831c77cfcea5457e17084)
REM
REM compiler GCC version 9.2.1 20190827 (Red Hat 9.2.1-1)
REM options -cpp -mtune=generic -march=x86-64 -g -O0 -fpre-include=/usr/include/finclude/math-vector-fortran.h
REM seed -1337184200 245059517 -2087274826 -806551454 -1672554857 1740817698 263667703 1869024528 1358684552 422791077 -654754724 -1687256676 1131188571 1548503931 -1358425126 -1499902242 851939956 1421820165 -1276069285 -141359476 -1713050599 1337629530 -1364813057 -581964960 1741061538 1384960310 1149956614 -2051143746 -2030630335 746552590 1753544762 -2129960551 2137947626
REM
CELL 1.54180   50.00000   50.00000   50.00000   90.00000   90.00000   90.00000
LATT -1
SFAC C  
C      1  0.4757100000000  0.5226290000000  0.4630090000000 1.0
C      1  0.4384410000000  0.5665250000000  0.5501490000000 1.0
C      1  0.5135240000000  0.5328020000000  0.5848650000000 1.0
C      1  0.4638440000000  0.5271680000000  0.5882760000000 1.0
C      1  0.5401900000000  0.5009710000000  0.5119210000000 1.0
C      1  0.4597750000000  0.5847790000000  0.4837360000000 1.0
C      1  0.5248630000000  0.5064140000000  0.5689920000000 1.0
C      1  0.4867460000000  0.4281150000000  0.4201070000000 1.0
C      1  0.4756300000000  0.4395950000000  0.5777480000000 1.0
C      1  0.5677680000000  0.4214350000000  0.4823010000000 1.0
C      1  0.5147040000000  0.5086680000000  0.4814780000000 1.0
C      1  0.5264340000000  0.5894030000000  0.5260570000000 1.0
C      1  0.4931680000000  0.4887400000000  0.5969110000000 1.0
C      1  0.3989030000000  0.5049920000000  0.4724800000000 1.0
C      1  0.5030550000000  0.4358370000000  0.5082070000000 1.0
C      1  0.4940760000000  0.4078390000000  0.5459220000000 1.0
C      1  0.5433420000000  0.5197900000000  0.5361800000000 1.0
C      1  0.5466680000000  0.4706270000000  0.5007850000000 1.0
C      1  0.4117710000000  0.5066420000000  0.4426570000000 1.0
C      1  0.5592890000000  0.5927450000000  0.5179250000000 1.0
C      1  0.4472420000000  0.4315970000000  0.5049600000000 1.0
C      1  0.3915820000000  0.4801150000000  0.4841010000000 1.0
C      1  0.5306740000000  0.4388690000000  0.5507830000000 1.0
C      1  0.5230670000000  0.4855870000000  0.5965090000000 1.0
C      1  0.6020260000000  0.4596860000000  0.4976040000000 1.0
C      1  0.5476290000000  0.5781580000000  0.4425060000000 1.0
C      1  0.5430270000000  0.4823060000000  0.4686680000000 1.0
C      1  0.4399020000000  0.5657200000000  0.4381910000000 1.0
C      1  0.4482200000000  0.4716740000000  0.5519070000000 1.0
C      1  0.5920920000000  0.5118800000000  0.5259050000000 1.0
C      1  0.4283520000000  0.5471650000000  0.4563100000000 1.0
C      1  0.5154490000000  0.5756290000000  0.4698020000000 1.0
C      1  0.4082900000000  0.5264720000000  0.4938590000000 1.0
C      1  0.5089630000000  0.5509170000000  0.4881160000000 1.0
C      1  0.4378170000000  0.5882120000000  0.5291990000000 1.0
C      1  0.4143130000000  0.4376390000000  0.4990110000000 1.0
C      1  0.5292120000000  0.4924280000000  0.4069320000000 1.0
C      1  0.4877630000000  0.4655980000000  0.5295960000000 1.0
C      1  0.4679460000000  0.5639400000000  0.5669160000000 1.0
C      1  0.5648860000000  0.4428190000000  0.5229540000000 1.0
C      1  0.5344810000000  0.4281850000000  0.5187110000000 1.0
C      1  0.4358370000000  0.4760660000000  0.5030890000000 1.0
C      1  0.5838010000000  0.4894630000000  0.5447560000000 1.0
C      1  0.4543920000000  0.4278520000000  0.4314860000000 1.0
C      1  0.5281490000000  0.6227480000000  0.4706650000000 1.0
C      1  0.5661210000000  0.5661940000000  0.4686750000000 1.0
C      1  0.4064720000000  0.4746820000000  0.5117480000000 1.0
C      1  0.5788220000000  0.5733770000000  0.5182240000000 1.0
C      1  0.4881180000000  0.4062050000000  0.4532160000000 1.0
C      1  0.4254780000000  0.4578030000000  0.4593200000000 1.0
C      1  0.5132480000000  0.4174870000000  0.4490350000000 1.0
C      1  0.5739280000000  0.5006240000000  0.5722330000000 1.0
C      1  0.5279440000000  0.4533320000000  0.4600650000000 1.0
C      1  0.5412520000000  0.4800410000000  0.5551370000000 1.0
C      1  0.4117010000000  0.4219540000000  0.5678000000000 1.0
C      1  0.5083900000000  0.5237450000000  0.4533980000000 1.0
C      1  0.4147620000000  0.5552640000000  0.4813910000000 1.0
C      1  0.5539780000000  0.4752560000000  0.4100690000000 1.0
C      1  0.4688930000000  0.5006870000000  0.6027460000000 1.0
C      1  0.5622690000000  0.4426480000000  0.5627950000000 1.0
C      1  0.4057850000000  0.5230790000000  0.5254410000000 1.0
C      1  0.4867620000000  0.5605500000000  0.5087360000000 1.0
C      1  0.6001260000000  0.4911900000000  0.5001440000000 1.0
C      1  0.5748030000000  0.4585250000000  0.4417720000000 1.0
C      1  0.5352100000000  0.6115360000000  0.5017690000000 1.0
C      1  0.4733550000000  0.4902550000000  0.4324160000000 1.0
C      1  0.4743980000000  0.4239620000000  0.4751550000000 1.0
C      1  0.5223490000000  0.4314920000000  0.5829140000000 1.0
C      1  0.4689920000000  0.4066480000000  0.5011850000000 1.0
C      1  0.4672740000000  0.4979440000000  0.5416940000000 1.0
C      1  0.4795470000000  0.4735230000000  0.5003170000000 1.0
C      1  0.4419530000000  0.5193130000000  0.4654460000000 1.0
C      1  0.5199640000000  0.4926310000000  0.4458060000000 1.0
C      1  0.4932200000000  0.5856030000000  0.5263790000000 1.0
C      1  0.5685030000000  0.5443510000000  0.4426760000000 1.0
C      1  0.5912400000000  0.5060020000000  0.4714950000000 1.0
C      1  0.5263880000000  0.5761610000000  0.5573800000000 1.0
C      1  0.5281400000000  0.5511990000000  0.4495880000000 1.0
C      1  0.5262600000000  0.5260690000000  0.4112340000000 1.0
C      1  0.4554300000000  0.5850170000000  0.4511710000000 1.0
C      1  0.4631210000000  0.5194230000000  0.4315820000000 1.0
C      1  0.5076500000000  0.4788940000000  0.4867810000000 1.0
C      1  0.4141110000000  0.5443300000000  0.5414580000000 1.0
C      1  0.5242000000000  0.4168700000000  0.4753460000000 1.0
C      1  0.4534100000000  0.5415410000000  0.5378390000000 1.0
C      1  0.5344320000000  0.5564260000000  0.5238070000000 1.0
C      1  0.4407800000000  0.5234170000000  0.4970520000000 1.0
C      1  0.5412060000000  0.4602940000000  0.5828210000000 1.0
C      1  0.5173990000000  0.3975820000000  0.4995530000000 1.0
C      1  0.4952260000000  0.4796170000000  0.5686590000000 1.0
C      1  0.4558460000000  0.4578220000000  0.4850980000000 1.0
C      1  0.5038680000000  0.5635700000000  0.4317150000000 1.0
C      1  0.5824790000000  0.5541670000000  0.4935440000000 1.0
C      1  0.5225340000000  0.6035910000000  0.4517920000000 1.0
C      1  0.4044050000000  0.4959680000000  0.5331050000000 1.0
C      1  0.4021390000000  0.4446360000000  0.5248160000000 1.0
C      1  0.4715470000000  0.5394050000000  0.4117350000000 1.0
C      1  0.4460990000000  0.4856750000000  0.4033730000000 1.0
C      1  0.4968560000000  0.5607090000000  0.5492640000000 1.0
C      1  0.5984910000000  0.5387180000000  0.5424830000000 1.0
C      1  0.4499420000000  0.5584160000000  0.4121420000000 1.0
C      1  0.5019630000000  0.5242260000000  0.5059760000000 1.0
C      1  0.5073320000000  0.4732670000000  0.4208520000000 1.0
C      1  0.5488990000000  0.5304120000000  0.4667070000000 1.0
C      1  0.4482040000000  0.4432060000000  0.5369190000000 1.0
C      1  0.4991220000000  0.5438130000000  0.4120000000000 1.0
C      1  0.5523260000000  0.5545720000000  0.5531540000000 1.0
C      1  0.5562540000000  0.4348690000000  0.4562830000000 1.0
C      1  0.5446390000000  0.5878550000000  0.4810870000000 1.0
C      1  0.5807740000000  0.5594540000000  0.5421160000000 1.0
C      1  0.4964560000000  0.4160660000000  0.5741700000000 1.0
C      1  0.4521570000000  0.4995320000000  0.5131950000000 1.0
C      1  0.5669840000000  0.4955580000000  0.4266450000000 1.0
C      1  0.5621650000000  0.6037920000000  0.4570090000000 1.0
C      1  0.4324820000000  0.5733230000000  0.4999640000000 1.0
C      1  0.5165670000000  0.4406810000000  0.4243640000000 1.0
C      1  0.4899180000000  0.5461450000000  0.5858060000000 1.0
C      1  0.4056120000000  0.4537130000000  0.4777400000000 1.0
C      1  0.5672470000000  0.4806100000000  0.5909410000000 1.0
C      1  0.4768600000000  0.5067010000000  0.4932100000000 1.0
C      1  0.4187260000000  0.4354830000000  0.5452420000000 1.0
C      1  0.5594600000000  0.4724960000000  0.5322320000000 1.0
C      1  0.5632940000000  0.4156850000000  0.5433850000000 1.0
C      1  0.5380140000000  0.5379260000000  0.4954940000000 1.0
C      1  0.4643210000000  0.5929860000000  0.5139420000000 1.0
C      1  0.4926040000000  0.3980770000000  0.5154310000000 1.0
C      1  0.5551670000000  0.5437320000000  0.4145580000000 1.0
C      1  0.4618860000000  0.4736310000000  0.4555920000000 1.0
C      1  0.5665350000000  0.5309890000000  0.5126650000000 1.0
C      1  0.4532740000000  0.5198800000000  0.5594500000000 1.0
C      1  0.5008020000000  0.5028780000000  0.5451950000000 1.0
C      1  0.4841380000000  0.4500520000000  0.4459610000000 1.0
C      1  0.5824420000000  0.4406150000000  0.4986120000000 1.0
C      1  0.4485940000000  0.4359990000000  0.4600170000000 1.0
C      1  0.5121510000000  0.5333120000000  0.5350630000000 1.0
C      1  0.5472300000000  0.4468230000000  0.4256840000000 1.0
C      1  0.5134640000000  0.4838910000000  0.5199560000000 1.0
C      1  0.5542420000000  0.5232840000000  0.5661150000000 1.0
C      1  0.4566390000000  0.4592260000000  0.5805260000000 1.0
C      1  0.4787640000000  0.4328100000000  0.5294330000000 1.0
C      1  0.4335660000000  0.4882440000000  0.4590780000000 1.0
C      1  0.4369600000000  0.5034980000000  0.4225210000000 1.0
C      1  0.4669170000000  0.4543770000000  0.4162280000000 1.0
C      1  0.5365130000000  0.4452300000000  0.4893580000000 1.0
C      1  0.4563210000000  0.5495920000000  0.5049300000000 1.0
C      1  0.4795280000000  0.4794410000000  0.4022250000000 1.0
C      1  0.4177570000000  0.4864580000000  0.5549980000000 1.0
C      1  0.4684740000000  0.5536020000000  0.4733050000000 1.0
C      1  0.5689080000000  0.5024960000000  0.4947520000000 1.0
C      1  0.4998080000000  0.4516810000000  0.5571230000000 1.0
C      1  0.5435820000000  0.5135140000000  0.4376860000000 1.0
C      1  0.4987410000000  0.4476910000000  0.4765790000000 1.0
C      1  0.4473960000000  0.4841550000000  0.5937360000000 1.0
C      1  0.5877480000000  0.4594860000000  0.5573220000000 1.0
C      1  0.4579430000000  0.5590310000000  0.5990400000000 1.0
C      1  0.5507690000000  0.4038600000000  0.5013960000000 1.0
C      1  0.5722240000000  0.4865130000000  0.4563220000000 1.0
C      1  0.4854830000000  0.5754570000000  0.4546800000000 1.0
C      1  0.5907470000000  0.5356490000000  0.4662520000000 1.0
C      1  0.4330770000000  0.5005910000000  0.5749950000000 1.0
END
