TITL C-2622955-8511-363 0.00178283010385209 125000 -447.757300398267 0 0 81 (C1) n - 1
REM
REM in /nfs/bkarasulu/CARBON/AIRSS/Generating-Clusters/AIREBO/with-SteepDescent/Higher-Symm/SD-CG/HFTN-CG
REM
REM
REM
REM
REM
REM ./C.cell (b20cbc046b6831c77cfcea5457e17084)
REM
REM compiler GCC version 9.2.1 20190827 (Red Hat 9.2.1-1)
REM options -cpp -mtune=generic -march=x86-64 -g -O0 -fpre-include=/usr/include/finclude/math-vector-fortran.h
REM seed 1847120428 -1132949165 -840145102 -1765414106 1178647957 -1546010096 -1348870515 -1165268865 700873660 -1449753171 -164533368 -1602112066 615681228 -12517592 1264167962 1859442205 -799407807 -1371153940 -618227679 2023701607 499372957 -1717524575 -2007518008 1784917989 -1894535439 293293987 916152684 1280217641 -1522558364 385028967 1093156131 -1360975995 6799478
REM
CELL 1.54180   50.00000   50.00000   50.00000   90.00000   90.00000   90.00000
LATT -1
SFAC C  
C      1  0.5221350000000  0.4546850000000  0.4352330000000 1.0
C      1  0.5264280000000  0.5720500000000  0.4721890000000 1.0
C      1  0.5286000000000  0.5258370000000  0.5707240000000 1.0
C      1  0.5273340000000  0.4367950000000  0.5337030000000 1.0
C      1  0.5207750000000  0.4597400000000  0.5618310000000 1.0
C      1  0.5240430000000  0.5742120000000  0.5296270000000 1.0
C      1  0.5265480000000  0.5223270000000  0.4384020000000 1.0
C      1  0.5256170000000  0.4402950000000  0.4659290000000 1.0
C      1  0.5309880000000  0.5436690000000  0.4858450000000 1.0
C      1  0.5338540000000  0.5183620000000  0.5400030000000 1.0
C      1  0.5308190000000  0.4649400000000  0.5193390000000 1.0
C      1  0.5316760000000  0.4805460000000  0.4530950000000 1.0
C      1  0.5246770000000  0.5442080000000  0.5196260000000 1.0
C      1  0.5309160000000  0.5181190000000  0.4660720000000 1.0
C      1  0.5385190000000  0.4602300000000  0.4865740000000 1.0
C      1  0.5312630000000  0.4857260000000  0.5443380000000 1.0
C      1  0.4463360000000  0.4804720000000  0.4578990000000 1.0
C      1  0.4451530000000  0.5404290000000  0.4675460000000 1.0
C      1  0.4476210000000  0.5160000000000  0.5488470000000 1.0
C      1  0.4473800000000  0.4633140000000  0.5186790000000 1.0
C      1  0.4404190000000  0.4834320000000  0.5415640000000 1.0
C      1  0.4428470000000  0.5405100000000  0.5321980000000 1.0
C      1  0.4423100000000  0.5157830000000  0.4491720000000 1.0
C      1  0.4413220000000  0.4638210000000  0.4848940000000 1.0
C      1  0.5355120000000  0.4166600000000  0.5137550000000 1.0
C      1  0.5372000000000  0.4765370000000  0.4139750000000 1.0
C      1  0.5366580000000  0.5926350000000  0.4866580000000 1.0
C      1  0.5364040000000  0.5058350000000  0.5874410000000 1.0
C      1  0.5359250000000  0.4194560000000  0.4886040000000 1.0
C      1  0.5357380000000  0.4783840000000  0.5833080000000 1.0
C      1  0.5367800000000  0.5925630000000  0.5146540000000 1.0
C      1  0.5370820000000  0.5038530000000  0.4195280000000 1.0
C      1  0.4801710000000  0.4211080000000  0.4848030000000 1.0
C      1  0.4847400000000  0.5133100000000  0.4141280000000 1.0
C      1  0.4874640000000  0.5776370000000  0.5140770000000 1.0
C      1  0.4824830000000  0.4849550000000  0.5838150000000 1.0
C      1  0.4818480000000  0.4210530000000  0.5140130000000 1.0
C      1  0.4866230000000  0.5144560000000  0.5873130000000 1.0
C      1  0.4891290000000  0.5763890000000  0.4856280000000 1.0
C      1  0.4833810000000  0.4843250000000  0.4147720000000 1.0
C      1  0.4999180000000  0.5394580000000  0.5673360000000 1.0
C      1  0.4968990000000  0.4349340000000  0.5415890000000 1.0
C      1  0.4912560000000  0.4534400000000  0.4278360000000 1.0
C      1  0.4987580000000  0.5642480000000  0.4544070000000 1.0
C      1  0.5006610000000  0.5378120000000  0.4330670000000 1.0
C      1  0.4937160000000  0.4386010000000  0.4583480000000 1.0
C      1  0.4888910000000  0.4560280000000  0.5665570000000 1.0
C      1  0.4958290000000  0.5638930000000  0.5455510000000 1.0
C      1  0.5711290000000  0.4666000000000  0.4860480000000 1.0
C      1  0.5704450000000  0.5134840000000  0.4699880000000 1.0
C      1  0.5737320000000  0.5357550000000  0.5139520000000 1.0
C      1  0.5749250000000  0.4909900000000  0.5321280000000 1.0
C      1  0.5640540000000  0.4716720000000  0.5150760000000 1.0
C      1  0.5647990000000  0.5172490000000  0.5330040000000 1.0
C      1  0.5630410000000  0.5343880000000  0.4880640000000 1.0
C      1  0.5631500000000  0.4862170000000  0.4648870000000 1.0
C      1  0.4685750000000  0.4508530000000  0.4770590000000 1.0
C      1  0.4712560000000  0.5239290000000  0.4421230000000 1.0
C      1  0.4681410000000  0.5544930000000  0.5281970000000 1.0
C      1  0.4696550000000  0.4790250000000  0.5532840000000 1.0
C      1  0.4750220000000  0.4524060000000  0.5234720000000 1.0
C      1  0.4760220000000  0.5183520000000  0.5566470000000 1.0
C      1  0.4719810000000  0.5514310000000  0.4709840000000 1.0
C      1  0.4727630000000  0.4744650000000  0.4450750000000 1.0
C      1  0.4917530000000  0.4695460000000  0.4835650000000 1.0
C      1  0.4910640000000  0.5151300000000  0.4644320000000 1.0
C      1  0.4919700000000  0.5379880000000  0.5153280000000 1.0
C      1  0.4881270000000  0.4891640000000  0.5321600000000 1.0
C      1  0.4998060000000  0.4706710000000  0.5117080000000 1.0
C      1  0.5003250000000  0.5162810000000  0.5347520000000 1.0
C      1  0.4978730000000  0.5359520000000  0.4857390000000 1.0
C      1  0.4989790000000  0.4863650000000  0.4605290000000 1.0
C      1  0.4139470000000  0.4439600000000  0.4864810000000 1.0
C      1  0.4162340000000  0.5089320000000  0.4318050000000 1.0
C      1  0.4240960000000  0.5435590000000  0.5133580000000 1.0
C      1  0.4142890000000  0.4813660000000  0.5628990000000 1.0
C      1  0.4224010000000  0.4427170000000  0.5128560000000 1.0
C      1  0.4232030000000  0.5070180000000  0.5686620000000 1.0
C      1  0.4268580000000  0.5456810000000  0.4864240000000 1.0
C      1  0.4212620000000  0.4831520000000  0.4399370000000 1.0
C      1  0.5294430000000  0.4929510000000  0.4846780000000 1.0
END
