TITL C-2622967-6265-486 -0.00215594863232794 125000 -323.060697552168 0 0 57 (C1) n - 1
REM
REM in /nfs/bkarasulu/CARBON/AIRSS/Generating-Clusters/AIREBO/with-SteepDescent/Higher-Symm/SD-CG/HFTN-CG
REM
REM
REM
REM
REM
REM ./C.cell (b20cbc046b6831c77cfcea5457e17084)
REM
REM compiler GCC version 9.2.1 20190827 (Red Hat 9.2.1-1)
REM options -cpp -mtune=generic -march=x86-64 -g -O0 -fpre-include=/usr/include/finclude/math-vector-fortran.h
REM seed -1575499885 2025543301 1598521421 -58969046 1610030359 -1266164641 -1467925294 -1363831148 270899731 -1927814329 -76176481 1567725848 -2019963847 1613141392 2123855650 -813301750 -664533978 1414964642 -934415588 -1250880176 276369801 -613274737 -1172210277 -557551267 1201777605 -1016170305 409492018 1648409768 1680121990 -576540985 -31514235 -2012806954 729425110
REM
CELL 1.54180   50.00000   50.00000   50.00000   90.00000   90.00000   90.00000
LATT -1
SFAC C  
C      1  0.5692720000000  0.5111730000000  0.4612420000000 1.0
C      1  0.5754100000000  0.4440660000000  0.4995450000000 1.0
C      1  0.5621260000000  0.5288780000000  0.5284580000000 1.0
C      1  0.4283710000000  0.5139620000000  0.5279800000000 1.0
C      1  0.4287720000000  0.4455200000000  0.5080750000000 1.0
C      1  0.4257990000000  0.5280880000000  0.4594890000000 1.0
C      1  0.5371540000000  0.4483470000000  0.4686660000000 1.0
C      1  0.5254820000000  0.4984970000000  0.5663000000000 1.0
C      1  0.5309630000000  0.5570670000000  0.4674360000000 1.0
C      1  0.4707750000000  0.4453510000000  0.5347360000000 1.0
C      1  0.4641330000000  0.5072430000000  0.4284900000000 1.0
C      1  0.4705700000000  0.5569710000000  0.5297820000000 1.0
C      1  0.4959100000000  0.5477610000000  0.4704330000000 1.0
C      1  0.4911620000000  0.4485740000000  0.4705060000000 1.0
C      1  0.4988580000000  0.4921130000000  0.5865320000000 1.0
C      1  0.5019440000000  0.5462100000000  0.5254650000000 1.0
C      1  0.4968940000000  0.4317150000000  0.5518070000000 1.0
C      1  0.4970740000000  0.5019410000000  0.4351200000000 1.0
C      1  0.4595220000000  0.5061920000000  0.5160570000000 1.0
C      1  0.4699440000000  0.5006530000000  0.4743510000000 1.0
C      1  0.4639230000000  0.4794530000000  0.4991120000000 1.0
C      1  0.5400120000000  0.5035940000000  0.4770410000000 1.0
C      1  0.5348830000000  0.5126100000000  0.5154030000000 1.0
C      1  0.5436890000000  0.4828390000000  0.5025340000000 1.0
C      1  0.5097360000000  0.4933040000000  0.4654830000000 1.0
C      1  0.5146370000000  0.4783300000000  0.5162940000000 1.0
C      1  0.5046780000000  0.5184920000000  0.5119680000000 1.0
C      1  0.4870310000000  0.4942610000000  0.5281310000000 1.0
C      1  0.4952860000000  0.4736270000000  0.4891680000000 1.0
C      1  0.4954270000000  0.5196400000000  0.4815490000000 1.0
C      1  0.5421260000000  0.5140100000000  0.5474520000000 1.0
C      1  0.5481460000000  0.5341180000000  0.4654470000000 1.0
C      1  0.5537210000000  0.4573580000000  0.4895470000000 1.0
C      1  0.4472100000000  0.5144980000000  0.4552040000000 1.0
C      1  0.4511400000000  0.5353340000000  0.5282140000000 1.0
C      1  0.4526520000000  0.4550420000000  0.5124450000000 1.0
C      1  0.4717530000000  0.4546350000000  0.4512130000000 1.0
C      1  0.4771190000000  0.4798610000000  0.5745460000000 1.0
C      1  0.4757330000000  0.5664740000000  0.4823100000000 1.0
C      1  0.5191650000000  0.4477010000000  0.5564570000000 1.0
C      1  0.5213870000000  0.4835140000000  0.4285030000000 1.0
C      1  0.5236390000000  0.5657120000000  0.5158040000000 1.0
C      1  0.5202770000000  0.4732820000000  0.5478810000000 1.0
C      1  0.5321710000000  0.5726720000000  0.4934540000000 1.0
C      1  0.5294360000000  0.4686160000000  0.4513360000000 1.0
C      1  0.4658310000000  0.4805530000000  0.4478130000000 1.0
C      1  0.4688740000000  0.5751210000000  0.5047300000000 1.0
C      1  0.4777210000000  0.4727150000000  0.5486190000000 1.0
C      1  0.4909240000000  0.5519150000000  0.5556980000000 1.0
C      1  0.4872400000000  0.5283610000000  0.4183070000000 1.0
C      1  0.4900420000000  0.4195440000000  0.5239550000000 1.0
C      1  0.5094940000000  0.5591140000000  0.4435990000000 1.0
C      1  0.5103570000000  0.5209610000000  0.5864960000000 1.0
C      1  0.5151190000000  0.4305560000000  0.4744840000000 1.0
C      1  0.5006240000000  0.5456720000000  0.5791830000000 1.0
C      1  0.4990620000000  0.5519610000000  0.4200810000000 1.0
C      1  0.5023590000000  0.4242280000000  0.5000680000000 1.0
END
