TITL C-2622964-2985-650 0.00125533686075513 125000 -752.862971016627 0 0 151 (C1) n - 1
REM
REM in /nfs/bkarasulu/CARBON/AIRSS/Generating-Clusters/AIREBO/with-SteepDescent/Higher-Symm/SD-CG/HFTN-CG
REM
REM
REM
REM
REM
REM ./C.cell (b20cbc046b6831c77cfcea5457e17084)
REM
REM compiler GCC version 9.2.1 20190827 (Red Hat 9.2.1-1)
REM options -cpp -mtune=generic -march=x86-64 -g -O0 -fpre-include=/usr/include/finclude/math-vector-fortran.h
REM seed -151689911 794858276 -1419208607 -307262852 -1761274629 -1524096159 579848302 640809108 1438799131 -1885656763 145594004 -1545860909 828185342 2124404808 -1796389095 -2109468256 -250406864 -219153034 -334424590 1162103772 -801790102 -72733864 1222200394 1436635946 157839521 -1048054856 1716798722 -251724959 -1625558016 147294524 23520064 793064807 1783370354
REM
CELL 1.54180   50.00000   50.00000   50.00000   90.00000   90.00000   90.00000
LATT -1
SFAC C  
C      1  0.4811170000000  0.5967930000000  0.5030930000000 1.0
C      1  0.4890350000000  0.5891690000000  0.4707610000000 1.0
C      1  0.5328420000000  0.5917170000000  0.5022510000000 1.0
C      1  0.5089360000000  0.5963370000000  0.5221440000000 1.0
C      1  0.4764250000000  0.4129890000000  0.5017800000000 1.0
C      1  0.4891900000000  0.4137480000000  0.4702450000000 1.0
C      1  0.5268310000000  0.4029490000000  0.5007560000000 1.0
C      1  0.5013970000000  0.4045370000000  0.5232800000000 1.0
C      1  0.5073040000000  0.4469860000000  0.4589220000000 1.0
C      1  0.5423090000000  0.4447690000000  0.5071730000000 1.0
C      1  0.5001140000000  0.4581460000000  0.5425720000000 1.0
C      1  0.4570320000000  0.4475420000000  0.4969970000000 1.0
C      1  0.5027540000000  0.5538780000000  0.4586490000000 1.0
C      1  0.5508460000000  0.5501070000000  0.4817080000000 1.0
C      1  0.4974400000000  0.5575140000000  0.5362110000000 1.0
C      1  0.4636220000000  0.5612120000000  0.5067680000000 1.0
C      1  0.5916180000000  0.4672470000000  0.4884450000000 1.0
C      1  0.5086190000000  0.4681360000000  0.5887010000000 1.0
C      1  0.3999470000000  0.4681350000000  0.4978700000000 1.0
C      1  0.4951210000000  0.4677390000000  0.4069640000000 1.0
C      1  0.6034070000000  0.5279710000000  0.4959970000000 1.0
C      1  0.5039590000000  0.5322090000000  0.5965990000000 1.0
C      1  0.3993360000000  0.5278910000000  0.5036130000000 1.0
C      1  0.4939090000000  0.5319570000000  0.4027020000000 1.0
C      1  0.5207530000000  0.4468630000000  0.5659500000000 1.0
C      1  0.4318970000000  0.4508990000000  0.5196470000000 1.0
C      1  0.4843720000000  0.4501210000000  0.4339910000000 1.0
C      1  0.5729330000000  0.4448610000000  0.4746510000000 1.0
C      1  0.5178450000000  0.5524900000000  0.5743530000000 1.0
C      1  0.4254550000000  0.5498480000000  0.5290880000000 1.0
C      1  0.4742340000000  0.5463010000000  0.4417440000000 1.0
C      1  0.5748710000000  0.5627470000000  0.4649770000000 1.0
C      1  0.4818570000000  0.5853540000000  0.4377050000000 1.0
C      1  0.5627450000000  0.6023470000000  0.4959880000000 1.0
C      1  0.5002340000000  0.5988280000000  0.5522280000000 1.0
C      1  0.4474180000000  0.5975300000000  0.5096720000000 1.0
C      1  0.4829720000000  0.4075970000000  0.4397250000000 1.0
C      1  0.5558450000000  0.3959770000000  0.4862070000000 1.0
C      1  0.5097610000000  0.3937770000000  0.5551380000000 1.0
C      1  0.4462070000000  0.4069480000000  0.5170450000000 1.0
C      1  0.4187980000000  0.4700420000000  0.4696110000000 1.0
C      1  0.5264800000000  0.4713530000000  0.4196260000000 1.0
C      1  0.5842250000000  0.4696020000000  0.5215830000000 1.0
C      1  0.4752670000000  0.4693180000000  0.5821310000000 1.0
C      1  0.4159520000000  0.5258980000000  0.4740080000000 1.0
C      1  0.5208810000000  0.5257030000000  0.4224460000000 1.0
C      1  0.5864350000000  0.5275860000000  0.5254720000000 1.0
C      1  0.4722340000000  0.5263390000000  0.5858000000000 1.0
C      1  0.4620420000000  0.4827230000000  0.6096360000000 1.0
C      1  0.3974170000000  0.4861200000000  0.4498710000000 1.0
C      1  0.5389940000000  0.4879170000000  0.3940730000000 1.0
C      1  0.6090710000000  0.4834730000000  0.5393760000000 1.0
C      1  0.4594100000000  0.5081640000000  0.6105440000000 1.0
C      1  0.3955220000000  0.5114850000000  0.4526090000000 1.0
C      1  0.5385560000000  0.5132840000000  0.3964370000000 1.0
C      1  0.6085190000000  0.5088250000000  0.5432360000000 1.0
C      1  0.5563630000000  0.4743380000000  0.4710550000000 1.0
C      1  0.5173990000000  0.5001280000000  0.5660570000000 1.0
C      1  0.4307730000000  0.4850900000000  0.5166780000000 1.0
C      1  0.4808510000000  0.4820120000000  0.4452460000000 1.0
C      1  0.5658500000000  0.5024140000000  0.4826640000000 1.0
C      1  0.5304020000000  0.5274150000000  0.5551130000000 1.0
C      1  0.4351890000000  0.5188360000000  0.5188510000000 1.0
C      1  0.4735090000000  0.5122960000000  0.4416490000000 1.0
C      1  0.4820680000000  0.5587670000000  0.4827160000000 1.0
C      1  0.5228880000000  0.5665690000000  0.4815060000000 1.0
C      1  0.5264510000000  0.5714870000000  0.5373860000000 1.0
C      1  0.4749250000000  0.5771480000000  0.5301680000000 1.0
C      1  0.4785210000000  0.4459210000000  0.4731280000000 1.0
C      1  0.5204850000000  0.4319200000000  0.4864180000000 1.0
C      1  0.5178150000000  0.4338940000000  0.5283170000000 1.0
C      1  0.4793610000000  0.4410870000000  0.5207220000000 1.0
C      1  0.4698530000000  0.4894210000000  0.5350640000000 1.0
C      1  0.4646690000000  0.4906880000000  0.4801210000000 1.0
C      1  0.5180190000000  0.4846440000000  0.4666690000000 1.0
C      1  0.5341780000000  0.4887500000000  0.5212680000000 1.0
C      1  0.4723100000000  0.5206850000000  0.5336090000000 1.0
C      1  0.4680880000000  0.5202070000000  0.4803850000000 1.0
C      1  0.5206720000000  0.5173460000000  0.4678970000000 1.0
C      1  0.5326580000000  0.5193690000000  0.5154900000000 1.0
C      1  0.5757230000000  0.4380370000000  0.5272610000000 1.0
C      1  0.4705030000000  0.4377760000000  0.5699260000000 1.0
C      1  0.4297410000000  0.4392130000000  0.4667300000000 1.0
C      1  0.5341290000000  0.4398490000000  0.4308690000000 1.0
C      1  0.5776270000000  0.5585290000000  0.5266670000000 1.0
C      1  0.4654770000000  0.5581810000000  0.5768920000000 1.0
C      1  0.4229050000000  0.5590960000000  0.4740890000000 1.0
C      1  0.5290220000000  0.5584560000000  0.4290640000000 1.0
C      1  0.5348800000000  0.4740030000000  0.4942770000000 1.0
C      1  0.5038180000000  0.4900670000000  0.5365460000000 1.0
C      1  0.4613980000000  0.4786240000000  0.5080370000000 1.0
C      1  0.4931910000000  0.4745610000000  0.4841560000000 1.0
C      1  0.5438310000000  0.5224360000000  0.4873540000000 1.0
C      1  0.5048520000000  0.5243790000000  0.5344290000000 1.0
C      1  0.4605480000000  0.5318820000000  0.5078180000000 1.0
C      1  0.4989170000000  0.5302950000000  0.4906100000000 1.0
C      1  0.4226690000000  0.4702810000000  0.5529090000000 1.0
C      1  0.4501960000000  0.4693590000000  0.4231730000000 1.0
C      1  0.5821390000000  0.4732180000000  0.4407870000000 1.0
C      1  0.5455180000000  0.4701700000000  0.5662850000000 1.0
C      1  0.4226620000000  0.5281060000000  0.5550940000000 1.0
C      1  0.4463050000000  0.5358030000000  0.4254140000000 1.0
C      1  0.5703030000000  0.5316340000000  0.4520480000000 1.0
C      1  0.5510380000000  0.5487960000000  0.5807440000000 1.0
C      1  0.4428260000000  0.4439690000000  0.5510910000000 1.0
C      1  0.4520880000000  0.4414980000000  0.4410230000000 1.0
C      1  0.5638580000000  0.4460500000000  0.4418120000000 1.0
C      1  0.5494480000000  0.4408300000000  0.5487130000000 1.0
C      1  0.4388080000000  0.5573070000000  0.5595900000000 1.0
C      1  0.4445110000000  0.5616460000000  0.4479360000000 1.0
C      1  0.5591360000000  0.5589560000000  0.4350730000000 1.0
C      1  0.5531120000000  0.5616460000000  0.5500730000000 1.0
C      1  0.4002930000000  0.4808720000000  0.5295760000000 1.0
C      1  0.4689630000000  0.4830990000000  0.4071200000000 1.0
C      1  0.5956960000000  0.4834650000000  0.4640490000000 1.0
C      1  0.5354090000000  0.4897320000000  0.5914820000000 1.0
C      1  0.4043870000000  0.5133650000000  0.5304870000000 1.0
C      1  0.4689820000000  0.5157380000000  0.4093610000000 1.0
C      1  0.5922760000000  0.5148850000000  0.4678120000000 1.0
C      1  0.5341500000000  0.5225980000000  0.5945340000000 1.0
C      1  0.4963250000000  0.5729020000000  0.5730290000000 1.0
C      1  0.4250640000000  0.5707580000000  0.5066760000000 1.0
C      1  0.4963220000000  0.5599560000000  0.4197820000000 1.0
C      1  0.5817920000000  0.5751040000000  0.4961140000000 1.0
C      1  0.5009690000000  0.4220010000000  0.5719390000000 1.0
C      1  0.4241490000000  0.4252420000000  0.4987220000000 1.0
C      1  0.5046170000000  0.4258890000000  0.4213390000000 1.0
C      1  0.5735470000000  0.4228850000000  0.4957040000000 1.0
C      1  0.5584940000000  0.4821170000000  0.5399800000000 1.0
C      1  0.4522330000000  0.4817670000000  0.5604280000000 1.0
C      1  0.4486190000000  0.4784170000000  0.4555410000000 1.0
C      1  0.5501000000000  0.4839830000000  0.4405770000000 1.0
C      1  0.5573770000000  0.5160830000000  0.5388890000000 1.0
C      1  0.4528130000000  0.5154230000000  0.5601000000000 1.0
C      1  0.4458120000000  0.5234320000000  0.4579310000000 1.0
C      1  0.5444440000000  0.5149860000000  0.4445120000000 1.0
C      1  0.5524460000000  0.5661390000000  0.5081620000000 1.0
C      1  0.4686070000000  0.5872530000000  0.5595410000000 1.0
C      1  0.4476820000000  0.5788140000000  0.4825990000000 1.0
C      1  0.5140430000000  0.5835100000000  0.4466460000000 1.0
C      1  0.5517350000000  0.4148950000000  0.5205490000000 1.0
C      1  0.4792840000000  0.4138680000000  0.5473840000000 1.0
C      1  0.4508550000000  0.4182110000000  0.4799710000000 1.0
C      1  0.5195700000000  0.4163600000000  0.4506890000000 1.0
C      1  0.5099970000000  0.4963470000000  0.4357640000000 1.0
C      1  0.4874870000000  0.4993390000000  0.5718590000000 1.0
C      1  0.5781030000000  0.4993320000000  0.5091940000000 1.0
C      1  0.4256650000000  0.4967660000000  0.4865510000000 1.0
C      1  0.5144950000000  0.5539640000000  0.5094310000000 1.0
C      1  0.5032910000000  0.4519570000000  0.5036480000000 1.0
C      1  0.4988950000000  0.4991200000000  0.5041820000000 1.0
END
