TITL C-2622965-4321-280 0.000664503437271993 125000 -465.433281511596 0 0 92 (C1) n - 1
REM
REM in /nfs/bkarasulu/CARBON/AIRSS/Generating-Clusters/AIREBO/with-SteepDescent/Higher-Symm/SD-CG/HFTN-CG
REM
REM
REM
REM
REM
REM ./C.cell (b20cbc046b6831c77cfcea5457e17084)
REM
REM compiler GCC version 9.2.1 20190827 (Red Hat 9.2.1-1)
REM options -cpp -mtune=generic -march=x86-64 -g -O0 -fpre-include=/usr/include/finclude/math-vector-fortran.h
REM seed -809199753 -1956106271 904250052 1817551581 -1374945247 276975703 -1390451686 -232041465 -1222140726 -1361776489 859248447 1617073771 823488465 859952959 269129991 -220663104 1898163186 1467803763 309138403 1202929348 1438956377 1640548034 -1512861424 -1194738006 -1317535361 -98918468 -1406992546 1192100457 1466072038 1021485547 1773816180 -1099352121 -879700011
REM
CELL 1.54180   50.00000   50.00000   50.00000   90.00000   90.00000   90.00000
LATT -1
SFAC C  
C      1  0.5482940000000  0.5304630000000  0.4989660000000 1.0
C      1  0.5409190000000  0.4673660000000  0.5029750000000 1.0
C      1  0.4659620000000  0.4869660000000  0.5169700000000 1.0
C      1  0.4604340000000  0.5250760000000  0.4831340000000 1.0
C      1  0.5283060000000  0.5642650000000  0.5064530000000 1.0
C      1  0.5220370000000  0.4394270000000  0.4985840000000 1.0
C      1  0.5546360000000  0.5609820000000  0.4851790000000 1.0
C      1  0.5517550000000  0.4415690000000  0.5250840000000 1.0
C      1  0.4151120000000  0.5167690000000  0.5090570000000 1.0
C      1  0.4378600000000  0.4613040000000  0.4917860000000 1.0
C      1  0.5156960000000  0.5263730000000  0.5051110000000 1.0
C      1  0.5106810000000  0.4786060000000  0.4922200000000 1.0
C      1  0.4969050000000  0.4867490000000  0.5201110000000 1.0
C      1  0.4889860000000  0.5246260000000  0.4755660000000 1.0
C      1  0.4557170000000  0.4854710000000  0.4845480000000 1.0
C      1  0.4453590000000  0.5259770000000  0.5136070000000 1.0
C      1  0.5366390000000  0.5140460000000  0.4733420000000 1.0
C      1  0.5365160000000  0.4871830000000  0.5284830000000 1.0
C      1  0.4968460000000  0.4101930000000  0.4669730000000 1.0
C      1  0.4912440000000  0.5894800000000  0.5285050000000 1.0
C      1  0.5336330000000  0.4211480000000  0.5321310000000 1.0
C      1  0.5359130000000  0.5875200000000  0.4750740000000 1.0
C      1  0.5438000000000  0.5008670000000  0.5587450000000 1.0
C      1  0.5434050000000  0.5028390000000  0.4419630000000 1.0
C      1  0.5095440000000  0.4565460000000  0.5253920000000 1.0
C      1  0.5112960000000  0.5497470000000  0.4807980000000 1.0
C      1  0.4458700000000  0.5568790000000  0.5022730000000 1.0
C      1  0.4413220000000  0.4371420000000  0.5113960000000 1.0
C      1  0.5995800000000  0.5186930000000  0.4976840000000 1.0
C      1  0.5919610000000  0.4637130000000  0.4952370000000 1.0
C      1  0.5130590000000  0.4281770000000  0.5527270000000 1.0
C      1  0.5202560000000  0.5769970000000  0.4529660000000 1.0
C      1  0.4231670000000  0.5391540000000  0.4838940000000 1.0
C      1  0.4241070000000  0.4685890000000  0.5190060000000 1.0
C      1  0.5285420000000  0.4571960000000  0.5536050000000 1.0
C      1  0.5281890000000  0.5462430000000  0.4514870000000 1.0
C      1  0.4849460000000  0.4361440000000  0.5370110000000 1.0
C      1  0.4904890000000  0.5663590000000  0.4591380000000 1.0
C      1  0.4840860000000  0.5914640000000  0.4894140000000 1.0
C      1  0.4929260000000  0.4000680000000  0.5098230000000 1.0
C      1  0.5124290000000  0.5940360000000  0.5022090000000 1.0
C      1  0.5188200000000  0.4086970000000  0.5093990000000 1.0
C      1  0.4665900000000  0.4997350000000  0.4349190000000 1.0
C      1  0.4614100000000  0.5078560000000  0.5613200000000 1.0
C      1  0.5713020000000  0.5087440000000  0.5052930000000 1.0
C      1  0.5661380000000  0.4802510000000  0.4893790000000 1.0
C      1  0.5587400000000  0.5370210000000  0.4613690000000 1.0
C      1  0.5594790000000  0.4672890000000  0.5437460000000 1.0
C      1  0.4125000000000  0.5121350000000  0.4215710000000 1.0
C      1  0.4080760000000  0.4975920000000  0.5812060000000 1.0
C      1  0.4687400000000  0.5673160000000  0.5257700000000 1.0
C      1  0.4830830000000  0.4296450000000  0.4848110000000 1.0
C      1  0.4907110000000  0.4559940000000  0.4801340000000 1.0
C      1  0.4860420000000  0.5417880000000  0.5114320000000 1.0
C      1  0.5133710000000  0.5122580000000  0.5354390000000 1.0
C      1  0.5063920000000  0.4999370000000  0.4665800000000 1.0
C      1  0.5620610000000  0.4797170000000  0.4590050000000 1.0
C      1  0.5681240000000  0.5101980000000  0.5366640000000 1.0
C      1  0.4421680000000  0.5163880000000  0.4378700000000 1.0
C      1  0.4364020000000  0.4923820000000  0.5624830000000 1.0
C      1  0.5110930000000  0.5045730000000  0.4332260000000 1.0
C      1  0.5107990000000  0.4953040000000  0.5647990000000 1.0
C      1  0.5111330000000  0.5941680000000  0.5556830000000 1.0
C      1  0.4912280000000  0.3878270000000  0.4541100000000 1.0
C      1  0.4862570000000  0.5308530000000  0.5581950000000 1.0
C      1  0.4962490000000  0.4605720000000  0.4389240000000 1.0
C      1  0.5136780000000  0.5418620000000  0.5521650000000 1.0
C      1  0.5254990000000  0.4484680000000  0.4465510000000 1.0
C      1  0.4448330000000  0.5403650000000  0.4577090000000 1.0
C      1  0.4482370000000  0.4716630000000  0.5410750000000 1.0
C      1  0.4868150000000  0.4956660000000  0.5771950000000 1.0
C      1  0.4882590000000  0.5060900000000  0.4196210000000 1.0
C      1  0.4067550000000  0.4959910000000  0.5502030000000 1.0
C      1  0.4163870000000  0.4976520000000  0.4497180000000 1.0
C      1  0.5146270000000  0.5668590000000  0.5374770000000 1.0
C      1  0.5197950000000  0.4295210000000  0.4692960000000 1.0
C      1  0.4328280000000  0.5067860000000  0.4754140000000 1.0
C      1  0.4064920000000  0.4940720000000  0.5225200000000 1.0
C      1  0.4706830000000  0.5179350000000  0.5301880000000 1.0
C      1  0.4785660000000  0.4805600000000  0.4600060000000 1.0
C      1  0.5597180000000  0.4492080000000  0.4443200000000 1.0
C      1  0.5603380000000  0.5372710000000  0.5456170000000 1.0
C      1  0.5420960000000  0.4718210000000  0.4282400000000 1.0
C      1  0.5396520000000  0.5337280000000  0.5664350000000 1.0
C      1  0.4690580000000  0.4237480000000  0.5123630000000 1.0
C      1  0.4740560000000  0.5624540000000  0.4871980000000 1.0
C      1  0.5546820000000  0.5581190000000  0.5270320000000 1.0
C      1  0.5782570000000  0.4301220000000  0.4399170000000 1.0
C      1  0.5506130000000  0.5334210000000  0.4289680000000 1.0
C      1  0.5501890000000  0.4719100000000  0.5755100000000 1.0
C      1  0.4595150000000  0.5636870000000  0.4499980000000 1.0
C      1  0.4630370000000  0.4503680000000  0.5533110000000 1.0
END
