TITL C-2622967-6265-662 -0.000242209747987213 125000 -983.788680989659 0 0 181 (C1) n - 1
REM
REM in /nfs/bkarasulu/CARBON/AIRSS/Generating-Clusters/AIREBO/with-SteepDescent/Higher-Symm/SD-CG/HFTN-CG
REM
REM
REM
REM
REM
REM ./C.cell (b20cbc046b6831c77cfcea5457e17084)
REM
REM compiler GCC version 9.2.1 20190827 (Red Hat 9.2.1-1)
REM options -cpp -mtune=generic -march=x86-64 -g -O0 -fpre-include=/usr/include/finclude/math-vector-fortran.h
REM seed 460122576 2024265163 1133472802 -979468428 242224955 -1024050662 1855906901 -1418772177 -1260293080 -1315455681 -1218119593 -334502600 -997675215 1402032630 177565405 1948132946 -1574310091 812263675 1636528946 1621784054 -888079295 -752830092 1715411178 750947683 -702088507 937074827 -1458816979 821187277 1006298557 -1290644830 1450572266 -2098010092 -59620452
REM
CELL 1.54180   50.00000   50.00000   50.00000   90.00000   90.00000   90.00000
LATT -1
SFAC C  
C      1  0.4932330000000  0.5266840000000  0.4658730000000 1.0
C      1  0.4753410000000  0.4977570000000  0.4659700000000 1.0
C      1  0.4991380000000  0.4749890000000  0.4730940000000 1.0
C      1  0.5229530000000  0.4799870000000  0.4536730000000 1.0
C      1  0.5261410000000  0.5193960000000  0.4593220000000 1.0
C      1  0.5020020000000  0.5184520000000  0.5460970000000 1.0
C      1  0.5158610000000  0.4997000000000  0.5213350000000 1.0
C      1  0.5047340000000  0.4736370000000  0.5383970000000 1.0
C      1  0.4742890000000  0.4900170000000  0.5421760000000 1.0
C      1  0.4740570000000  0.5223470000000  0.5316100000000 1.0
C      1  0.4833020000000  0.4800690000000  0.5713370000000 1.0
C      1  0.5137820000000  0.4873270000000  0.5681980000000 1.0
C      1  0.5206070000000  0.5121600000000  0.5906530000000 1.0
C      1  0.4908390000000  0.5190980000000  0.5757130000000 1.0
C      1  0.4680690000000  0.4993900000000  0.5915460000000 1.0
C      1  0.5104530000000  0.4770030000000  0.4233270000000 1.0
C      1  0.4803770000000  0.4836240000000  0.4200260000000 1.0
C      1  0.4758260000000  0.5076050000000  0.4357840000000 1.0
C      1  0.4995590000000  0.5281150000000  0.4317310000000 1.0
C      1  0.5246690000000  0.5076400000000  0.4274290000000 1.0
C      1  0.4532320000000  0.4433370000000  0.4180850000000 1.0
C      1  0.5406090000000  0.4359260000000  0.4037290000000 1.0
C      1  0.5632070000000  0.5151180000000  0.4073130000000 1.0
C      1  0.5121850000000  0.5732610000000  0.3906030000000 1.0
C      1  0.4304670000000  0.5322550000000  0.4102040000000 1.0
C      1  0.5427300000000  0.4460730000000  0.5831490000000 1.0
C      1  0.4584210000000  0.4456030000000  0.5965720000000 1.0
C      1  0.4210900000000  0.5249320000000  0.5871940000000 1.0
C      1  0.4983690000000  0.5688080000000  0.5934510000000 1.0
C      1  0.5668510000000  0.5371280000000  0.6138400000000 1.0
C      1  0.5882680000000  0.4522070000000  0.4827980000000 1.0
C      1  0.5842650000000  0.5710140000000  0.5133870000000 1.0
C      1  0.4606260000000  0.5979180000000  0.4875120000000 1.0
C      1  0.4008200000000  0.4764500000000  0.4990460000000 1.0
C      1  0.4913650000000  0.3921220000000  0.4980270000000 1.0
C      1  0.4090180000000  0.4460990000000  0.4937030000000 1.0
C      1  0.4305220000000  0.5896880000000  0.4943720000000 1.0
C      1  0.5637320000000  0.5907800000000  0.5063550000000 1.0
C      1  0.6104620000000  0.4731610000000  0.4887960000000 1.0
C      1  0.5215640000000  0.3928760000000  0.5053570000000 1.0
C      1  0.4516940000000  0.5593750000000  0.5660150000000 1.0
C      1  0.4207710000000  0.4719420000000  0.5779280000000 1.0
C      1  0.5037070000000  0.4287050000000  0.5652140000000 1.0
C      1  0.5870900000000  0.4777070000000  0.5635960000000 1.0
C      1  0.5452800000000  0.5737610000000  0.5748620000000 1.0
C      1  0.5552320000000  0.5610640000000  0.4280820000000 1.0
C      1  0.5820320000000  0.4769180000000  0.4183840000000 1.0
C      1  0.4952910000000  0.4211100000000  0.4300950000000 1.0
C      1  0.4225850000000  0.4821360000000  0.4239450000000 1.0
C      1  0.4484960000000  0.5680930000000  0.4175610000000 1.0
C      1  0.5415550000000  0.4795760000000  0.5807200000000 1.0
C      1  0.5483940000000  0.5222970000000  0.5893250000000 1.0
C      1  0.4751120000000  0.5481100000000  0.5818520000000 1.0
C      1  0.4394290000000  0.4974000000000  0.5891170000000 1.0
C      1  0.4795080000000  0.4504020000000  0.5758770000000 1.0
C      1  0.4642430000000  0.4641540000000  0.4364900000000 1.0
C      1  0.4600100000000  0.5318240000000  0.4270950000000 1.0
C      1  0.5039860000000  0.5553210000000  0.4183520000000 1.0
C      1  0.5492640000000  0.4860500000000  0.4181710000000 1.0
C      1  0.5120320000000  0.4479260000000  0.4166840000000 1.0
C      1  0.5426920000000  0.4686820000000  0.4864330000000 1.0
C      1  0.5465400000000  0.5338800000000  0.5021070000000 1.0
C      1  0.4908830000000  0.5545900000000  0.4916610000000 1.0
C      1  0.4452780000000  0.4908600000000  0.5102260000000 1.0
C      1  0.4771580000000  0.4385230000000  0.5082090000000 1.0
C      1  0.4649100000000  0.4695290000000  0.5005520000000 1.0
C      1  0.4472710000000  0.5393580000000  0.5075880000000 1.0
C      1  0.5109550000000  0.5589140000000  0.5156240000000 1.0
C      1  0.5624770000000  0.5095830000000  0.4949500000000 1.0
C      1  0.5260030000000  0.4426070000000  0.4988460000000 1.0
C      1  0.4125410000000  0.4494930000000  0.5277350000000 1.0
C      1  0.5174850000000  0.4158410000000  0.5301840000000 1.0
C      1  0.6021530000000  0.4852540000000  0.5130300000000 1.0
C      1  0.5448880000000  0.5851730000000  0.5305220000000 1.0
C      1  0.4258670000000  0.5844030000000  0.5209300000000 1.0
C      1  0.5766440000000  0.4755570000000  0.4669530000000 1.0
C      1  0.4848920000000  0.4118400000000  0.4794700000000 1.0
C      1  0.4242000000000  0.4758220000000  0.4720820000000 1.0
C      1  0.4585060000000  0.5714650000000  0.4690860000000 1.0
C      1  0.5490430000000  0.5544910000000  0.4794750000000 1.0
C      1  0.5349270000000  0.5639090000000  0.4100380000000 1.0
C      1  0.4576130000000  0.5429690000000  0.3954520000000 1.0
C      1  0.4409980000000  0.4705810000000  0.4049550000000 1.0
C      1  0.5142860000000  0.4171380000000  0.4024470000000 1.0
C      1  0.5391630000000  0.5007650000000  0.3880190000000 1.0
C      1  0.4870440000000  0.5456800000000  0.6135100000000 1.0
C      1  0.5530890000000  0.5551620000000  0.5924590000000 1.0
C      1  0.5331440000000  0.4636770000000  0.6088390000000 1.0
C      1  0.4684440000000  0.4501840000000  0.6225640000000 1.0
C      1  0.4061970000000  0.4965070000000  0.5962490000000 1.0
C      1  0.4532420000000  0.5766030000000  0.5395540000000 1.0
C      1  0.4177570000000  0.4761890000000  0.5481450000000 1.0
C      1  0.4889660000000  0.4073210000000  0.5432700000000 1.0
C      1  0.5851470000000  0.4659580000000  0.5353380000000 1.0
C      1  0.5609120000000  0.5817570000000  0.5531900000000 1.0
C      1  0.5509170000000  0.5758940000000  0.4551230000000 1.0
C      1  0.5953360000000  0.4880270000000  0.4429880000000 1.0
C      1  0.5064270000000  0.4177210000000  0.4581420000000 1.0
C      1  0.4127840000000  0.4658800000000  0.4448260000000 1.0
C      1  0.4375980000000  0.5724150000000  0.4462570000000 1.0
C      1  0.4336610000000  0.5239200000000  0.5347390000000 1.0
C      1  0.4724420000000  0.4328350000000  0.5493980000000 1.0
C      1  0.5547770000000  0.4537190000000  0.5344260000000 1.0
C      1  0.5538120000000  0.5180490000000  0.5435390000000 1.0
C      1  0.4970680000000  0.5700100000000  0.5423220000000 1.0
C      1  0.5764390000000  0.5126280000000  0.4533200000000 1.0
C      1  0.5474300000000  0.4496610000000  0.4585910000000 1.0
C      1  0.4634410000000  0.4371400000000  0.4771290000000 1.0
C      1  0.4374440000000  0.5276320000000  0.4598450000000 1.0
C      1  0.4983220000000  0.5663850000000  0.4606420000000 1.0
C      1  0.5495320000000  0.4960840000000  0.4674920000000 1.0
C      1  0.5261510000000  0.5523550000000  0.4568250000000 1.0
C      1  0.4639250000000  0.5390780000000  0.4779200000000 1.0
C      1  0.4570260000000  0.4691420000000  0.4676010000000 1.0
C      1  0.5156340000000  0.4456440000000  0.4683250000000 1.0
C      1  0.4414890000000  0.4944080000000  0.5397580000000 1.0
C      1  0.4723980000000  0.5541780000000  0.5250640000000 1.0
C      1  0.5279000000000  0.5311740000000  0.5259950000000 1.0
C      1  0.5371110000000  0.4733470000000  0.5185740000000 1.0
C      1  0.5035850000000  0.4454420000000  0.5210390000000 1.0
C      1  0.5427040000000  0.4172670000000  0.4995220000000 1.0
C      1  0.5907280000000  0.5122800000000  0.5080340000000 1.0
C      1  0.5239840000000  0.5880630000000  0.5038600000000 1.0
C      1  0.4176190000000  0.5519170000000  0.4959490000000 1.0
C      1  0.4391340000000  0.4486940000000  0.5082220000000 1.0
C      1  0.4555510000000  0.4122760000000  0.5093830000000 1.0
C      1  0.4220000000000  0.4984670000000  0.4938880000000 1.0
C      1  0.4878100000000  0.6048030000000  0.5053190000000 1.0
C      1  0.5768810000000  0.5477030000000  0.4957630000000 1.0
C      1  0.5817230000000  0.4226620000000  0.4951790000000 1.0
C      1  0.5750140000000  0.4284050000000  0.4389180000000 1.0
C      1  0.5996090000000  0.5436400000000  0.4493630000000 1.0
C      1  0.5042790000000  0.5986450000000  0.4468930000000 1.0
C      1  0.4035300000000  0.5245930000000  0.4534320000000 1.0
C      1  0.4536640000000  0.4137940000000  0.4550590000000 1.0
C      1  0.4289340000000  0.4272830000000  0.5639240000000 1.0
C      1  0.4050840000000  0.5402820000000  0.5407630000000 1.0
C      1  0.5084450000000  0.6012400000000  0.5492250000000 1.0
C      1  0.5881130000000  0.5249530000000  0.5626590000000 1.0
C      1  0.5586850000000  0.4080190000000  0.5508470000000 1.0
C      1  0.5143480000000  0.4772710000000  0.6244250000000 1.0
C      1  0.5147280000000  0.5056130000000  0.6193450000000 1.0
C      1  0.4915410000000  0.5224900000000  0.6281340000000 1.0
C      1  0.4755210000000  0.4981050000000  0.6206360000000 1.0
C      1  0.4856060000000  0.4719010000000  0.6284010000000 1.0
C      1  0.4665840000000  0.4888660000000  0.3919220000000 1.0
C      1  0.4713010000000  0.5202190000000  0.3795880000000 1.0
C      1  0.4953300000000  0.5231650000000  0.3666540000000 1.0
C      1  0.5168940000000  0.5025030000000  0.3727320000000 1.0
C      1  0.4922520000000  0.4836480000000  0.3711510000000 1.0
C      1  0.3975480000000  0.5552760000000  0.5191090000000 1.0
C      1  0.4443250000000  0.4300120000000  0.5361350000000 1.0
C      1  0.5625420000000  0.4225590000000  0.5232520000000 1.0
C      1  0.5829310000000  0.5280120000000  0.5330890000000 1.0
C      1  0.5117970000000  0.6138420000000  0.5226580000000 1.0
C      1  0.5935960000000  0.5280660000000  0.4779780000000 1.0
C      1  0.5664910000000  0.4229000000000  0.4669960000000 1.0
C      1  0.4445590000000  0.4023290000000  0.4810660000000 1.0
C      1  0.4164160000000  0.5242440000000  0.4834010000000 1.0
C      1  0.5022730000000  0.5949810000000  0.4786220000000 1.0
C      1  0.4189280000000  0.5742410000000  0.4720140000000 1.0
C      1  0.4027470000000  0.4435570000000  0.4624550000000 1.0
C      1  0.5296550000000  0.4010470000000  0.4731380000000 1.0
C      1  0.6190260000000  0.4839880000000  0.4650820000000 1.0
C      1  0.5490310000000  0.5942600000000  0.4813070000000 1.0
C      1  0.5863690000000  0.5722740000000  0.5422700000000 1.0
C      1  0.5976890000000  0.4455800000000  0.5147060000000 1.0
C      1  0.4753820000000  0.3895630000000  0.5226640000000 1.0
C      1  0.3922110000000  0.4812960000000  0.5276970000000 1.0
C      1  0.4609000000000  0.6025190000000  0.5217080000000 1.0
C      1  0.5726250000000  0.5359880000000  0.4296460000000 1.0
C      1  0.4765170000000  0.5604210000000  0.4352240000000 1.0
C      1  0.4251660000000  0.5114880000000  0.4324690000000 1.0
C      1  0.4644520000000  0.4197180000000  0.4297420000000 1.0
C      1  0.5568500000000  0.4536100000000  0.4250950000000 1.0
C      1  0.4282910000000  0.5406690000000  0.5636190000000 1.0
C      1  0.5154380000000  0.5769120000000  0.5702840000000 1.0
C      1  0.5653530000000  0.5011010000000  0.5709900000000 1.0
C      1  0.5355240000000  0.4327350000000  0.5538820000000 1.0
C      1  0.4329520000000  0.4454460000000  0.5841390000000 1.0
C      1  0.4965490000000  0.4908370000000  0.4990200000000 1.0
END
