TITL C-2622956-4641-394 -0.00416468497834046 125000 -66.9165025047716 0 0 14 (C1) n - 1
REM
REM in /nfs/bkarasulu/CARBON/AIRSS/Generating-Clusters/AIREBO/with-SteepDescent/Higher-Symm/SD-CG/HFTN-CG
REM
REM
REM
REM
REM
REM ./C.cell (b20cbc046b6831c77cfcea5457e17084)
REM
REM compiler GCC version 9.2.1 20190827 (Red Hat 9.2.1-1)
REM options -cpp -mtune=generic -march=x86-64 -g -O0 -fpre-include=/usr/include/finclude/math-vector-fortran.h
REM seed 1716218982 -1770036141 838290831 600361332 -98358621 -1903767767 1314845176 933154675 -1254876922 1891880480 1624429424 -1678594949 -1240165547 1539521608 -1095418304 839931826 465371904 -579462760 259089300 878689651 -1580130759 1467149187 -548130560 -374589961 146947585 151960351 361604884 -2129645424 839294061 176700594 633978602 -1656621399 -1172970020
REM
CELL 1.54180   50.00000   50.00000   50.00000   90.00000   90.00000   90.00000
LATT -1
SFAC C  
C      1  0.5146340000000  0.4613320000000  0.5194540000000 1.0
C      1  0.4824010000000  0.4587440000000  0.5184320000000 1.0
C      1  0.4780450000000  0.4480690000000  0.4905140000000 1.0
C      1  0.5001240000000  0.4627930000000  0.4692430000000 1.0
C      1  0.5224190000000  0.4509360000000  0.4920130000000 1.0
C      1  0.5305000000000  0.5549640000000  0.4938250000000 1.0
C      1  0.5256100000000  0.5636740000000  0.5198660000000 1.0
C      1  0.5023110000000  0.5532340000000  0.5310910000000 1.0
C      1  0.4877130000000  0.5359840000000  0.5149660000000 1.0
C      1  0.5118320000000  0.5374090000000  0.4831410000000 1.0
C      1  0.4979470000000  0.4820500000000  0.4971800000000 1.0
C      1  0.4959430000000  0.5096730000000  0.4947340000000 1.0
C      1  0.5020030000000  0.4292160000000  0.4772350000000 1.0
C      1  0.4786530000000  0.5370500000000  0.4831620000000 1.0
END
