TITL C-2622961-1971-731 -0.000785398110779107 125000 -400.100471005525 0 0 78 (C1) n - 1
REM
REM in /nfs/bkarasulu/CARBON/AIRSS/Generating-Clusters/AIREBO/with-SteepDescent/Higher-Symm/SD-CG/HFTN-CG
REM
REM
REM
REM
REM
REM ./C.cell (b20cbc046b6831c77cfcea5457e17084)
REM
REM compiler GCC version 9.2.1 20190827 (Red Hat 9.2.1-1)
REM options -cpp -mtune=generic -march=x86-64 -g -O0 -fpre-include=/usr/include/finclude/math-vector-fortran.h
REM seed -1233805065 1018517608 -1993679324 -2039779562 -1938535210 66564173 1346118016 725952774 533852983 -110236079 684565347 861346776 -1474597693 2045450439 -2033267832 392735248 -53890732 1763980110 620067737 497405289 -2051998172 -599589255 -1055619426 -1897290427 1004222028 730097716 -1389229818 723492046 196830930 -605616497 1593334554 -165903977 -2085880082
REM
CELL 1.54180   50.00000   50.00000   50.00000   90.00000   90.00000   90.00000
LATT -1
SFAC C  
C      1  0.5297810000000  0.4948260000000  0.4772470000000 1.0
C      1  0.5332420000000  0.5025280000000  0.5356770000000 1.0
C      1  0.4832380000000  0.4963070000000  0.5397890000000 1.0
C      1  0.4350660000000  0.4981140000000  0.5035090000000 1.0
C      1  0.4801800000000  0.5004940000000  0.4587380000000 1.0
C      1  0.4835120000000  0.4634170000000  0.4404520000000 1.0
C      1  0.5590390000000  0.4585790000000  0.4732740000000 1.0
C      1  0.5476940000000  0.4654610000000  0.5353780000000 1.0
C      1  0.4827350000000  0.4587120000000  0.5556690000000 1.0
C      1  0.4324440000000  0.4486230000000  0.5032360000000 1.0
C      1  0.5362180000000  0.4825390000000  0.5083070000000 1.0
C      1  0.4956430000000  0.4701930000000  0.5292090000000 1.0
C      1  0.4552600000000  0.4722700000000  0.5120070000000 1.0
C      1  0.4697690000000  0.4725430000000  0.4678000000000 1.0
C      1  0.5350270000000  0.4683300000000  0.4566110000000 1.0
C      1  0.4785420000000  0.5471750000000  0.4352220000000 1.0
C      1  0.5664850000000  0.5279640000000  0.4573210000000 1.0
C      1  0.5622220000000  0.5423170000000  0.5517790000000 1.0
C      1  0.4687800000000  0.5347250000000  0.5698610000000 1.0
C      1  0.4165560000000  0.5480640000000  0.5061760000000 1.0
C      1  0.5734860000000  0.5504050000000  0.4448100000000 1.0
C      1  0.5491830000000  0.5630960000000  0.5301750000000 1.0
C      1  0.4724430000000  0.5627920000000  0.5510210000000 1.0
C      1  0.4385840000000  0.5714880000000  0.5116650000000 1.0
C      1  0.4953000000000  0.5686880000000  0.4533280000000 1.0
C      1  0.5120220000000  0.5101640000000  0.4540580000000 1.0
C      1  0.5519260000000  0.5200840000000  0.5168520000000 1.0
C      1  0.5075440000000  0.5179420000000  0.5496460000000 1.0
C      1  0.4595140000000  0.5103670000000  0.5229320000000 1.0
C      1  0.4623710000000  0.5273600000000  0.4672210000000 1.0
C      1  0.4994560000000  0.4166860000000  0.4741940000000 1.0
C      1  0.5212430000000  0.4056690000000  0.4876350000000 1.0
C      1  0.5276320000000  0.4218490000000  0.5096740000000 1.0
C      1  0.4986920000000  0.4302850000000  0.5240730000000 1.0
C      1  0.4799410000000  0.4254350000000  0.4956920000000 1.0
C      1  0.4318820000000  0.4890320000000  0.4740730000000 1.0
C      1  0.4972820000000  0.4893560000000  0.4234150000000 1.0
C      1  0.5770700000000  0.4838390000000  0.4871680000000 1.0
C      1  0.5519420000000  0.4893980000000  0.5594000000000 1.0
C      1  0.4607240000000  0.4785080000000  0.5675950000000 1.0
C      1  0.5783540000000  0.5721220000000  0.4309710000000 1.0
C      1  0.5232060000000  0.5465510000000  0.5445900000000 1.0
C      1  0.4443470000000  0.5752330000000  0.5423420000000 1.0
C      1  0.4516910000000  0.5513830000000  0.4875800000000 1.0
C      1  0.5158450000000  0.5797460000000  0.4377520000000 1.0
C      1  0.5393870000000  0.4498140000000  0.4996120000000 1.0
C      1  0.5185830000000  0.4496980000000  0.5406020000000 1.0
C      1  0.4676360000000  0.4423830000000  0.5224810000000 1.0
C      1  0.4592590000000  0.4446640000000  0.4835370000000 1.0
C      1  0.5048580000000  0.4417800000000  0.4560930000000 1.0
C      1  0.4388990000000  0.5087120000000  0.4568020000000 1.0
C      1  0.5237240000000  0.5093420000000  0.4239900000000 1.0
C      1  0.5752670000000  0.5089770000000  0.5082380000000 1.0
C      1  0.5079330000000  0.5147490000000  0.5788880000000 1.0
C      1  0.4364540000000  0.5203550000000  0.5426320000000 1.0
C      1  0.4663310000000  0.5081800000000  0.5662530000000 1.0
C      1  0.4165030000000  0.5233710000000  0.5082010000000 1.0
C      1  0.4864560000000  0.5204010000000  0.4322020000000 1.0
C      1  0.5594460000000  0.5073580000000  0.4717640000000 1.0
C      1  0.5652350000000  0.5182440000000  0.5562430000000 1.0
C      1  0.5126300000000  0.5288820000000  0.4892820000000 1.0
C      1  0.5295770000000  0.5441150000000  0.5098730000000 1.0
C      1  0.4854740000000  0.5384160000000  0.5338380000000 1.0
C      1  0.4745740000000  0.5337970000000  0.5045430000000 1.0
C      1  0.4893470000000  0.5455220000000  0.4761300000000 1.0
C      1  0.5163460000000  0.4629990000000  0.4324430000000 1.0
C      1  0.5730820000000  0.4543720000000  0.5039540000000 1.0
C      1  0.5372520000000  0.4597510000000  0.5672280000000 1.0
C      1  0.4519030000000  0.4505640000000  0.5514540000000 1.0
C      1  0.4316860000000  0.4614180000000  0.4727960000000 1.0
C      1  0.4904030000000  0.5862900000000  0.4789350000000 1.0
C      1  0.5136580000000  0.5941680000000  0.4925320000000 1.0
C      1  0.5195310000000  0.5756840000000  0.5175710000000 1.0
C      1  0.4885910000000  0.5768290000000  0.5254210000000 1.0
C      1  0.4698050000000  0.5769650000000  0.4990560000000 1.0
C      1  0.5003490000000  0.5007000000000  0.4932500000000 1.0
C      1  0.5103300000000  0.4537600000000  0.4844770000000 1.0
C      1  0.4860470000000  0.4707780000000  0.4976070000000 1.0
END
