TITL C-2622953-3516-580 -0.023298340745724 125000 -691.14098905869 0 0 128 (C1) n - 1
REM
REM in /nfs/bkarasulu/CARBON/AIRSS/Generating-Clusters/AIREBO/with-SteepDescent/Higher-Symm/SD-CG/HFTN-CG
REM
REM
REM
REM
REM
REM ./C.cell (b20cbc046b6831c77cfcea5457e17084)
REM
REM compiler GCC version 9.2.1 20190827 (Red Hat 9.2.1-1)
REM options -cpp -mtune=generic -march=x86-64 -g -O0 -fpre-include=/usr/include/finclude/math-vector-fortran.h
REM seed -1830472542 2088145504 1505121843 1457713778 -531069645 1171807235 -924365967 342257256 15814415 34432277 1542213135 -84637256 -1024371801 456701866 -255515025 1663289565 1167259791 1335937278 -1197581351 -629947048 427419385 -1831100833 1807249591 -1535762399 -700864316 698040964 -1975945636 -1457575763 114459700 536495441 224363970 900778095 311008572
REM
CELL 1.54180   50.00000   50.00000   50.00000   90.00000   90.00000   90.00000
LATT -1
SFAC C  
C      1  0.5593930000000  0.4617950000000  0.4464790000000 1.0
C      1  0.5509310000000  0.5892540000000  0.5360590000000 1.0
C      1  0.4717580000000  0.4989680000000  0.5972840000000 1.0
C      1  0.4438940000000  0.5559820000000  0.3951320000000 1.0
C      1  0.5631710000000  0.5408850000000  0.5602170000000 1.0
C      1  0.4703210000000  0.4042260000000  0.4617170000000 1.0
C      1  0.5645290000000  0.5551440000000  0.4944400000000 1.0
C      1  0.4485320000000  0.4989590000000  0.5752700000000 1.0
C      1  0.5589530000000  0.5258110000000  0.5307750000000 1.0
C      1  0.5084080000000  0.5031130000000  0.5588570000000 1.0
C      1  0.5615190000000  0.4951620000000  0.5452710000000 1.0
C      1  0.4441320000000  0.5523440000000  0.4708810000000 1.0
C      1  0.4819220000000  0.4646770000000  0.4138180000000 1.0
C      1  0.6051570000000  0.5130000000000  0.5206190000000 1.0
C      1  0.5174540000000  0.5340080000000  0.5698360000000 1.0
C      1  0.5447580000000  0.5771040000000  0.5089280000000 1.0
C      1  0.5989030000000  0.4892480000000  0.4663580000000 1.0
C      1  0.5459200000000  0.5297590000000  0.5794860000000 1.0
C      1  0.4491110000000  0.4238740000000  0.4752060000000 1.0
C      1  0.4883680000000  0.4528510000000  0.4795750000000 1.0
C      1  0.5103170000000  0.5162300000000  0.4466170000000 1.0
C      1  0.5297220000000  0.4597840000000  0.4294610000000 1.0
C      1  0.5531750000000  0.5428190000000  0.4675540000000 1.0
C      1  0.4265200000000  0.5483290000000  0.5213220000000 1.0
C      1  0.5229580000000  0.4245050000000  0.5523370000000 1.0
C      1  0.4490700000000  0.4732910000000  0.4895010000000 1.0
C      1  0.4563790000000  0.5313170000000  0.5693550000000 1.0
C      1  0.5831930000000  0.5315920000000  0.5090600000000 1.0
C      1  0.4394610000000  0.5784690000000  0.5303590000000 1.0
C      1  0.5254340000000  0.5000140000000  0.3879680000000 1.0
C      1  0.5596740000000  0.5686400000000  0.5584840000000 1.0
C      1  0.5226070000000  0.4708600000000  0.4585990000000 1.0
C      1  0.4890680000000  0.4133740000000  0.4391090000000 1.0
C      1  0.4753610000000  0.5435630000000  0.4749890000000 1.0
C      1  0.4120850000000  0.4650360000000  0.4484580000000 1.0
C      1  0.4292760000000  0.5272830000000  0.5408600000000 1.0
C      1  0.5335220000000  0.4542970000000  0.4824420000000 1.0
C      1  0.4874420000000  0.5368620000000  0.5228700000000 1.0
C      1  0.4767840000000  0.4362980000000  0.5183110000000 1.0
C      1  0.4711840000000  0.4921960000000  0.4070540000000 1.0
C      1  0.4954420000000  0.4997750000000  0.5052700000000 1.0
C      1  0.5007890000000  0.5587130000000  0.4807320000000 1.0
C      1  0.4353400000000  0.5439700000000  0.4412870000000 1.0
C      1  0.6070060000000  0.4773830000000  0.4902140000000 1.0
C      1  0.4913890000000  0.4747370000000  0.4577720000000 1.0
C      1  0.5107110000000  0.4814380000000  0.4124270000000 1.0
C      1  0.5507640000000  0.4271300000000  0.4860940000000 1.0
C      1  0.5488920000000  0.4814440000000  0.6145210000000 1.0
C      1  0.4657770000000  0.5572940000000  0.5110680000000 1.0
C      1  0.5492650000000  0.5055540000000  0.5956100000000 1.0
C      1  0.5651750000000  0.5159350000000  0.4848400000000 1.0
C      1  0.4514060000000  0.5447110000000  0.4189720000000 1.0
C      1  0.4451140000000  0.4269850000000  0.5408310000000 1.0
C      1  0.4124580000000  0.4965770000000  0.5218090000000 1.0
C      1  0.5130800000000  0.5409270000000  0.4272770000000 1.0
C      1  0.5342970000000  0.4608120000000  0.5399310000000 1.0
C      1  0.5224560000000  0.5921870000000  0.4627630000000 1.0
C      1  0.4820420000000  0.5723900000000  0.5581050000000 1.0
C      1  0.5345310000000  0.4989530000000  0.4580420000000 1.0
C      1  0.4572080000000  0.5079630000000  0.5373500000000 1.0
C      1  0.5230580000000  0.5419790000000  0.4938530000000 1.0
C      1  0.5443130000000  0.5778630000000  0.4498060000000 1.0
C      1  0.4823250000000  0.5225010000000  0.5503480000000 1.0
C      1  0.4592040000000  0.4522260000000  0.4652910000000 1.0
C      1  0.4669320000000  0.4512630000000  0.4317970000000 1.0
C      1  0.4285950000000  0.4703660000000  0.5330440000000 1.0
C      1  0.5087760000000  0.4252330000000  0.5150130000000 1.0
C      1  0.4808370000000  0.4428560000000  0.5491470000000 1.0
C      1  0.4909630000000  0.5795520000000  0.5058840000000 1.0
C      1  0.5871850000000  0.5139610000000  0.4458160000000 1.0
C      1  0.4229060000000  0.4966380000000  0.5541660000000 1.0
C      1  0.4978700000000  0.5021620000000  0.4736590000000 1.0
C      1  0.5355690000000  0.5475490000000  0.5206290000000 1.0
C      1  0.5397330000000  0.4923560000000  0.5665670000000 1.0
C      1  0.5415690000000  0.4727200000000  0.5087950000000 1.0
C      1  0.5214430000000  0.5895640000000  0.4950530000000 1.0
C      1  0.5132660000000  0.4572640000000  0.5167980000000 1.0
C      1  0.5282660000000  0.5754440000000  0.5542430000000 1.0
C      1  0.4425990000000  0.5068000000000  0.5098450000000 1.0
C      1  0.5230290000000  0.5530600000000  0.4556040000000 1.0
C      1  0.4833340000000  0.4972120000000  0.4369010000000 1.0
C      1  0.5689920000000  0.5680980000000  0.4409030000000 1.0
C      1  0.4981910000000  0.5606660000000  0.5760300000000 1.0
C      1  0.4713030000000  0.5226650000000  0.4519770000000 1.0
C      1  0.5159540000000  0.5078770000000  0.5260430000000 1.0
C      1  0.5253380000000  0.5150110000000  0.4836200000000 1.0
C      1  0.5365960000000  0.4683340000000  0.5904880000000 1.0
C      1  0.4804190000000  0.5340460000000  0.4219390000000 1.0
C      1  0.4897670000000  0.4023590000000  0.4829130000000 1.0
C      1  0.5773310000000  0.5393780000000  0.4455190000000 1.0
C      1  0.4600110000000  0.4657970000000  0.5208280000000 1.0
C      1  0.4968290000000  0.4073100000000  0.5413260000000 1.0
C      1  0.5775160000000  0.4752110000000  0.5327890000000 1.0
C      1  0.4586070000000  0.4145740000000  0.5054320000000 1.0
C      1  0.5466210000000  0.4231680000000  0.5356430000000 1.0
C      1  0.5211220000000  0.4533920000000  0.5678600000000 1.0
C      1  0.4701700000000  0.6006880000000  0.4790520000000 1.0
C      1  0.4977540000000  0.6067970000000  0.4774170000000 1.0
C      1  0.4570800000000  0.5776310000000  0.4852190000000 1.0
C      1  0.5649260000000  0.4489710000000  0.5357120000000 1.0
C      1  0.5157760000000  0.4320110000000  0.4277550000000 1.0
C      1  0.4278060000000  0.4462550000000  0.4894060000000 1.0
C      1  0.5655420000000  0.4921950000000  0.4604710000000 1.0
C      1  0.4160020000000  0.5276350000000  0.4572130000000 1.0
C      1  0.4962710000000  0.4715350000000  0.5560650000000 1.0
C      1  0.4107830000000  0.4739650000000  0.4782920000000 1.0
C      1  0.5122860000000  0.5494130000000  0.5404890000000 1.0
C      1  0.5401550000000  0.4138730000000  0.5084530000000 1.0
C      1  0.4240010000000  0.5052000000000  0.4814890000000 1.0
C      1  0.5041260000000  0.5144370000000  0.4074440000000 1.0
C      1  0.4567360000000  0.5017420000000  0.4729470000000 1.0
C      1  0.5105930000000  0.4291950000000  0.4812890000000 1.0
C      1  0.5996570000000  0.4850390000000  0.5168070000000 1.0
C      1  0.4286730000000  0.4409620000000  0.5212660000000 1.0
C      1  0.4719560000000  0.5894850000000  0.5327730000000 1.0
C      1  0.3940020000000  0.4884520000000  0.5018130000000 1.0
C      1  0.4586560000000  0.5540560000000  0.5442040000000 1.0
C      1  0.4715780000000  0.5200200000000  0.4979370000000 1.0
C      1  0.4662900000000  0.4026370000000  0.5363700000000 1.0
C      1  0.5440840000000  0.5042810000000  0.5088400000000 1.0
C      1  0.4626290000000  0.4780030000000  0.5524840000000 1.0
C      1  0.4956380000000  0.5035440000000  0.5903770000000 1.0
C      1  0.4528100000000  0.4472520000000  0.5631960000000 1.0
C      1  0.4365860000000  0.4585920000000  0.4407060000000 1.0
C      1  0.4894830000000  0.4716070000000  0.5055850000000 1.0
C      1  0.4244350000000  0.5375780000000  0.4919620000000 1.0
C      1  0.5184510000000  0.4145860000000  0.4529590000000 1.0
C      1  0.5651910000000  0.4401070000000  0.4626050000000 1.0
END
