TITL C-2622956-4641-460 -0.0674083128685691 125000 -140.48375377646 0 0 26 (C1) n - 1
REM
REM in /nfs/bkarasulu/CARBON/AIRSS/Generating-Clusters/AIREBO/with-SteepDescent/Higher-Symm/SD-CG/HFTN-CG
REM
REM
REM
REM
REM
REM ./C.cell (b20cbc046b6831c77cfcea5457e17084)
REM
REM compiler GCC version 9.2.1 20190827 (Red Hat 9.2.1-1)
REM options -cpp -mtune=generic -march=x86-64 -g -O0 -fpre-include=/usr/include/finclude/math-vector-fortran.h
REM seed 1617467642 -1244048096 -554695934 -468869523 -189220602 2090366541 127497775 -713448708 -271097920 -1094388805 -1291036442 -83451479 1210915690 -141382353 2082936539 1554250382 -92800967 -1738006036 -1133237641 1551738095 1245802957 1436999065 -1543428664 -1518174923 2044433161 1904023165 -1040221881 -942508482 1850730175 331960167 -1742387259 812031303 234169313
REM
CELL 1.54180   50.00000   50.00000   50.00000   90.00000   90.00000   90.00000
LATT -1
SFAC C  
C      1  0.4790680000000  0.4810320000000  0.4830250000000 1.0
C      1  0.4795540000000  0.4790700000000  0.5164410000000 1.0
C      1  0.5695070000000  0.4953730000000  0.5452380000000 1.0
C      1  0.5689880000000  0.4969110000000  0.4537810000000 1.0
C      1  0.5483270000000  0.4959320000000  0.5298130000000 1.0
C      1  0.5479730000000  0.4969880000000  0.4694400000000 1.0
C      1  0.4990760000000  0.5065840000000  0.4751090000000 1.0
C      1  0.4992600000000  0.5054680000000  0.5250730000000 1.0
C      1  0.4875730000000  0.5529830000000  0.5334940000000 1.0
C      1  0.4859670000000  0.5534950000000  0.4678010000000 1.0
C      1  0.4613820000000  0.4800350000000  0.4548700000000 1.0
C      1  0.4561100000000  0.4851720000000  0.5398690000000 1.0
C      1  0.4787700000000  0.5011900000000  0.5495580000000 1.0
C      1  0.4808540000000  0.5013610000000  0.4488300000000 1.0
C      1  0.4927700000000  0.4532540000000  0.4892100000000 1.0
C      1  0.4914630000000  0.4492800000000  0.5213840000000 1.0
C      1  0.4911010000000  0.5332380000000  0.5139690000000 1.0
C      1  0.4906900000000  0.5335800000000  0.4868650000000 1.0
C      1  0.4786250000000  0.5481360000000  0.5592160000000 1.0
C      1  0.4772480000000  0.5488290000000  0.4419740000000 1.0
C      1  0.5122240000000  0.4293240000000  0.4824120000000 1.0
C      1  0.5126140000000  0.4285980000000  0.5132010000000 1.0
C      1  0.4793620000000  0.5232780000000  0.4314120000000 1.0
C      1  0.4785640000000  0.5219720000000  0.5684160000000 1.0
C      1  0.5265470000000  0.4991860000000  0.5135630000000 1.0
C      1  0.5263830000000  0.4997300000000  0.4860350000000 1.0
END
