TITL C-2622963-3633-299 0.000524969445184589 125000 -509.827226159433 0 0 108 (C1) n - 1
REM
REM in /nfs/bkarasulu/CARBON/AIRSS/Generating-Clusters/AIREBO/with-SteepDescent/Higher-Symm/SD-CG/HFTN-CG
REM
REM
REM
REM
REM
REM ./C.cell (b20cbc046b6831c77cfcea5457e17084)
REM
REM compiler GCC version 9.2.1 20190827 (Red Hat 9.2.1-1)
REM options -cpp -mtune=generic -march=x86-64 -g -O0 -fpre-include=/usr/include/finclude/math-vector-fortran.h
REM seed 2012210954 -920278857 778924623 -1747980725 1143667153 -203212363 -2061395605 3391764 592039485 1537194966 -279637968 -328023842 -422506744 -1518269448 1988078343 -1904940384 -1315361260 -1017290982 1741833076 1833932348 229046000 1120212674 -1660726510 -705908874 1306217915 1447383230 -225488290 -1562526396 1938552391 -181277998 1293701507 865061276 -599027069
REM
CELL 1.54180   50.00000   50.00000   50.00000   90.00000   90.00000   90.00000
LATT -1
SFAC C  
C      1  0.5736580000000  0.4482280000000  0.5072520000000 1.0
C      1  0.5279790000000  0.4475720000000  0.4349700000000 1.0
C      1  0.4414160000000  0.4460130000000  0.4524790000000 1.0
C      1  0.4366280000000  0.4475200000000  0.5385730000000 1.0
C      1  0.5155730000000  0.4472480000000  0.5700230000000 1.0
C      1  0.5774910000000  0.5506550000000  0.5069180000000 1.0
C      1  0.5258150000000  0.5482480000000  0.4376460000000 1.0
C      1  0.4427460000000  0.5487080000000  0.4513070000000 1.0
C      1  0.4365940000000  0.5502270000000  0.5392680000000 1.0
C      1  0.5169310000000  0.5507950000000  0.5719130000000 1.0
C      1  0.4262230000000  0.4700280000000  0.5560440000000 1.0
C      1  0.5277500000000  0.4691800000000  0.5875310000000 1.0
C      1  0.5934770000000  0.4700000000000  0.5008370000000 1.0
C      1  0.5274190000000  0.4679370000000  0.4138160000000 1.0
C      1  0.4215700000000  0.4679850000000  0.4461260000000 1.0
C      1  0.4258470000000  0.5293110000000  0.5570980000000 1.0
C      1  0.5317950000000  0.5277260000000  0.5890410000000 1.0
C      1  0.5963180000000  0.5286610000000  0.4981120000000 1.0
C      1  0.5281320000000  0.5270470000000  0.4178300000000 1.0
C      1  0.4236510000000  0.5261580000000  0.4449370000000 1.0
C      1  0.4990530000000  0.5593680000000  0.4425220000000 1.0
C      1  0.4379880000000  0.5603000000000  0.4773010000000 1.0
C      1  0.4610380000000  0.5623620000000  0.5488650000000 1.0
C      1  0.5355700000000  0.5627950000000  0.5531070000000 1.0
C      1  0.5637900000000  0.5626350000000  0.4829960000000 1.0
C      1  0.5017340000000  0.4337660000000  0.4385000000000 1.0
C      1  0.4369850000000  0.4354190000000  0.4790150000000 1.0
C      1  0.4607210000000  0.4344050000000  0.5493130000000 1.0
C      1  0.5349060000000  0.4348400000000  0.5516340000000 1.0
C      1  0.5619930000000  0.4367580000000  0.4831020000000 1.0
C      1  0.5077690000000  0.4552580000000  0.5309200000000 1.0
C      1  0.5348030000000  0.4589790000000  0.5018720000000 1.0
C      1  0.5112760000000  0.4552090000000  0.4703920000000 1.0
C      1  0.4718740000000  0.4548160000000  0.4769450000000 1.0
C      1  0.4706120000000  0.4549930000000  0.5167830000000 1.0
C      1  0.5110080000000  0.5395180000000  0.5320290000000 1.0
C      1  0.5393430000000  0.5396290000000  0.5041680000000 1.0
C      1  0.5128870000000  0.5409900000000  0.4748130000000 1.0
C      1  0.4731500000000  0.5414230000000  0.4792760000000 1.0
C      1  0.4706900000000  0.5379650000000  0.5189440000000 1.0
C      1  0.4910430000000  0.5214660000000  0.4327730000000 1.0
C      1  0.4295170000000  0.5220150000000  0.4848510000000 1.0
C      1  0.4652110000000  0.5243180000000  0.5600600000000 1.0
C      1  0.5484480000000  0.5241660000000  0.5548860000000 1.0
C      1  0.5619340000000  0.5234200000000  0.4754650000000 1.0
C      1  0.4918460000000  0.4719380000000  0.4322350000000 1.0
C      1  0.4329470000000  0.4743540000000  0.4866820000000 1.0
C      1  0.4664970000000  0.4758170000000  0.5559140000000 1.0
C      1  0.5466380000000  0.4736690000000  0.5526640000000 1.0
C      1  0.5608290000000  0.4766290000000  0.4759580000000 1.0
C      1  0.5689240000000  0.5140700000000  0.5220990000000 1.0
C      1  0.5508210000000  0.5095460000000  0.4246360000000 1.0
C      1  0.4594870000000  0.5128380000000  0.4555350000000 1.0
C      1  0.4382670000000  0.5138680000000  0.5229990000000 1.0
C      1  0.5025540000000  0.5137600000000  0.5686970000000 1.0
C      1  0.5604250000000  0.4845300000000  0.5171370000000 1.0
C      1  0.5361540000000  0.4884990000000  0.4469500000000 1.0
C      1  0.4581980000000  0.4821230000000  0.4506390000000 1.0
C      1  0.4444420000000  0.4836040000000  0.5235740000000 1.0
C      1  0.5053090000000  0.4839860000000  0.5584850000000 1.0
C      1  0.5621150000000  0.5498840000000  0.5372800000000 1.0
C      1  0.5477650000000  0.5480620000000  0.4567820000000 1.0
C      1  0.4694980000000  0.5472330000000  0.4381880000000 1.0
C      1  0.4263750000000  0.5478480000000  0.5067530000000 1.0
C      1  0.4860120000000  0.5499480000000  0.5683150000000 1.0
C      1  0.5592850000000  0.4484180000000  0.5336830000000 1.0
C      1  0.5484490000000  0.4516490000000  0.4564690000000 1.0
C      1  0.4701480000000  0.4463510000000  0.4378510000000 1.0
C      1  0.4303430000000  0.4491660000000  0.5094000000000 1.0
C      1  0.4862520000000  0.4492880000000  0.5639070000000 1.0
C      1  0.4619160000000  0.4776330000000  0.4171420000000 1.0
C      1  0.4128900000000  0.4857710000000  0.5110790000000 1.0
C      1  0.4829370000000  0.4829110000000  0.5840840000000 1.0
C      1  0.5779260000000  0.4837770000000  0.5462830000000 1.0
C      1  0.5699010000000  0.4810900000000  0.4442800000000 1.0
C      1  0.4614880000000  0.5095080000000  0.4217560000000 1.0
C      1  0.4072850000000  0.5192610000000  0.5100700000000 1.0
C      1  0.4770440000000  0.5142590000000  0.5903770000000 1.0
C      1  0.5812000000000  0.5151580000000  0.5533660000000 1.0
C      1  0.5722440000000  0.5134550000000  0.4464080000000 1.0
C      1  0.4649630000000  0.4817520000000  0.4965230000000 1.0
C      1  0.4874860000000  0.4825230000000  0.5295620000000 1.0
C      1  0.5275110000000  0.4824190000000  0.5253970000000 1.0
C      1  0.5277390000000  0.4836400000000  0.4795410000000 1.0
C      1  0.4890970000000  0.4815210000000  0.4648340000000 1.0
C      1  0.4601730000000  0.5154260000000  0.4970290000000 1.0
C      1  0.4888810000000  0.5160490000000  0.5376470000000 1.0
C      1  0.5346800000000  0.5156260000000  0.5258870000000 1.0
C      1  0.5310660000000  0.5151710000000  0.4838160000000 1.0
C      1  0.4914610000000  0.5158400000000  0.4663850000000 1.0
C      1  0.4870590000000  0.4286690000000  0.5285860000000 1.0
C      1  0.5267050000000  0.4306840000000  0.5188990000000 1.0
C      1  0.5291270000000  0.4301980000000  0.4849480000000 1.0
C      1  0.4919400000000  0.4281130000000  0.4705670000000 1.0
C      1  0.4625690000000  0.4291750000000  0.4972410000000 1.0
C      1  0.4886380000000  0.5646860000000  0.5292350000000 1.0
C      1  0.5277700000000  0.5666810000000  0.5212080000000 1.0
C      1  0.5307260000000  0.5670750000000  0.4874520000000 1.0
C      1  0.4929090000000  0.5684160000000  0.4746780000000 1.0
C      1  0.4619900000000  0.5645990000000  0.4996710000000 1.0
C      1  0.5790730000000  0.4997930000000  0.4929350000000 1.0
C      1  0.4424830000000  0.4998220000000  0.5536930000000 1.0
C      1  0.5331510000000  0.4986530000000  0.5714100000000 1.0
C      1  0.5129500000000  0.4971480000000  0.4235260000000 1.0
C      1  0.4297280000000  0.4971460000000  0.4616370000000 1.0
C      1  0.4898470000000  0.4107890000000  0.4997790000000 1.0
C      1  0.4888960000000  0.5844340000000  0.5030060000000 1.0
C      1  0.4989540000000  0.4817460000000  0.4975590000000 1.0
END
