TITL C-2622968-4806-459 -0.00141402064536714 125000 -712.781109934317 0 0 132 (C1) n - 1
REM
REM in /nfs/bkarasulu/CARBON/AIRSS/Generating-Clusters/AIREBO/with-SteepDescent/Higher-Symm/SD-CG/HFTN-CG
REM
REM
REM
REM
REM
REM ./C.cell (b20cbc046b6831c77cfcea5457e17084)
REM
REM compiler GCC version 9.2.1 20190827 (Red Hat 9.2.1-1)
REM options -cpp -mtune=generic -march=x86-64 -g -O0 -fpre-include=/usr/include/finclude/math-vector-fortran.h
REM seed -1476567004 -1245402609 2093291947 -2041013251 471889858 840538563 -1582817817 142245817 1173773913 -1840904400 1909959624 1260793180 192288634 -1157024006 1681082538 -1781908780 749849567 -627824914 302182102 -391747074 -1072557478 1258049095 1404951513 -1818466363 -1093718631 490467428 -1332766275 1395035882 565030300 1715547521 -1855837847 2054484247 255013919
REM
CELL 1.54180   50.00000   50.00000   50.00000   90.00000   90.00000   90.00000
LATT -1
SFAC C  
C      1  0.5375870000000  0.5944370000000  0.5335150000000 1.0
C      1  0.5641400000000  0.4212560000000  0.5345490000000 1.0
C      1  0.3988780000000  0.4791550000000  0.5340190000000 1.0
C      1  0.5374550000000  0.4048770000000  0.4675330000000 1.0
C      1  0.5649480000000  0.5775000000000  0.4655620000000 1.0
C      1  0.3976580000000  0.5145280000000  0.4660990000000 1.0
C      1  0.4407750000000  0.5524560000000  0.5183900000000 1.0
C      1  0.5855020000000  0.5230340000000  0.5254720000000 1.0
C      1  0.4781560000000  0.4161280000000  0.5225220000000 1.0
C      1  0.4364370000000  0.4390210000000  0.4755160000000 1.0
C      1  0.5824700000000  0.4771500000000  0.4759540000000 1.0
C      1  0.4814150000000  0.5896810000000  0.4738540000000 1.0
C      1  0.4676430000000  0.5053510000000  0.4541540000000 1.0
C      1  0.5183970000000  0.5248500000000  0.4535950000000 1.0
C      1  0.5134190000000  0.4724830000000  0.4543000000000 1.0
C      1  0.4744890000000  0.4966790000000  0.5467570000000 1.0
C      1  0.5200050000000  0.4739510000000  0.5464680000000 1.0
C      1  0.5096110000000  0.5266060000000  0.5470110000000 1.0
C      1  0.5653470000000  0.5156990000000  0.5802990000000 1.0
C      1  0.4800320000000  0.4353450000000  0.5787050000000 1.0
C      1  0.4507130000000  0.5501930000000  0.5753860000000 1.0
C      1  0.5658650000000  0.4843220000000  0.4191490000000 1.0
C      1  0.4802080000000  0.5669800000000  0.4219060000000 1.0
C      1  0.4533310000000  0.4507320000000  0.4218650000000 1.0
C      1  0.4820990000000  0.4461460000000  0.5326600000000 1.0
C      1  0.4652040000000  0.5446240000000  0.5385740000000 1.0
C      1  0.5577140000000  0.5113860000000  0.5357980000000 1.0
C      1  0.4816160000000  0.5572230000000  0.4666090000000 1.0
C      1  0.4607650000000  0.4580390000000  0.4657620000000 1.0
C      1  0.5548490000000  0.4885240000000  0.4638850000000 1.0
C      1  0.5021300000000  0.4218540000000  0.4702310000000 1.0
C      1  0.4301050000000  0.5364140000000  0.4701700000000 1.0
C      1  0.5637370000000  0.5381250000000  0.4683520000000 1.0
C      1  0.5028190000000  0.5767130000000  0.5277120000000 1.0
C      1  0.4345170000000  0.4637910000000  0.5267960000000 1.0
C      1  0.5640320000000  0.4607330000000  0.5321200000000 1.0
C      1  0.5844060000000  0.5513490000000  0.5206510000000 1.0
C      1  0.5024220000000  0.4014650000000  0.5224620000000 1.0
C      1  0.4131410000000  0.5441080000000  0.5211150000000 1.0
C      1  0.5840880000000  0.4487470000000  0.4805650000000 1.0
C      1  0.5060920000000  0.6035830000000  0.4777790000000 1.0
C      1  0.4105800000000  0.4509310000000  0.4778260000000 1.0
C      1  0.4588390000000  0.4324680000000  0.4434230000000 1.0
C      1  0.4620670000000  0.5726300000000  0.4434360000000 1.0
C      1  0.5791130000000  0.4962520000000  0.4413410000000 1.0
C      1  0.4622000000000  0.5717800000000  0.5588130000000 1.0
C      1  0.4632450000000  0.4306750000000  0.5563590000000 1.0
C      1  0.5806460000000  0.5030680000000  0.5594940000000 1.0
C      1  0.4945660000000  0.4711460000000  0.4825700000000 1.0
C      1  0.4721920000000  0.5223040000000  0.4832890000000 1.0
C      1  0.5286700000000  0.5116600000000  0.4832030000000 1.0
C      1  0.4988710000000  0.5211870000000  0.5151820000000 1.0
C      1  0.4809320000000  0.4922480000000  0.5136610000000 1.0
C      1  0.5285210000000  0.4911500000000  0.5174490000000 1.0
C      1  0.4815390000000  0.4942690000000  0.4066840000000 1.0
C      1  0.5019930000000  0.5191390000000  0.4068170000000 1.0
C      1  0.5132220000000  0.4886650000000  0.4057990000000 1.0
C      1  0.4815350000000  0.5065300000000  0.5938830000000 1.0
C      1  0.5026710000000  0.4816760000000  0.5944630000000 1.0
C      1  0.5136780000000  0.5116980000000  0.5941090000000 1.0
C      1  0.4714960000000  0.5340240000000  0.4439060000000 1.0
C      1  0.5409000000000  0.5075130000000  0.4415420000000 1.0
C      1  0.4864590000000  0.4610820000000  0.4437030000000 1.0
C      1  0.4749930000000  0.4686460000000  0.5571440000000 1.0
C      1  0.5424880000000  0.4917560000000  0.5578580000000 1.0
C      1  0.4869160000000  0.5403290000000  0.5615510000000 1.0
C      1  0.4153750000000  0.4899700000000  0.4815180000000 1.0
C      1  0.5348590000000  0.5766270000000  0.4812320000000 1.0
C      1  0.5477550000000  0.4332640000000  0.4831580000000 1.0
C      1  0.4162340000000  0.5046820000000  0.5197650000000 1.0
C      1  0.5336170000000  0.4256800000000  0.5202360000000 1.0
C      1  0.5477990000000  0.5662000000000  0.5175640000000 1.0
C      1  0.4638230000000  0.4821590000000  0.4295710000000 1.0
C      1  0.5013580000000  0.5414210000000  0.4294210000000 1.0
C      1  0.5335780000000  0.4774800000000  0.4273780000000 1.0
C      1  0.4619690000000  0.5186380000000  0.5695140000000 1.0
C      1  0.5037780000000  0.4588700000000  0.5723720000000 1.0
C      1  0.5331550000000  0.5216660000000  0.5710680000000 1.0
C      1  0.4995150000000  0.4631180000000  0.5140130000000 1.0
C      1  0.4592300000000  0.5256540000000  0.5126930000000 1.0
C      1  0.5387360000000  0.5210850000000  0.5132730000000 1.0
C      1  0.5002410000000  0.5393590000000  0.4864710000000 1.0
C      1  0.4649980000000  0.4831530000000  0.4850210000000 1.0
C      1  0.5335270000000  0.4790250000000  0.4860180000000 1.0
C      1  0.5591970000000  0.4712630000000  0.5703910000000 1.0
C      1  0.4473360000000  0.4644170000000  0.5703300000000 1.0
C      1  0.4982950000000  0.5638710000000  0.5737060000000 1.0
C      1  0.5593620000000  0.5286420000000  0.4288820000000 1.0
C      1  0.4442200000000  0.5384580000000  0.4328160000000 1.0
C      1  0.4966350000000  0.4357850000000  0.4313630000000 1.0
C      1  0.5691550000000  0.5602760000000  0.4935800000000 1.0
C      1  0.5196710000000  0.4078660000000  0.4957890000000 1.0
C      1  0.4088120000000  0.5269020000000  0.4949330000000 1.0
C      1  0.5691350000000  0.4383280000000  0.5069550000000 1.0
C      1  0.5211970000000  0.5939580000000  0.5048850000000 1.0
C      1  0.4089890000000  0.4683200000000  0.5047970000000 1.0
C      1  0.4226850000000  0.5169040000000  0.4432710000000 1.0
C      1  0.5532020000000  0.5568990000000  0.4419350000000 1.0
C      1  0.5237500000000  0.4253660000000  0.4441130000000 1.0
C      1  0.4254150000000  0.4807800000000  0.5549430000000 1.0
C      1  0.5538560000000  0.4421130000000  0.5587040000000 1.0
C      1  0.5220740000000  0.5744420000000  0.5559850000000 1.0
C      1  0.4553330000000  0.5825170000000  0.4844260000000 1.0
C      1  0.5979320000000  0.4992660000000  0.4866040000000 1.0
C      1  0.4504630000000  0.4158940000000  0.4835560000000 1.0
C      1  0.4515410000000  0.4134510000000  0.5112560000000 1.0
C      1  0.5993010000000  0.5000940000000  0.5142530000000 1.0
C      1  0.4550520000000  0.5779510000000  0.5115410000000 1.0
C      1  0.5447050000000  0.4465320000000  0.4360860000000 1.0
C      1  0.4308740000000  0.4881750000000  0.4354800000000 1.0
C      1  0.5244440000000  0.5657710000000  0.4350150000000 1.0
C      1  0.5438510000000  0.5531240000000  0.5637800000000 1.0
C      1  0.4299450000000  0.5098720000000  0.5619930000000 1.0
C      1  0.5254750000000  0.4332850000000  0.5667810000000 1.0
C      1  0.4114190000000  0.5263400000000  0.5455380000000 1.0
C      1  0.5631110000000  0.5528160000000  0.5434060000000 1.0
C      1  0.5148990000000  0.4176450000000  0.5456150000000 1.0
C      1  0.4207950000000  0.4707840000000  0.4553590000000 1.0
C      1  0.5633270000000  0.4470460000000  0.4571650000000 1.0
C      1  0.5162180000000  0.5838650000000  0.4550570000000 1.0
C      1  0.5844300000000  0.5154020000000  0.4644540000000 1.0
C      1  0.4731710000000  0.4140880000000  0.4640160000000 1.0
C      1  0.4409750000000  0.5642620000000  0.4656920000000 1.0
C      1  0.5858400000000  0.4830850000000  0.5360690000000 1.0
C      1  0.4733880000000  0.5831840000000  0.5324300000000 1.0
C      1  0.4439750000000  0.4342830000000  0.5325960000000 1.0
C      1  0.4419170000000  0.5068580000000  0.4821350000000 1.0
C      1  0.5334180000000  0.5453070000000  0.4819920000000 1.0
C      1  0.5196160000000  0.4481590000000  0.4828610000000 1.0
C      1  0.4475920000000  0.4949190000000  0.5198850000000 1.0
C      1  0.5326020000000  0.4574530000000  0.5195200000000 1.0
C      1  0.5193080000000  0.5478710000000  0.5204500000000 1.0
END
