TITL C-2622960-5345-276 0.0054706163300012 125000 -223.267404202512 0 0 42 (C1) n - 1
REM
REM in /nfs/bkarasulu/CARBON/AIRSS/Generating-Clusters/AIREBO/with-SteepDescent/Higher-Symm/SD-CG/HFTN-CG
REM
REM
REM
REM
REM
REM ./C.cell (b20cbc046b6831c77cfcea5457e17084)
REM
REM compiler GCC version 9.2.1 20190827 (Red Hat 9.2.1-1)
REM options -cpp -mtune=generic -march=x86-64 -g -O0 -fpre-include=/usr/include/finclude/math-vector-fortran.h
REM seed -1079921669 1306291442 -1492999179 2095949053 -1605693622 -1003143835 -429191819 -1754494924 -321152116 278515068 1226866123 -278979318 731174718 -2131101287 2092258399 -1662164716 1981099963 980009309 -749116286 1646056997 -833261532 -1627365795 934144722 282479173 659429634 1689802119 223113117 138196175 1525448936 182443276 -389455197 -311781058 -1547979279
REM
CELL 1.54180   50.00000   50.00000   50.00000   90.00000   90.00000   90.00000
LATT -1
SFAC C  
C      1  0.4994710000000  0.5547830000000  0.5375890000000 1.0
C      1  0.4135340000000  0.5331070000000  0.5001880000000 1.0
C      1  0.4610930000000  0.4553280000000  0.5333100000000 1.0
C      1  0.5452070000000  0.4341120000000  0.5210630000000 1.0
C      1  0.5848390000000  0.5101760000000  0.5091990000000 1.0
C      1  0.5335090000000  0.4387250000000  0.4955770000000 1.0
C      1  0.5668210000000  0.5060250000000  0.4873460000000 1.0
C      1  0.5087470000000  0.5572170000000  0.5110140000000 1.0
C      1  0.4350690000000  0.5312200000000  0.4813470000000 1.0
C      1  0.4561130000000  0.4576190000000  0.5054160000000 1.0
C      1  0.4768180000000  0.4444160000000  0.4593010000000 1.0
C      1  0.5658700000000  0.4511220000000  0.4595620000000 1.0
C      1  0.5403940000000  0.5349440000000  0.4534770000000 1.0
C      1  0.4794840000000  0.5613920000000  0.4631830000000 1.0
C      1  0.4565330000000  0.4969020000000  0.4485720000000 1.0
C      1  0.5291290000000  0.5369490000000  0.5019330000000 1.0
C      1  0.4629080000000  0.5401650000000  0.4927210000000 1.0
C      1  0.4508980000000  0.4856800000000  0.4960290000000 1.0
C      1  0.5054100000000  0.4502310000000  0.4974870000000 1.0
C      1  0.5450600000000  0.4842000000000  0.4921830000000 1.0
C      1  0.4869120000000  0.4612570000000  0.5418840000000 1.0
C      1  0.5529840000000  0.4577830000000  0.5334730000000 1.0
C      1  0.5699000000000  0.5218030000000  0.5299340000000 1.0
C      1  0.4763350000000  0.5399520000000  0.5413490000000 1.0
C      1  0.4179470000000  0.5149420000000  0.5212460000000 1.0
C      1  0.5350700000000  0.4853300000000  0.5247150000000 1.0
C      1  0.5427230000000  0.5184820000000  0.5251090000000 1.0
C      1  0.4639280000000  0.5257880000000  0.5206250000000 1.0
C      1  0.4448280000000  0.5050640000000  0.5200460000000 1.0
C      1  0.5057480000000  0.4680250000000  0.5233330000000 1.0
C      1  0.4969020000000  0.4694750000000  0.4704790000000 1.0
C      1  0.5184070000000  0.4933260000000  0.4788230000000 1.0
C      1  0.5155290000000  0.5235680000000  0.4737850000000 1.0
C      1  0.4858590000000  0.5287650000000  0.4704210000000 1.0
C      1  0.4768600000000  0.4964180000000  0.4758320000000 1.0
C      1  0.4741970000000  0.4431740000000  0.4896110000000 1.0
C      1  0.5501490000000  0.4563900000000  0.4811420000000 1.0
C      1  0.5541260000000  0.5302340000000  0.4798840000000 1.0
C      1  0.4884070000000  0.5617800000000  0.4927730000000 1.0
C      1  0.4380970000000  0.5045300000000  0.4713420000000 1.0
C      1  0.5311910000000  0.4879680000000  0.5569810000000 1.0
C      1  0.4974330000000  0.4997990000000  0.5029010000000 1.0
END
