TITL C-2622962-9663-71 9.68356282339074e-05 125000 -1005.0607468785 0 0 186 (C1) n - 1
REM
REM in /nfs/bkarasulu/CARBON/AIRSS/Generating-Clusters/AIREBO/with-SteepDescent/Higher-Symm/SD-CG/HFTN-CG
REM
REM
REM
REM
REM
REM ./C.cell (b20cbc046b6831c77cfcea5457e17084)
REM
REM compiler GCC version 9.2.1 20190827 (Red Hat 9.2.1-1)
REM options -cpp -mtune=generic -march=x86-64 -g -O0 -fpre-include=/usr/include/finclude/math-vector-fortran.h
REM seed -334836552 -902315464 -260984822 -262603534 800052751 -1395507852 -1939970910 -1753898792 1552681993 -911600684 -850073339 538197830 -1062051732 -1989472608 501882359 257967104 397162539 -1498298843 -1981171806 -631415620 1720220544 -572929098 192228364 1204671488 151292110 1792688020 -1462739797 -643092621 -332972356 -1468205397 -645736301 -713684529 -636267928
REM
CELL 1.54180   50.00000   50.00000   50.00000   90.00000   90.00000   90.00000
LATT -1
SFAC C  
C      1  0.4345130000000  0.5380040000000  0.4231490000000 1.0
C      1  0.5651540000000  0.4674910000000  0.4090100000000 1.0
C      1  0.4397730000000  0.4085030000000  0.4577640000000 1.0
C      1  0.5675870000000  0.4110360000000  0.5310640000000 1.0
C      1  0.4362780000000  0.4724310000000  0.5763560000000 1.0
C      1  0.5609850000000  0.5418490000000  0.6002420000000 1.0
C      1  0.4379940000000  0.5810870000000  0.5413170000000 1.0
C      1  0.5657740000000  0.5910170000000  0.4703800000000 1.0
C      1  0.5940910000000  0.4588320000000  0.4613680000000 1.0
C      1  0.4020930000000  0.4418650000000  0.4947220000000 1.0
C      1  0.5943130000000  0.4629780000000  0.5436150000000 1.0
C      1  0.4026130000000  0.5191610000000  0.5526330000000 1.0
C      1  0.5971490000000  0.5516560000000  0.5377600000000 1.0
C      1  0.4062160000000  0.5600240000000  0.4935020000000 1.0
C      1  0.5913250000000  0.5443270000000  0.4433230000000 1.0
C      1  0.4067500000000  0.4981710000000  0.4449880000000 1.0
C      1  0.4087820000000  0.5255870000000  0.4395700000000 1.0
C      1  0.5846460000000  0.4738560000000  0.4334780000000 1.0
C      1  0.4200990000000  0.4348880000000  0.4665200000000 1.0
C      1  0.5915530000000  0.4340890000000  0.5256240000000 1.0
C      1  0.4199370000000  0.4705590000000  0.5540630000000 1.0
C      1  0.5777390000000  0.5216970000000  0.5785790000000 1.0
C      1  0.4173860000000  0.5626450000000  0.5254830000000 1.0
C      1  0.5813730000000  0.5671900000000  0.4630040000000 1.0
C      1  0.5393440000000  0.5104180000000  0.3862800000000 1.0
C      1  0.4529950000000  0.4384660000000  0.4093450000000 1.0
C      1  0.5462900000000  0.3881610000000  0.4838540000000 1.0
C      1  0.4563610000000  0.4248670000000  0.5640290000000 1.0
C      1  0.5315820000000  0.4929710000000  0.6007360000000 1.0
C      1  0.4554970000000  0.5653100000000  0.5910360000000 1.0
C      1  0.5346180000000  0.6025730000000  0.5079920000000 1.0
C      1  0.4673210000000  0.5748170000000  0.4339930000000 1.0
C      1  0.5081390000000  0.4665260000000  0.5076040000000 1.0
C      1  0.4980370000000  0.4907580000000  0.5292130000000 1.0
C      1  0.5161250000000  0.5165920000000  0.5286530000000 1.0
C      1  0.4918210000000  0.5298360000000  0.5121890000000 1.0
C      1  0.5157990000000  0.5276750000000  0.4896070000000 1.0
C      1  0.4946110000000  0.5128230000000  0.4706630000000 1.0
C      1  0.5131870000000  0.4865920000000  0.4637220000000 1.0
C      1  0.4925380000000  0.4735590000000  0.4827550000000 1.0
C      1  0.5466310000000  0.4476680000000  0.5723880000000 1.0
C      1  0.4519410000000  0.5141120000000  0.5899150000000 1.0
C      1  0.5454090000000  0.5781290000000  0.5579030000000 1.0
C      1  0.4527330000000  0.5904470000000  0.4854570000000 1.0
C      1  0.5438970000000  0.5481040000000  0.4199300000000 1.0
C      1  0.4424920000000  0.4870150000000  0.4095300000000 1.0
C      1  0.5494210000000  0.4199280000000  0.4428580000000 1.0
C      1  0.4472640000000  0.4093730000000  0.5108850000000 1.0
C      1  0.4348340000000  0.4733760000000  0.5129800000000 1.0
C      1  0.5740150000000  0.4840050000000  0.5164470000000 1.0
C      1  0.4331110000000  0.5131180000000  0.5274960000000 1.0
C      1  0.5690840000000  0.5343980000000  0.5162360000000 1.0
C      1  0.4348740000000  0.5274420000000  0.4837630000000 1.0
C      1  0.5706980000000  0.5077450000000  0.4604000000000 1.0
C      1  0.4347950000000  0.4941640000000  0.4854700000000 1.0
C      1  0.5665580000000  0.4642690000000  0.4898350000000 1.0
C      1  0.4215310000000  0.4811010000000  0.4283360000000 1.0
C      1  0.5744340000000  0.4309670000000  0.4631700000000 1.0
C      1  0.4161560000000  0.4199390000000  0.5166550000000 1.0
C      1  0.5700810000000  0.4621460000000  0.5674840000000 1.0
C      1  0.4254220000000  0.5299450000000  0.5754640000000 1.0
C      1  0.5720440000000  0.5731340000000  0.5462710000000 1.0
C      1  0.4272890000000  0.5758500000000  0.4722740000000 1.0
C      1  0.5693590000000  0.5356690000000  0.4255790000000 1.0
C      1  0.5382150000000  0.5603830000000  0.5860530000000 1.0
C      1  0.4584140000000  0.5974220000000  0.5183080000000 1.0
C      1  0.5329470000000  0.5720590000000  0.4301690000000 1.0
C      1  0.4548500000000  0.5170270000000  0.4045170000000 1.0
C      1  0.5453780000000  0.4417530000000  0.4173140000000 1.0
C      1  0.4620330000000  0.4033970000000  0.4808400000000 1.0
C      1  0.5443820000000  0.4188190000000  0.5547070000000 1.0
C      1  0.4601950000000  0.4822560000000  0.5990750000000 1.0
C      1  0.6108090000000  0.4757000000000  0.4779580000000 1.0
C      1  0.3872060000000  0.4697200000000  0.4939650000000 1.0
C      1  0.6036770000000  0.4908200000000  0.5259680000000 1.0
C      1  0.3803930000000  0.5111310000000  0.5335630000000 1.0
C      1  0.6000800000000  0.5235270000000  0.5183290000000 1.0
C      1  0.3854450000000  0.5364690000000  0.4928350000000 1.0
C      1  0.5990980000000  0.5219690000000  0.4689790000000 1.0
C      1  0.4040680000000  0.4910150000000  0.4753720000000 1.0
C      1  0.4368870000000  0.5413530000000  0.5455450000000 1.0
C      1  0.5699290000000  0.5682840000000  0.5135470000000 1.0
C      1  0.4249490000000  0.5437450000000  0.4613270000000 1.0
C      1  0.5677440000000  0.5028200000000  0.4275390000000 1.0
C      1  0.4291810000000  0.4544110000000  0.4425710000000 1.0
C      1  0.5725320000000  0.4315900000000  0.4971200000000 1.0
C      1  0.4229060000000  0.4489240000000  0.5333910000000 1.0
C      1  0.5682810000000  0.4903330000000  0.5772110000000 1.0
C      1  0.4278540000000  0.4193260000000  0.5485770000000 1.0
C      1  0.5605880000000  0.5081250000000  0.6050320000000 1.0
C      1  0.4305570000000  0.5642050000000  0.5699210000000 1.0
C      1  0.5607550000000  0.5966630000000  0.4986040000000 1.0
C      1  0.4347290000000  0.5680280000000  0.4396250000000 1.0
C      1  0.5601540000000  0.4949770000000  0.3953320000000 1.0
C      1  0.4393010000000  0.4261010000000  0.4326690000000 1.0
C      1  0.5595710000000  0.4008030000000  0.5034850000000 1.0
C      1  0.5154620000000  0.4448120000000  0.4076250000000 1.0
C      1  0.4935890000000  0.3950040000000  0.4712010000000 1.0
C      1  0.5179330000000  0.4044750000000  0.5575270000000 1.0
C      1  0.4877080000000  0.4621870000000  0.5970490000000 1.0
C      1  0.5079020000000  0.5489670000000  0.5965340000000 1.0
C      1  0.4886760000000  0.6003650000000  0.5338170000000 1.0
C      1  0.5045830000000  0.5823620000000  0.4458390000000 1.0
C      1  0.4879720000000  0.5250580000000  0.4037610000000 1.0
C      1  0.5151380000000  0.5503350000000  0.4663270000000 1.0
C      1  0.4888940000000  0.5062890000000  0.4389660000000 1.0
C      1  0.5095630000000  0.4571650000000  0.4506170000000 1.0
C      1  0.4907120000000  0.4297820000000  0.4906550000000 1.0
C      1  0.5120370000000  0.4519360000000  0.5381990000000 1.0
C      1  0.4916520000000  0.4927110000000  0.5602340000000 1.0
C      1  0.5161590000000  0.5376890000000  0.5513100000000 1.0
C      1  0.4913020000000  0.5605240000000  0.5151180000000 1.0
C      1  0.5367030000000  0.5638100000000  0.5175840000000 1.0
C      1  0.4755840000000  0.5475710000000  0.4754160000000 1.0
C      1  0.5343270000000  0.5152440000000  0.4457010000000 1.0
C      1  0.4549370000000  0.4710130000000  0.4478240000000 1.0
C      1  0.5436120000000  0.4334330000000  0.4793200000000 1.0
C      1  0.4724390000000  0.4551200000000  0.5283610000000 1.0
C      1  0.5426860000000  0.4882530000000  0.5548590000000 1.0
C      1  0.4694840000000  0.5363760000000  0.5524490000000 1.0
C      1  0.4814210000000  0.4313940000000  0.5838980000000 1.0
C      1  0.5059540000000  0.5153110000000  0.6013710000000 1.0
C      1  0.4953550000000  0.5833080000000  0.5611940000000 1.0
C      1  0.5103410000000  0.6022250000000  0.4921730000000 1.0
C      1  0.4907750000000  0.5554820000000  0.4186960000000 1.0
C      1  0.5055770000000  0.4721500000000  0.4073920000000 1.0
C      1  0.4964230000000  0.4125420000000  0.4422010000000 1.0
C      1  0.5059870000000  0.3994330000000  0.5322860000000 1.0
C      1  0.4152150000000  0.4938990000000  0.5422300000000 1.0
C      1  0.5717420000000  0.5334720000000  0.5501210000000 1.0
C      1  0.4219310000000  0.5350140000000  0.5090830000000 1.0
C      1  0.5709960000000  0.5377290000000  0.4764500000000 1.0
C      1  0.4460400000000  0.4981420000000  0.4549460000000 1.0
C      1  0.5618560000000  0.4684110000000  0.4581760000000 1.0
C      1  0.4343690000000  0.4475490000000  0.4944950000000 1.0
C      1  0.5652250000000  0.4549970000000  0.5286260000000 1.0
C      1  0.5358450000000  0.4910680000000  0.4267970000000 1.0
C      1  0.4732240000000  0.4567150000000  0.4671200000000 1.0
C      1  0.5269000000000  0.4386940000000  0.5037670000000 1.0
C      1  0.4641920000000  0.4532760000000  0.5551950000000 1.0
C      1  0.5348830000000  0.5113710000000  0.5745960000000 1.0
C      1  0.4693300000000  0.5668810000000  0.5613940000000 1.0
C      1  0.5508310000000  0.5581480000000  0.4871770000000 1.0
C      1  0.4675140000000  0.5478580000000  0.4501340000000 1.0
C      1  0.5450110000000  0.5216090000000  0.5017210000000 1.0
C      1  0.4652990000000  0.5200860000000  0.4841020000000 1.0
C      1  0.5416410000000  0.5007050000000  0.4755580000000 1.0
C      1  0.4682520000000  0.4894830000000  0.4894200000000 1.0
C      1  0.5382740000000  0.4773700000000  0.5001080000000 1.0
C      1  0.4655310000000  0.4859280000000  0.5204790000000 1.0
C      1  0.5443950000000  0.4979110000000  0.5258120000000 1.0
C      1  0.4656430000000  0.5194840000000  0.5259610000000 1.0
C      1  0.4930180000000  0.5225240000000  0.5707480000000 1.0
C      1  0.5127520000000  0.5658190000000  0.5377840000000 1.0
C      1  0.4960120000000  0.5725400000000  0.4836100000000 1.0
C      1  0.5091530000000  0.5335400000000  0.4370580000000 1.0
C      1  0.4853020000000  0.4729220000000  0.4326300000000 1.0
C      1  0.5121880000000  0.4299480000000  0.4668000000000 1.0
C      1  0.4927050000000  0.4290330000000  0.5221160000000 1.0
C      1  0.5161260000000  0.4724790000000  0.5598330000000 1.0
C      1  0.5008380000000  0.5868650000000  0.4141160000000 1.0
C      1  0.5021090000000  0.4958110000000  0.3936740000000 1.0
C      1  0.4997430000000  0.4227290000000  0.4173780000000 1.0
C      1  0.4946130000000  0.3928820000000  0.5051250000000 1.0
C      1  0.5014550000000  0.4127880000000  0.5793700000000 1.0
C      1  0.4948650000000  0.4899700000000  0.6153560000000 1.0
C      1  0.5033370000000  0.5791240000000  0.5891870000000 1.0
C      1  0.4917810000000  0.6166510000000  0.5076380000000 1.0
C      1  0.5288220000000  0.4006800000000  0.4619300000000 1.0
C      1  0.4639050000000  0.4157090000000  0.5321920000000 1.0
C      1  0.5215510000000  0.4624520000000  0.5902630000000 1.0
C      1  0.4747970000000  0.5389900000000  0.5942890000000 1.0
C      1  0.5251680000000  0.5974640000000  0.5385100000000 1.0
C      1  0.4772380000000  0.5911020000000  0.4621550000000 1.0
C      1  0.5218330000000  0.5287610000000  0.4058550000000 1.0
C      1  0.4620010000000  0.4659850000000  0.4088490000000 1.0
C      1  0.4598200000000  0.4359160000000  0.4837740000000 1.0
C      1  0.5410270000000  0.4407550000000  0.5318130000000 1.0
C      1  0.4671810000000  0.4801680000000  0.5680000000000 1.0
C      1  0.5443120000000  0.5380850000000  0.5641570000000 1.0
C      1  0.4660420000000  0.5678190000000  0.5279660000000 1.0
C      1  0.5382130000000  0.5750220000000  0.4624580000000 1.0
C      1  0.4592300000000  0.5200560000000  0.4381040000000 1.0
C      1  0.5378930000000  0.4641080000000  0.4395800000000 1.0
C      1  0.3850240000000  0.5033870000000  0.5006930000000 1.0
C      1  0.6093470000000  0.5018880000000  0.4937740000000 1.0
END
