TITL C-2622961-1971-230 0.00257629231938043 125000 -529.928426561345 0 0 99 (C1) n - 1
REM
REM in /nfs/bkarasulu/CARBON/AIRSS/Generating-Clusters/AIREBO/with-SteepDescent/Higher-Symm/SD-CG/HFTN-CG
REM
REM
REM
REM
REM
REM ./C.cell (b20cbc046b6831c77cfcea5457e17084)
REM
REM compiler GCC version 9.2.1 20190827 (Red Hat 9.2.1-1)
REM options -cpp -mtune=generic -march=x86-64 -g -O0 -fpre-include=/usr/include/finclude/math-vector-fortran.h
REM seed 1510714183 -1855091768 1717339641 938328381 886473494 -1170827596 -1029690704 -1017520193 -225157549 174949992 865764460 1061976025 -1816127640 488799287 2140733692 769871904 644595614 1320265193 1101750490 670772101 -1832446425 -732415767 -2087821132 874574924 -2086150871 -981522359 1486844545 -1015229033 1221454299 550934641 -152867084 -1815762406 1453398673
REM
CELL 1.54180   50.00000   50.00000   50.00000   90.00000   90.00000   90.00000
LATT -1
SFAC C  
C      1  0.5018990000000  0.4641470000000  0.4133280000000 1.0
C      1  0.5324800000000  0.5193860000000  0.4132750000000 1.0
C      1  0.4697790000000  0.5169780000000  0.4108100000000 1.0
C      1  0.5010890000000  0.4644190000000  0.5885800000000 1.0
C      1  0.5307140000000  0.5175640000000  0.5878070000000 1.0
C      1  0.4702230000000  0.5183010000000  0.5909320000000 1.0
C      1  0.4316530000000  0.5193410000000  0.5457480000000 1.0
C      1  0.5163320000000  0.4315470000000  0.5439780000000 1.0
C      1  0.5489610000000  0.5484030000000  0.5432910000000 1.0
C      1  0.4338560000000  0.5203400000000  0.4564780000000 1.0
C      1  0.5234350000000  0.4308410000000  0.4532720000000 1.0
C      1  0.5472770000000  0.5551020000000  0.4527950000000 1.0
C      1  0.4526410000000  0.5352820000000  0.5672300000000 1.0
C      1  0.4921170000000  0.4418180000000  0.5647600000000 1.0
C      1  0.5534900000000  0.5230410000000  0.5639530000000 1.0
C      1  0.4550410000000  0.5353700000000  0.4354290000000 1.0
C      1  0.4960230000000  0.4407640000000  0.4373580000000 1.0
C      1  0.5534350000000  0.5251280000000  0.4395680000000 1.0
C      1  0.5213550000000  0.5774780000000  0.5130160000000 1.0
C      1  0.4193880000000  0.4756940000000  0.5234680000000 1.0
C      1  0.5559130000000  0.4413970000000  0.5140430000000 1.0
C      1  0.5307440000000  0.5784260000000  0.4803450000000 1.0
C      1  0.4181010000000  0.4780060000000  0.4778630000000 1.0
C      1  0.5511330000000  0.4333720000000  0.4814540000000 1.0
C      1  0.4757300000000  0.4848010000000  0.4201620000000 1.0
C      1  0.5271160000000  0.4862700000000  0.4198760000000 1.0
C      1  0.5005080000000  0.5303340000000  0.4172590000000 1.0
C      1  0.4746830000000  0.4855670000000  0.5827380000000 1.0
C      1  0.5273460000000  0.4842750000000  0.5799660000000 1.0
C      1  0.5005030000000  0.5319710000000  0.5816960000000 1.0
C      1  0.5194300000000  0.5346150000000  0.5467400000000 1.0
C      1  0.4590930000000  0.5003250000000  0.5492960000000 1.0
C      1  0.5192070000000  0.4644710000000  0.5464470000000 1.0
C      1  0.5183060000000  0.5391550000000  0.4516900000000 1.0
C      1  0.4610910000000  0.5004480000000  0.4536020000000 1.0
C      1  0.5245810000000  0.4637990000000  0.4524830000000 1.0
C      1  0.4688640000000  0.4175460000000  0.4879570000000 1.0
C      1  0.5864950000000  0.5149460000000  0.4880550000000 1.0
C      1  0.4425730000000  0.5645400000000  0.4875920000000 1.0
C      1  0.4734280000000  0.4183000000000  0.5128100000000 1.0
C      1  0.5838410000000  0.5198340000000  0.5126650000000 1.0
C      1  0.4437540000000  0.5664920000000  0.5128030000000 1.0
C      1  0.4871480000000  0.5134510000000  0.5569260000000 1.0
C      1  0.4938230000000  0.4815480000000  0.5549170000000 1.0
C      1  0.5181560000000  0.5037390000000  0.5536430000000 1.0
C      1  0.4879320000000  0.5141710000000  0.4444010000000 1.0
C      1  0.4964960000000  0.4821580000000  0.4469650000000 1.0
C      1  0.5190660000000  0.5059080000000  0.4464520000000 1.0
C      1  0.4488930000000  0.4734270000000  0.4379140000000 1.0
C      1  0.5523280000000  0.4697810000000  0.4356410000000 1.0
C      1  0.4995720000000  0.5598220000000  0.4342360000000 1.0
C      1  0.4474660000000  0.4737290000000  0.5657230000000 1.0
C      1  0.5493850000000  0.4670270000000  0.5602090000000 1.0
C      1  0.5030570000000  0.5593800000000  0.5611790000000 1.0
C      1  0.4229060000000  0.4899650000000  0.4523220000000 1.0
C      1  0.5555140000000  0.4390660000000  0.4482170000000 1.0
C      1  0.5239190000000  0.5783480000000  0.4470360000000 1.0
C      1  0.4215660000000  0.4877780000000  0.5486660000000 1.0
C      1  0.5480090000000  0.4373060000000  0.5435440000000 1.0
C      1  0.5284440000000  0.5731430000000  0.5429420000000 1.0
C      1  0.5340830000000  0.5126550000000  0.5167400000000 1.0
C      1  0.4744530000000  0.5233700000000  0.5208020000000 1.0
C      1  0.4908700000000  0.4650760000000  0.5169550000000 1.0
C      1  0.5327470000000  0.5052120000000  0.4838270000000 1.0
C      1  0.4769940000000  0.5244840000000  0.4810120000000 1.0
C      1  0.4885070000000  0.4679470000000  0.4837350000000 1.0
C      1  0.4749980000000  0.4411550000000  0.5351960000000 1.0
C      1  0.5630660000000  0.5093000000000  0.5342210000000 1.0
C      1  0.4586630000000  0.5491240000000  0.5367330000000 1.0
C      1  0.4782710000000  0.4405300000000  0.4664110000000 1.0
C      1  0.5625920000000  0.5080950000000  0.4676540000000 1.0
C      1  0.4609930000000  0.5502670000000  0.4654680000000 1.0
C      1  0.5112750000000  0.4381530000000  0.5130480000000 1.0
C      1  0.5481210000000  0.5432310000000  0.5117970000000 1.0
C      1  0.4412690000000  0.5210910000000  0.5146950000000 1.0
C      1  0.5174100000000  0.4345270000000  0.4861860000000 1.0
C      1  0.5476870000000  0.5493030000000  0.4852390000000 1.0
C      1  0.4437150000000  0.5217700000000  0.4874370000000 1.0
C      1  0.4689110000000  0.4914110000000  0.4817490000000 1.0
C      1  0.5187130000000  0.4762730000000  0.4796140000000 1.0
C      1  0.5093630000000  0.5272570000000  0.4788480000000 1.0
C      1  0.4679250000000  0.4899630000000  0.5213990000000 1.0
C      1  0.5202340000000  0.4818430000000  0.5205960000000 1.0
C      1  0.5038530000000  0.5278730000000  0.5201150000000 1.0
C      1  0.5693600000000  0.4803360000000  0.5386190000000 1.0
C      1  0.4812040000000  0.5703100000000  0.5392710000000 1.0
C      1  0.4467820000000  0.4516770000000  0.5397850000000 1.0
C      1  0.5702060000000  0.4785740000000  0.4608190000000 1.0
C      1  0.4828020000000  0.5714700000000  0.4594840000000 1.0
C      1  0.4489790000000  0.4484560000000  0.4595250000000 1.0
C      1  0.4300310000000  0.4482240000000  0.5125790000000 1.0
C      1  0.5769200000000  0.4659290000000  0.5143760000000 1.0
C      1  0.4893530000000  0.5828220000000  0.5139950000000 1.0
C      1  0.4308320000000  0.4506160000000  0.4823110000000 1.0
C      1  0.5727620000000  0.4599000000000  0.4829430000000 1.0
C      1  0.4968840000000  0.5827160000000  0.4820080000000 1.0
C      1  0.5106100000000  0.5503070000000  0.5001740000000 1.0
C      1  0.4429170000000  0.4839930000000  0.5003670000000 1.0
C      1  0.5383330000000  0.4651770000000  0.5016800000000 1.0
END
