TITL C-2622966-9038-487 -6197.77176253819 125000 -536.529766390104 0 0 100 (C1) n - 1
REM
REM in /nfs/bkarasulu/CARBON/AIRSS/Generating-Clusters/AIREBO/with-SteepDescent/Higher-Symm/SD-CG/HFTN-CG
REM
REM
REM
REM
REM
REM ./C.cell (b20cbc046b6831c77cfcea5457e17084)
REM
REM compiler GCC version 9.2.1 20190827 (Red Hat 9.2.1-1)
REM options -cpp -mtune=generic -march=x86-64 -g -O0 -fpre-include=/usr/include/finclude/math-vector-fortran.h
REM seed -1163531288 1202814162 2023020432 1556699437 387756288 599680607 -1771205122 1737971921 494318148 -1130113501 -2024600596 -1102200641 -803175430 1126421555 -1143838719 -964818591 -1850370526 -850293392 -1842918103 1317805087 688376903 490099293 259010656 -1538701942 -341852751 2029106301 1170507724 -1786837778 -685963164 -1404132759 -118640401 -109289258 -879800115
REM
CELL 1.54180   50.00000   50.00000   50.00000   90.00000   90.00000   90.00000
LATT -1
SFAC C  
C      1  0.4381560000000  0.4991320000000  0.5409960000000 1.0
C      1  0.5223030000000  0.4558720000000  0.5132820000000 1.0
C      1  0.5096470000000  0.5435520000000  0.4370780000000 1.0
C      1  0.4931060000000  0.5827230000000  0.4575680000000 1.0
C      1  0.4953590000000  0.4367170000000  0.5051450000000 1.0
C      1  0.5072050000000  0.4663080000000  0.4649190000000 1.0
C      1  0.4713790000000  0.4933390000000  0.4415800000000 1.0
C      1  0.4624870000000  0.4506480000000  0.4876470000000 1.0
C      1  0.4440590000000  0.4829700000000  0.4590870000000 1.0
C      1  0.4824570000000  0.5523360000000  0.5066310000000 1.0
C      1  0.5481380000000  0.4491230000000  0.4926260000000 1.0
C      1  0.4963080000000  0.4433760000000  0.5436830000000 1.0
C      1  0.5066030000000  0.5630810000000  0.5229920000000 1.0
C      1  0.5214210000000  0.5373970000000  0.4812840000000 1.0
C      1  0.4333660000000  0.5320780000000  0.4555160000000 1.0
C      1  0.4478920000000  0.4769600000000  0.5237780000000 1.0
C      1  0.5431460000000  0.4263450000000  0.5577050000000 1.0
C      1  0.4392210000000  0.4722220000000  0.4912260000000 1.0
C      1  0.5277150000000  0.5265550000000  0.5747810000000 1.0
C      1  0.4602260000000  0.5055550000000  0.5826180000000 1.0
C      1  0.5328550000000  0.5186020000000  0.5013710000000 1.0
C      1  0.5733040000000  0.4844480000000  0.5599800000000 1.0
C      1  0.4779090000000  0.4672780000000  0.4233350000000 1.0
C      1  0.5916340000000  0.5117280000000  0.5563990000000 1.0
C      1  0.5091180000000  0.5876390000000  0.4794430000000 1.0
C      1  0.4873560000000  0.5018550000000  0.5680620000000 1.0
C      1  0.4762160000000  0.5207830000000  0.5129700000000 1.0
C      1  0.4400090000000  0.5567560000000  0.5386480000000 1.0
C      1  0.5255520000000  0.4894680000000  0.5175080000000 1.0
C      1  0.6003510000000  0.5032610000000  0.5112150000000 1.0
C      1  0.5003990000000  0.4519530000000  0.4368980000000 1.0
C      1  0.5152980000000  0.4988810000000  0.5872120000000 1.0
C      1  0.5234410000000  0.4269920000000  0.5311970000000 1.0
C      1  0.5522800000000  0.5073170000000  0.5612690000000 1.0
C      1  0.4620850000000  0.4357450000000  0.4636070000000 1.0
C      1  0.3524860000000  0.4020430000000  0.4872040000000 1.0
C      1  0.5218320000000  0.5002680000000  0.5478690000000 1.0
C      1  0.3929490000000  0.4357400000000  0.4908280000000 1.0
C      1  0.3720400000000  0.4194750000000  0.4880640000000 1.0
C      1  0.4896390000000  0.4287160000000  0.4555860000000 1.0
C      1  0.5641310000000  0.5688650000000  0.5127810000000 1.0
C      1  0.5280550000000  0.5278490000000  0.4523500000000 1.0
C      1  0.4543610000000  0.4527580000000  0.4185960000000 1.0
C      1  0.3965720000000  0.4996280000000  0.5020510000000 1.0
C      1  0.4823050000000  0.5844130000000  0.5304100000000 1.0
C      1  0.5078490000000  0.4153140000000  0.4738720000000 1.0
C      1  0.5794320000000  0.4609880000000  0.5359760000000 1.0
C      1  0.5327150000000  0.4754670000000  0.4355090000000 1.0
C      1  0.4430180000000  0.5197800000000  0.5056990000000 1.0
C      1  0.5264690000000  0.4484680000000  0.4172980000000 1.0
C      1  0.5391920000000  0.4632350000000  0.4655010000000 1.0
C      1  0.4804840000000  0.5515370000000  0.4526450000000 1.0
C      1  0.4868940000000  0.4696650000000  0.5615830000000 1.0
C      1  0.5607410000000  0.5606330000000  0.4650860000000 1.0
C      1  0.5309520000000  0.4204170000000  0.4982960000000 1.0
C      1  0.4509050000000  0.5598830000000  0.4647840000000 1.0
C      1  0.4952890000000  0.5078450000000  0.4878770000000 1.0
C      1  0.5487310000000  0.4884000000000  0.4821830000000 1.0
C      1  0.5194910000000  0.4980060000000  0.4662430000000 1.0
C      1  0.4903980000000  0.5386490000000  0.4802890000000 1.0
C      1  0.4403930000000  0.5289360000000  0.5353700000000 1.0
C      1  0.4906470000000  0.4628240000000  0.4894280000000 1.0
C      1  0.4452240000000  0.4516270000000  0.4460310000000 1.0
C      1  0.5579330000000  0.4935220000000  0.4268500000000 1.0
C      1  0.5332020000000  0.5667450000000  0.4819790000000 1.0
C      1  0.4915750000000  0.5152740000000  0.4154450000000 1.0
C      1  0.4490780000000  0.5749860000000  0.4952140000000 1.0
C      1  0.5322280000000  0.5779440000000  0.5134640000000 1.0
C      1  0.5188640000000  0.4460500000000  0.5658600000000 1.0
C      1  0.5655430000000  0.5140770000000  0.4435950000000 1.0
C      1  0.5753350000000  0.4606360000000  0.5044330000000 1.0
C      1  0.4025250000000  0.5002600000000  0.4363030000000 1.0
C      1  0.5646040000000  0.5422780000000  0.4438040000000 1.0
C      1  0.5731770000000  0.5149090000000  0.5280170000000 1.0
C      1  0.4136990000000  0.4520380000000  0.4909950000000 1.0
C      1  0.5139200000000  0.5413680000000  0.5425080000000 1.0
C      1  0.5464610000000  0.5645670000000  0.5415090000000 1.0
C      1  0.4931170000000  0.4081690000000  0.5009360000000 1.0
C      1  0.4768370000000  0.4680440000000  0.5300000000000 1.0
C      1  0.4258910000000  0.5065640000000  0.4492560000000 1.0
C      1  0.4225820000000  0.4982360000000  0.5012930000000 1.0
C      1  0.4541520000000  0.5756380000000  0.5224030000000 1.0
C      1  0.5003260000000  0.5792000000000  0.5589180000000 1.0
C      1  0.5050020000000  0.4935500000000  0.4358020000000 1.0
C      1  0.5566020000000  0.4556250000000  0.5583980000000 1.0
C      1  0.5459810000000  0.5313850000000  0.5401470000000 1.0
C      1  0.5644630000000  0.5229940000000  0.4961580000000 1.0
C      1  0.4695380000000  0.5263300000000  0.4335250000000 1.0
C      1  0.4938430000000  0.4853080000000  0.5099950000000 1.0
C      1  0.5583680000000  0.4873030000000  0.5147860000000 1.0
C      1  0.5304360000000  0.4749500000000  0.5688900000000 1.0
C      1  0.5742410000000  0.5033500000000  0.4701810000000 1.0
C      1  0.4358530000000  0.5396270000000  0.4857620000000 1.0
C      1  0.5908600000000  0.4858900000000  0.4911750000000 1.0
C      1  0.4984710000000  0.5967050000000  0.5031300000000 1.0
C      1  0.4384210000000  0.4952810000000  0.5692560000000 1.0
C      1  0.5249460000000  0.5596850000000  0.5675590000000 1.0
C      1  0.4930270000000  0.5178820000000  0.5412330000000 1.0
C      1  0.4974090000000  0.4711030000000  0.5910420000000 1.0
C      1  0.5702980000000  0.5521050000000  0.4915160000000 1.0
END
