TITL C-2622956-4641-475 -0.00141254477240179 125000 -851.636442376647 0 0 157 (C1) n - 1
REM
REM in /nfs/bkarasulu/CARBON/AIRSS/Generating-Clusters/AIREBO/with-SteepDescent/Higher-Symm/SD-CG/HFTN-CG
REM
REM
REM
REM
REM
REM ./C.cell (b20cbc046b6831c77cfcea5457e17084)
REM
REM compiler GCC version 9.2.1 20190827 (Red Hat 9.2.1-1)
REM options -cpp -mtune=generic -march=x86-64 -g -O0 -fpre-include=/usr/include/finclude/math-vector-fortran.h
REM seed -166947298 -13148143 -1843264299 -1181288661 2095642156 2028822203 8318684 919098868 90929782 -356054392 1294834853 2146068735 -282333550 -594606794 1439345853 -829524107 497342152 1656291205 1376463669 -1545567760 -67202810 -979730098 689846990 -931482703 1388256023 680814368 -311550012 -980138607 421131164 391981384 -684907470 1350036807 -1028162201
REM
CELL 1.54180   50.00000   50.00000   50.00000   90.00000   90.00000   90.00000
LATT -1
SFAC C  
C      1  0.5441240000000  0.5438380000000  0.5902660000000 1.0
C      1  0.4516980000000  0.5493480000000  0.5787790000000 1.0
C      1  0.4146380000000  0.5473960000000  0.4958820000000 1.0
C      1  0.4500180000000  0.5383330000000  0.4148040000000 1.0
C      1  0.5809130000000  0.5564790000000  0.4311280000000 1.0
C      1  0.6011410000000  0.5419190000000  0.5136920000000 1.0
C      1  0.5093120000000  0.4550880000000  0.6255930000000 1.0
C      1  0.4208140000000  0.4428120000000  0.5703700000000 1.0
C      1  0.3950810000000  0.4421240000000  0.4670230000000 1.0
C      1  0.4714830000000  0.4528540000000  0.3748420000000 1.0
C      1  0.6000390000000  0.4759250000000  0.4098000000000 1.0
C      1  0.6140920000000  0.4479820000000  0.5528680000000 1.0
C      1  0.5912320000000  0.5290350000000  0.5441720000000 1.0
C      1  0.5128110000000  0.5339580000000  0.6012450000000 1.0
C      1  0.4224800000000  0.5433310000000  0.5619870000000 1.0
C      1  0.4068750000000  0.5321320000000  0.4662970000000 1.0
C      1  0.4754460000000  0.5255840000000  0.3961740000000 1.0
C      1  0.5845790000000  0.5304480000000  0.4489160000000 1.0
C      1  0.5940050000000  0.4631230000000  0.5459650000000 1.0
C      1  0.5026340000000  0.4678350000000  0.6039300000000 1.0
C      1  0.4184510000000  0.4686420000000  0.5627030000000 1.0
C      1  0.4037150000000  0.4694790000000  0.4575340000000 1.0
C      1  0.4841340000000  0.4651280000000  0.3940880000000 1.0
C      1  0.5857070000000  0.4778400000000  0.4313870000000 1.0
C      1  0.5727250000000  0.4203340000000  0.4711900000000 1.0
C      1  0.5676360000000  0.4183800000000  0.5203530000000 1.0
C      1  0.5187700000000  0.4174740000000  0.5685220000000 1.0
C      1  0.4419020000000  0.3969320000000  0.5405220000000 1.0
C      1  0.4415930000000  0.4151190000000  0.4456660000000 1.0
C      1  0.4895690000000  0.4149220000000  0.4275650000000 1.0
C      1  0.5455150000000  0.5805740000000  0.4622650000000 1.0
C      1  0.5601070000000  0.5720990000000  0.5160070000000 1.0
C      1  0.5161550000000  0.5777570000000  0.5609470000000 1.0
C      1  0.4613740000000  0.5924610000000  0.5224220000000 1.0
C      1  0.4374720000000  0.5898640000000  0.4580570000000 1.0
C      1  0.4889980000000  0.5725720000000  0.4390430000000 1.0
C      1  0.5541270000000  0.5175670000000  0.4409680000000 1.0
C      1  0.5816410000000  0.5082470000000  0.5188310000000 1.0
C      1  0.5243570000000  0.5124630000000  0.5775640000000 1.0
C      1  0.4434490000000  0.5169500000000  0.5574710000000 1.0
C      1  0.4277420000000  0.5121770000000  0.4833750000000 1.0
C      1  0.4737180000000  0.5078910000000  0.4251580000000 1.0
C      1  0.5566100000000  0.4871370000000  0.4329930000000 1.0
C      1  0.5905180000000  0.4754350000000  0.5176950000000 1.0
C      1  0.5221660000000  0.4794240000000  0.5830310000000 1.0
C      1  0.4342870000000  0.4894500000000  0.5708830000000 1.0
C      1  0.4159570000000  0.4821080000000  0.4836670000000 1.0
C      1  0.4706100000000  0.4762710000000  0.4195620000000 1.0
C      1  0.4733440000000  0.4731240000000  0.5942360000000 1.0
C      1  0.4100840000000  0.4730440000000  0.5335710000000 1.0
C      1  0.4268790000000  0.4699590000000  0.4360960000000 1.0
C      1  0.5136400000000  0.4718170000000  0.3943180000000 1.0
C      1  0.5946170000000  0.4711300000000  0.4597890000000 1.0
C      1  0.5699770000000  0.4698930000000  0.5650260000000 1.0
C      1  0.4802440000000  0.5356370000000  0.5911990000000 1.0
C      1  0.4225380000000  0.5400320000000  0.5281290000000 1.0
C      1  0.4303760000000  0.5315290000000  0.4417150000000 1.0
C      1  0.5067480000000  0.5258680000000  0.4094720000000 1.0
C      1  0.5904740000000  0.5349450000000  0.4821090000000 1.0
C      1  0.5657710000000  0.5329100000000  0.5664070000000 1.0
C      1  0.4733650000000  0.5063720000000  0.5041030000000 1.0
C      1  0.4796290000000  0.5200510000000  0.4756360000000 1.0
C      1  0.5115280000000  0.5117150000000  0.4668630000000 1.0
C      1  0.5385800000000  0.5134310000000  0.4887360000000 1.0
C      1  0.5280710000000  0.5182990000000  0.5270070000000 1.0
C      1  0.4908200000000  0.5229190000000  0.5404450000000 1.0
C      1  0.4625130000000  0.4743240000000  0.5074920000000 1.0
C      1  0.4742010000000  0.4710810000000  0.4755930000000 1.0
C      1  0.5041930000000  0.4792350000000  0.4737620000000 1.0
C      1  0.5282550000000  0.4825580000000  0.4963070000000 1.0
C      1  0.5240220000000  0.4785970000000  0.5286310000000 1.0
C      1  0.4695590000000  0.4682890000000  0.5402550000000 1.0
C      1  0.5484670000000  0.4563590000000  0.4933350000000 1.0
C      1  0.5265590000000  0.4491990000000  0.5415740000000 1.0
C      1  0.4688750000000  0.4377210000000  0.5485350000000 1.0
C      1  0.4458710000000  0.4447400000000  0.5054990000000 1.0
C      1  0.4664650000000  0.4439970000000  0.4577890000000 1.0
C      1  0.5173830000000  0.4577500000000  0.4558930000000 1.0
C      1  0.5338490000000  0.5470620000000  0.4906390000000 1.0
C      1  0.5247410000000  0.5485110000000  0.5233670000000 1.0
C      1  0.4957080000000  0.5554000000000  0.5349900000000 1.0
C      1  0.4703390000000  0.5520140000000  0.5145660000000 1.0
C      1  0.4723370000000  0.5494750000000  0.4856480000000 1.0
C      1  0.5200410000000  0.5439020000000  0.4599340000000 1.0
C      1  0.4777200000000  0.4442560000000  0.4285340000000 1.0
C      1  0.5468100000000  0.4626040000000  0.4521940000000 1.0
C      1  0.5699800000000  0.4509220000000  0.5164730000000 1.0
C      1  0.5136940000000  0.4492860000000  0.5704120000000 1.0
C      1  0.4406310000000  0.4250760000000  0.5527790000000 1.0
C      1  0.4247630000000  0.4492640000000  0.4843190000000 1.0
C      1  0.4776080000000  0.5413000000000  0.4320850000000 1.0
C      1  0.5505810000000  0.5509520000000  0.4463530000000 1.0
C      1  0.5673590000000  0.5388170000000  0.5144430000000 1.0
C      1  0.5222440000000  0.5437270000000  0.5642420000000 1.0
C      1  0.4581120000000  0.5452610000000  0.5456330000000 1.0
C      1  0.4431190000000  0.5420720000000  0.4780840000000 1.0
C      1  0.4761270000000  0.5150850000000  0.5644260000000 1.0
C      1  0.4423730000000  0.5162220000000  0.5140450000000 1.0
C      1  0.4572840000000  0.5141320000000  0.4532430000000 1.0
C      1  0.5219110000000  0.5087140000000  0.4346090000000 1.0
C      1  0.5685670000000  0.5095400000000  0.4876590000000 1.0
C      1  0.5433470000000  0.5124390000000  0.5511020000000 1.0
C      1  0.4658070000000  0.4850820000000  0.5655700000000 1.0
C      1  0.4300700000000  0.4845980000000  0.5119170000000 1.0
C      1  0.4558210000000  0.4814180000000  0.4488850000000 1.0
C      1  0.5276960000000  0.4798270000000  0.4217440000000 1.0
C      1  0.5845200000000  0.4832420000000  0.4880130000000 1.0
C      1  0.5415860000000  0.4823180000000  0.5579110000000 1.0
C      1  0.4345550000000  0.5630690000000  0.4537080000000 1.0
C      1  0.5095420000000  0.5494090000000  0.4316180000000 1.0
C      1  0.5640260000000  0.5552650000000  0.4772870000000 1.0
C      1  0.5538340000000  0.5508000000000  0.5408210000000 1.0
C      1  0.4923810000000  0.5566300000000  0.5688100000000 1.0
C      1  0.4426530000000  0.5673540000000  0.5257580000000 1.0
C      1  0.4348680000000  0.4446360000000  0.4550970000000 1.0
C      1  0.5052310000000  0.4578710000000  0.4271400000000 1.0
C      1  0.5707660000000  0.4513030000000  0.4686580000000 1.0
C      1  0.5570180000000  0.4482370000000  0.5445570000000 1.0
C      1  0.4834500000000  0.4501100000000  0.5734370000000 1.0
C      1  0.4285460000000  0.4455730000000  0.5312480000000 1.0
C      1  0.5210510000000  0.5173130000000  0.3825380000000 1.0
C      1  0.6171610000000  0.5151920000000  0.4747790000000 1.0
C      1  0.5816730000000  0.5121830000000  0.5871640000000 1.0
C      1  0.4663070000000  0.5175580000000  0.6146900000000 1.0
C      1  0.3946800000000  0.5206370000000  0.5300980000000 1.0
C      1  0.4115490000000  0.5132190000000  0.4216240000000 1.0
C      1  0.5212620000000  0.4931420000000  0.3748260000000 1.0
C      1  0.6186880000000  0.4909080000000  0.4689030000000 1.0
C      1  0.5805140000000  0.4871700000000  0.5880670000000 1.0
C      1  0.4620000000000  0.4928110000000  0.6151650000000 1.0
C      1  0.3893820000000  0.4962900000000  0.5319590000000 1.0
C      1  0.4153230000000  0.4892260000000  0.4154380000000 1.0
C      1  0.5445850000000  0.4081360000000  0.5237990000000 1.0
C      1  0.5045350000000  0.4036470000000  0.5525840000000 1.0
C      1  0.4534590000000  0.3948380000000  0.5179780000000 1.0
C      1  0.4624400000000  0.4043040000000  0.4549210000000 1.0
C      1  0.5042250000000  0.4082410000000  0.4473050000000 1.0
C      1  0.5536420000000  0.4093570000000  0.4840340000000 1.0
C      1  0.5514110000000  0.6005900000000  0.5268950000000 1.0
C      1  0.5012870000000  0.6064930000000  0.5605060000000 1.0
C      1  0.4580510000000  0.6071530000000  0.5000280000000 1.0
C      1  0.4214930000000  0.6089250000000  0.4478890000000 1.0
C      1  0.4977510000000  0.6018340000000  0.4478240000000 1.0
C      1  0.5499540000000  0.6039820000000  0.4839490000000 1.0
C      1  0.4665830000000  0.4209780000000  0.5038220000000 1.0
C      1  0.4798010000000  0.4203010000000  0.4765940000000 1.0
C      1  0.5106750000000  0.4306990000000  0.4699410000000 1.0
C      1  0.5297310000000  0.4285680000000  0.4928750000000 1.0
C      1  0.5170300000000  0.4268560000000  0.5226480000000 1.0
C      1  0.4865830000000  0.4193090000000  0.5293950000000 1.0
C      1  0.4593870000000  0.5955190000000  0.4747180000000 1.0
C      1  0.4811550000000  0.5746840000000  0.4716410000000 1.0
C      1  0.5131270000000  0.5856650000000  0.4712820000000 1.0
C      1  0.5313320000000  0.5798420000000  0.4994080000000 1.0
C      1  0.5210410000000  0.5907770000000  0.5299180000000 1.0
C      1  0.4881840000000  0.5885610000000  0.5345490000000 1.0
C      1  0.5008980000000  0.5010840000000  0.5205350000000 1.0
END
