TITL C-2622953-3516-728 4.88340924025327e-05 125000 -79.0175337199745 0 0 15 (C1) n - 1
REM
REM in /nfs/bkarasulu/CARBON/AIRSS/Generating-Clusters/AIREBO/with-SteepDescent/Higher-Symm/SD-CG/HFTN-CG
REM
REM
REM
REM
REM
REM ./C.cell (b20cbc046b6831c77cfcea5457e17084)
REM
REM compiler GCC version 9.2.1 20190827 (Red Hat 9.2.1-1)
REM options -cpp -mtune=generic -march=x86-64 -g -O0 -fpre-include=/usr/include/finclude/math-vector-fortran.h
REM seed 471487167 -1860923265 -446313062 -2135047485 -1615100877 621962972 1838256600 546080118 1809105628 1399371512 -2065000168 -1384506082 1876141164 1163817808 -938734461 2026066499 -364128605 -1577119119 -2113751075 222828972 1014865747 338577721 -1714228428 1994881654 301001146 -213535209 -988061400 -407952282 130019143 -335283710 -1699705850 -437852430 -508693709
REM
CELL 1.54180   50.00000   50.00000   50.00000   90.00000   90.00000   90.00000
LATT -1
SFAC C  
C      1  0.4676320000000  0.4697500000000  0.4465420000000 1.0
C      1  0.5043850000000  0.4746480000000  0.4808400000000 1.0
C      1  0.4513920000000  0.5032550000000  0.4984950000000 1.0
C      1  0.5233450000000  0.5020810000000  0.5166550000000 1.0
C      1  0.4450750000000  0.4838750000000  0.4530800000000 1.0
C      1  0.5376490000000  0.5335730000000  0.5498510000000 1.0
C      1  0.4931170000000  0.4712070000000  0.4562860000000 1.0
C      1  0.5216710000000  0.5308680000000  0.5262550000000 1.0
C      1  0.4943490000000  0.5367810000000  0.5324610000000 1.0
C      1  0.4750760000000  0.4971380000000  0.5104650000000 1.0
C      1  0.5312210000000  0.5481510000000  0.5056110000000 1.0
C      1  0.4369970000000  0.4932830000000  0.4775200000000 1.0
C      1  0.5472690000000  0.4887240000000  0.5191110000000 1.0
C      1  0.5691790000000  0.4750890000000  0.5237070000000 1.0
C      1  0.5016430000000  0.4915760000000  0.5031220000000 1.0
END
