TITL C-2622954-8726-641 0.000331095573389674 125000 -539.562401148522 0 0 104 (C1) n - 1
REM
REM in /nfs/bkarasulu/CARBON/AIRSS/Generating-Clusters/AIREBO/with-SteepDescent/Higher-Symm/SD-CG/HFTN-CG
REM
REM
REM
REM
REM
REM ./C.cell (b20cbc046b6831c77cfcea5457e17084)
REM
REM compiler GCC version 9.2.1 20190827 (Red Hat 9.2.1-1)
REM options -cpp -mtune=generic -march=x86-64 -g -O0 -fpre-include=/usr/include/finclude/math-vector-fortran.h
REM seed -1350849504 1858030928 81296585 -156188018 1493923429 425822743 215571010 532208915 290985523 -57067416 311833277 433160306 2047825626 -343330067 755941727 910980898 -90198365 -852353276 -1459787022 -327167612 1378722483 364398014 945005479 1435630318 385263921 -1526136931 -1145144884 -511071967 -1720671262 -311525168 -1221030268 1678760464 -1378128104
REM
CELL 1.54180   50.00000   50.00000   50.00000   90.00000   90.00000   90.00000
LATT -1
SFAC C  
C      1  0.5136510000000  0.5129180000000  0.4172870000000 1.0
C      1  0.4177530000000  0.5253540000000  0.5165200000000 1.0
C      1  0.5311020000000  0.4120200000000  0.5187650000000 1.0
C      1  0.4746870000000  0.4762220000000  0.4180790000000 1.0
C      1  0.4827230000000  0.5102430000000  0.5796950000000 1.0
C      1  0.5263720000000  0.4793210000000  0.5855990000000 1.0
C      1  0.5798780000000  0.4859780000000  0.5209830000000 1.0
C      1  0.5779950000000  0.5174960000000  0.4832740000000 1.0
C      1  0.4252260000000  0.4886740000000  0.4817140000000 1.0
C      1  0.4813670000000  0.5921710000000  0.5190550000000 1.0
C      1  0.4889450000000  0.4145520000000  0.4862970000000 1.0
C      1  0.5204630000000  0.5888080000000  0.4828830000000 1.0
C      1  0.5160450000000  0.5113060000000  0.5803830000000 1.0
C      1  0.4249860000000  0.5226610000000  0.4833490000000 1.0
C      1  0.5220290000000  0.4143880000000  0.4923730000000 1.0
C      1  0.4926980000000  0.4774770000000  0.5811170000000 1.0
C      1  0.4796460000000  0.5098720000000  0.4184250000000 1.0
C      1  0.5057430000000  0.4807480000000  0.4107170000000 1.0
C      1  0.5776320000000  0.4835100000000  0.4869930000000 1.0
C      1  0.5720260000000  0.5191250000000  0.5169620000000 1.0
C      1  0.4158910000000  0.4915950000000  0.5166920000000 1.0
C      1  0.4866840000000  0.5883530000000  0.4869550000000 1.0
C      1  0.4701370000000  0.4187430000000  0.5145000000000 1.0
C      1  0.5151790000000  0.5928200000000  0.5148400000000 1.0
C      1  0.4574000000000  0.4691840000000  0.4462410000000 1.0
C      1  0.4467160000000  0.4624190000000  0.4839980000000 1.0
C      1  0.4852540000000  0.4335660000000  0.4580440000000 1.0
C      1  0.5395420000000  0.5144850000000  0.4397940000000 1.0
C      1  0.5553930000000  0.4771310000000  0.5644470000000 1.0
C      1  0.4577280000000  0.5112120000000  0.5566540000000 1.0
C      1  0.5552960000000  0.5422790000000  0.4776190000000 1.0
C      1  0.5626870000000  0.4576120000000  0.5289140000000 1.0
C      1  0.4419470000000  0.5469630000000  0.5267340000000 1.0
C      1  0.5160080000000  0.5651880000000  0.4464210000000 1.0
C      1  0.5198350000000  0.4347440000000  0.5363080000000 1.0
C      1  0.4846740000000  0.5546280000000  0.5472690000000 1.0
C      1  0.4622390000000  0.4788370000000  0.5660200000000 1.0
C      1  0.4346970000000  0.4636600000000  0.5127830000000 1.0
C      1  0.4863550000000  0.4366550000000  0.5384450000000 1.0
C      1  0.5441030000000  0.5059610000000  0.5619160000000 1.0
C      1  0.5512810000000  0.4828380000000  0.4439050000000 1.0
C      1  0.4557390000000  0.5220290000000  0.4395510000000 1.0
C      1  0.5578640000000  0.5484980000000  0.5267980000000 1.0
C      1  0.5531650000000  0.4615340000000  0.4777030000000 1.0
C      1  0.4482850000000  0.5454710000000  0.4732400000000 1.0
C      1  0.5088510000000  0.5711260000000  0.5402480000000 1.0
C      1  0.5148440000000  0.4332630000000  0.4412890000000 1.0
C      1  0.4923350000000  0.5642240000000  0.4636670000000 1.0
C      1  0.4563670000000  0.5180050000000  0.5161230000000 1.0
C      1  0.5113110000000  0.4563170000000  0.5147650000000 1.0
C      1  0.5131580000000  0.5165920000000  0.4614340000000 1.0
C      1  0.5410590000000  0.4807100000000  0.5235650000000 1.0
C      1  0.5394090000000  0.5156050000000  0.4915590000000 1.0
C      1  0.4666430000000  0.4876470000000  0.4804070000000 1.0
C      1  0.4802280000000  0.5381700000000  0.5205210000000 1.0
C      1  0.4884510000000  0.4543330000000  0.4823080000000 1.0
C      1  0.5165950000000  0.5361860000000  0.4840800000000 1.0
C      1  0.4868550000000  0.4836150000000  0.4553280000000 1.0
C      1  0.4876270000000  0.5152860000000  0.5407600000000 1.0
C      1  0.5099250000000  0.4832280000000  0.5328230000000 1.0
C      1  0.4645700000000  0.5198150000000  0.4853780000000 1.0
C      1  0.5144680000000  0.4686390000000  0.4840720000000 1.0
C      1  0.5216120000000  0.5114700000000  0.5408800000000 1.0
C      1  0.5386570000000  0.4869010000000  0.4942480000000 1.0
C      1  0.5332240000000  0.5280930000000  0.5194950000000 1.0
C      1  0.4617330000000  0.4842830000000  0.5138820000000 1.0
C      1  0.4898720000000  0.5494680000000  0.4937850000000 1.0
C      1  0.4783910000000  0.4559060000000  0.5115070000000 1.0
C      1  0.5164010000000  0.5533090000000  0.5142650000000 1.0
C      1  0.4805610000000  0.4832510000000  0.5405260000000 1.0
C      1  0.4823450000000  0.5159580000000  0.4576250000000 1.0
C      1  0.5207120000000  0.4848900000000  0.4586560000000 1.0
C      1  0.4304150000000  0.5144060000000  0.5461320000000 1.0
C      1  0.5569780000000  0.4247990000000  0.5253280000000 1.0
C      1  0.5215560000000  0.5443610000000  0.4205110000000 1.0
C      1  0.5828940000000  0.4817190000000  0.5528370000000 1.0
C      1  0.5716090000000  0.5195610000000  0.4499240000000 1.0
C      1  0.4294540000000  0.4794500000000  0.4524250000000 1.0
C      1  0.4578330000000  0.5772250000000  0.5284080000000 1.0
C      1  0.4570720000000  0.4111670000000  0.4749450000000 1.0
C      1  0.5426780000000  0.5738100000000  0.4755830000000 1.0
C      1  0.4792970000000  0.4434560000000  0.4260460000000 1.0
C      1  0.4737150000000  0.5415400000000  0.5765990000000 1.0
C      1  0.5341700000000  0.4495890000000  0.5835060000000 1.0
C      1  0.4288860000000  0.5193810000000  0.4503100000000 1.0
C      1  0.5398660000000  0.4302060000000  0.4782070000000 1.0
C      1  0.5288020000000  0.5402260000000  0.5749390000000 1.0
C      1  0.5790870000000  0.4811340000000  0.4550500000000 1.0
C      1  0.5689870000000  0.5191440000000  0.5507380000000 1.0
C      1  0.4161900000000  0.4752070000000  0.5460160000000 1.0
C      1  0.4566590000000  0.5755370000000  0.4771800000000 1.0
C      1  0.4476290000000  0.4388230000000  0.5302890000000 1.0
C      1  0.5445970000000  0.5798780000000  0.5259820000000 1.0
C      1  0.4865290000000  0.4478060000000  0.5686420000000 1.0
C      1  0.4787250000000  0.5438180000000  0.4166380000000 1.0
C      1  0.5215660000000  0.4589070000000  0.4199980000000 1.0
C      1  0.5437120000000  0.5476380000000  0.4460980000000 1.0
C      1  0.4523950000000  0.5591720000000  0.5567070000000 1.0
C      1  0.5411240000000  0.4482700000000  0.5534950000000 1.0
C      1  0.4521350000000  0.4396980000000  0.4627410000000 1.0
C      1  0.5347740000000  0.5548180000000  0.5509990000000 1.0
C      1  0.4691980000000  0.5522790000000  0.4472880000000 1.0
C      1  0.5409500000000  0.4526070000000  0.4472310000000 1.0
C      1  0.4396750000000  0.4609770000000  0.5523240000000 1.0
END
