TITL C-2622953-3516-824 0.00119036103032652 125000 -753.591249650637 0 0 134 (C1) n - 1
REM
REM in /nfs/bkarasulu/CARBON/AIRSS/Generating-Clusters/AIREBO/with-SteepDescent/Higher-Symm/SD-CG/HFTN-CG
REM
REM
REM
REM
REM
REM ./C.cell (b20cbc046b6831c77cfcea5457e17084)
REM
REM compiler GCC version 9.2.1 20190827 (Red Hat 9.2.1-1)
REM options -cpp -mtune=generic -march=x86-64 -g -O0 -fpre-include=/usr/include/finclude/math-vector-fortran.h
REM seed 2044957360 240684064 164538042 -675026606 1220532214 1563925986 -2094265480 -1111567206 167370353 -1222931013 1409743381 907567585 -1503209982 751966347 1891219774 -1370104134 -1652532319 -1884291673 1018400690 -409185870 -922804034 405088467 -543914698 -1640207027 604755056 -985443106 1129128681 526815400 -910440874 1357138813 -138492258 1941207348 988918898
REM
CELL 1.54180   50.00000   50.00000   50.00000   90.00000   90.00000   90.00000
LATT -1
SFAC C  
C      1  0.5734080000000  0.5260680000000  0.4536690000000 1.0
C      1  0.5691340000000  0.4771170000000  0.5468150000000 1.0
C      1  0.4280790000000  0.4734250000000  0.4533610000000 1.0
C      1  0.4315670000000  0.5216550000000  0.5464590000000 1.0
C      1  0.5654140000000  0.4565000000000  0.5295830000000 1.0
C      1  0.5709440000000  0.5456750000000  0.4729190000000 1.0
C      1  0.4283630000000  0.4539690000000  0.4728720000000 1.0
C      1  0.4318520000000  0.5423610000000  0.5283230000000 1.0
C      1  0.5088620000000  0.6020460000000  0.5161920000000 1.0
C      1  0.5112540000000  0.4044060000000  0.4942060000000 1.0
C      1  0.4860040000000  0.4030140000000  0.5133320000000 1.0
C      1  0.4912250000000  0.5951520000000  0.4932510000000 1.0
C      1  0.5118440000000  0.5080330000000  0.5920530000000 1.0
C      1  0.5078870000000  0.4953730000000  0.4129010000000 1.0
C      1  0.4831250000000  0.5090130000000  0.4115350000000 1.0
C      1  0.4840930000000  0.4947340000000  0.5893720000000 1.0
C      1  0.4914690000000  0.4475940000000  0.4047700000000 1.0
C      1  0.4876480000000  0.5523770000000  0.5946790000000 1.0
C      1  0.5106930000000  0.5516120000000  0.4061480000000 1.0
C      1  0.5113150000000  0.4505810000000  0.5960930000000 1.0
C      1  0.4902440000000  0.4021790000000  0.4447960000000 1.0
C      1  0.4821990000000  0.5859780000000  0.5614090000000 1.0
C      1  0.5157110000000  0.4065890000000  0.5602060000000 1.0
C      1  0.5179800000000  0.5920860000000  0.4435230000000 1.0
C      1  0.4493400000000  0.5168060000000  0.4007110000000 1.0
C      1  0.4353950000000  0.5012950000000  0.5906460000000 1.0
C      1  0.5431610000000  0.4916570000000  0.4044570000000 1.0
C      1  0.5631260000000  0.4925770000000  0.5910400000000 1.0
C      1  0.4476750000000  0.4031030000000  0.5036170000000 1.0
C      1  0.4427890000000  0.5965250000000  0.5011830000000 1.0
C      1  0.5492010000000  0.4056330000000  0.5056940000000 1.0
C      1  0.5479530000000  0.6048210000000  0.4930110000000 1.0
C      1  0.4655570000000  0.4660150000000  0.4416810000000 1.0
C      1  0.4840510000000  0.5410910000000  0.5565270000000 1.0
C      1  0.5146320000000  0.5373170000000  0.4431940000000 1.0
C      1  0.5191380000000  0.4677170000000  0.5608970000000 1.0
C      1  0.4756570000000  0.4414050000000  0.4633660000000 1.0
C      1  0.4789280000000  0.5590290000000  0.5314060000000 1.0
C      1  0.5160710000000  0.4436960000000  0.5368130000000 1.0
C      1  0.5220930000000  0.5590040000000  0.4684420000000 1.0
C      1  0.5404920000000  0.4242770000000  0.4537260000000 1.0
C      1  0.5402950000000  0.5717330000000  0.5488710000000 1.0
C      1  0.4604280000000  0.5790710000000  0.4515860000000 1.0
C      1  0.4587070000000  0.4247050000000  0.5538400000000 1.0
C      1  0.5400860000000  0.4468940000000  0.4281890000000 1.0
C      1  0.5428060000000  0.5502790000000  0.5756830000000 1.0
C      1  0.4565090000000  0.4500860000000  0.5768580000000 1.0
C      1  0.4582600000000  0.5594800000000  0.4237960000000 1.0
C      1  0.4865090000000  0.4664130000000  0.5512810000000 1.0
C      1  0.4825100000000  0.5313910000000  0.4472310000000 1.0
C      1  0.5162550000000  0.5312230000000  0.5529660000000 1.0
C      1  0.5142000000000  0.4724950000000  0.4487250000000 1.0
C      1  0.4887920000000  0.5521880000000  0.4698310000000 1.0
C      1  0.4836530000000  0.4442330000000  0.5297490000000 1.0
C      1  0.5117910000000  0.5525310000000  0.5288170000000 1.0
C      1  0.5089900000000  0.4476070000000  0.4672850000000 1.0
C      1  0.4200690000000  0.4514330000000  0.5227470000000 1.0
C      1  0.4228360000000  0.5460060000000  0.4777960000000 1.0
C      1  0.5816450000000  0.5480890000000  0.5231550000000 1.0
C      1  0.5786600000000  0.4530210000000  0.4797280000000 1.0
C      1  0.4238340000000  0.5242880000000  0.4547440000000 1.0
C      1  0.4222260000000  0.4740960000000  0.5441020000000 1.0
C      1  0.5802130000000  0.5250840000000  0.5444510000000 1.0
C      1  0.5817690000000  0.4744910000000  0.4563120000000 1.0
C      1  0.4580750000000  0.3984010000000  0.5322970000000 1.0
C      1  0.4620260000000  0.6006360000000  0.4765930000000 1.0
C      1  0.5407590000000  0.5934340000000  0.5242310000000 1.0
C      1  0.5407630000000  0.3994290000000  0.4767760000000 1.0
C      1  0.4443450000000  0.5430600000000  0.4002200000000 1.0
C      1  0.4541570000000  0.4813240000000  0.5903060000000 1.0
C      1  0.5440230000000  0.5177840000000  0.5858710000000 1.0
C      1  0.5492790000000  0.4656720000000  0.4034590000000 1.0
C      1  0.4429850000000  0.4320000000000  0.4643210000000 1.0
C      1  0.4460840000000  0.5647340000000  0.5360110000000 1.0
C      1  0.5546120000000  0.5662550000000  0.4651840000000 1.0
C      1  0.5493210000000  0.4376610000000  0.5405940000000 1.0
C      1  0.4359710000000  0.4609430000000  0.4257040000000 1.0
C      1  0.4375960000000  0.5241710000000  0.5737160000000 1.0
C      1  0.5614780000000  0.4719260000000  0.5732560000000 1.0
C      1  0.5650610000000  0.5337240000000  0.4284670000000 1.0
C      1  0.5266100000000  0.4299220000000  0.5091340000000 1.0
C      1  0.5318140000000  0.5764940000000  0.4959440000000 1.0
C      1  0.4680760000000  0.5754770000000  0.5047520000000 1.0
C      1  0.4702040000000  0.4247730000000  0.4925240000000 1.0
C      1  0.5306980000000  0.5119290000000  0.4287510000000 1.0
C      1  0.5275520000000  0.4953150000000  0.5663740000000 1.0
C      1  0.4784040000000  0.5104830000000  0.5631750000000 1.0
C      1  0.4566010000000  0.4943900000000  0.4252230000000 1.0
C      1  0.5335370000000  0.5084750000000  0.5393930000000 1.0
C      1  0.5380530000000  0.4960160000000  0.4545460000000 1.0
C      1  0.4701710000000  0.4918050000000  0.5408410000000 1.0
C      1  0.4692640000000  0.5053230000000  0.4534610000000 1.0
C      1  0.5353860000000  0.5464470000000  0.5052470000000 1.0
C      1  0.5317200000000  0.4542100000000  0.4917350000000 1.0
C      1  0.4679120000000  0.5453910000000  0.4942730000000 1.0
C      1  0.4657330000000  0.4529050000000  0.5056190000000 1.0
C      1  0.4805420000000  0.4753540000000  0.4939180000000 1.0
C      1  0.4878850000000  0.5258810000000  0.5048160000000 1.0
C      1  0.5166120000000  0.5260580000000  0.4945860000000 1.0
C      1  0.5122110000000  0.4762870000000  0.4962700000000 1.0
C      1  0.4889050000000  0.4873600000000  0.4658880000000 1.0
C      1  0.4842690000000  0.4973690000000  0.5154710000000 1.0
C      1  0.5173860000000  0.5014720000000  0.5161770000000 1.0
C      1  0.5176250000000  0.5010790000000  0.4762900000000 1.0
C      1  0.5415220000000  0.5782800000000  0.4395430000000 1.0
C      1  0.5389580000000  0.4202240000000  0.5636540000000 1.0
C      1  0.4665840000000  0.4185410000000  0.4398830000000 1.0
C      1  0.4583920000000  0.5720320000000  0.5629160000000 1.0
C      1  0.5387290000000  0.4481260000000  0.5781980000000 1.0
C      1  0.5386980000000  0.5511330000000  0.4237620000000 1.0
C      1  0.4636550000000  0.4420270000000  0.4186800000000 1.0
C      1  0.4592800000000  0.5443950000000  0.5795820000000 1.0
C      1  0.5089780000000  0.4145890000000  0.4620370000000 1.0
C      1  0.5083860000000  0.5826850000000  0.5441520000000 1.0
C      1  0.4927220000000  0.5846930000000  0.4606270000000 1.0
C      1  0.4900480000000  0.4146640000000  0.5452720000000 1.0
C      1  0.5120280000000  0.4630770000000  0.4177910000000 1.0
C      1  0.5116610000000  0.5406220000000  0.5853330000000 1.0
C      1  0.4876330000000  0.4614220000000  0.5846610000000 1.0
C      1  0.4855440000000  0.5415250000000  0.4157840000000 1.0
C      1  0.5630170000000  0.5034210000000  0.5330810000000 1.0
C      1  0.5660470000000  0.4987280000000  0.4650280000000 1.0
C      1  0.4396910000000  0.4954830000000  0.5332870000000 1.0
C      1  0.4386340000000  0.4996510000000  0.4649030000000 1.0
C      1  0.5644980000000  0.5348630000000  0.5011330000000 1.0
C      1  0.5606810000000  0.4662880000000  0.5007150000000 1.0
C      1  0.4393190000000  0.5330840000000  0.5000370000000 1.0
C      1  0.4367690000000  0.4646770000000  0.5001980000000 1.0
C      1  0.5644720000000  0.4463490000000  0.4502790000000 1.0
C      1  0.4334320000000  0.4447900000000  0.5533420000000 1.0
C      1  0.4404100000000  0.5531110000000  0.4503490000000 1.0
C      1  0.5671710000000  0.5542950000000  0.5533440000000 1.0
C      1  0.4377580000000  0.4989910000000  0.4993280000000 1.0
C      1  0.5648800000000  0.5005240000000  0.4990680000000 1.0
END
