TITL C-2622962-9663-727 -0.000368215792858049 125000 -1027.1690717314 0 0 185 (C1) n - 1
REM
REM in /nfs/bkarasulu/CARBON/AIRSS/Generating-Clusters/AIREBO/with-SteepDescent/Higher-Symm/SD-CG/HFTN-CG
REM
REM
REM
REM
REM
REM ./C.cell (b20cbc046b6831c77cfcea5457e17084)
REM
REM compiler GCC version 9.2.1 20190827 (Red Hat 9.2.1-1)
REM options -cpp -mtune=generic -march=x86-64 -g -O0 -fpre-include=/usr/include/finclude/math-vector-fortran.h
REM seed -1220533778 2041617742 -1071734549 1187608609 -296801392 -1136185189 1574199488 -1482960558 -664718344 52367691 -24707434 -437993195 1766601782 1997847038 -135853600 -427043193 -641756644 -470327903 -891015517 1674985257 618963510 -1114399942 -2073638562 -1339316240 -1183482586 360968249 1239604133 764575011 109262891 -1227766861 -1554250189 -861772166 -1345922750
REM
CELL 1.54180   50.00000   50.00000   50.00000   90.00000   90.00000   90.00000
LATT -1
SFAC C  
C      1  0.5160290000000  0.3955960000000  0.5088340000000 1.0
C      1  0.5161570000000  0.6067080000000  0.4872910000000 1.0
C      1  0.4836810000000  0.3899260000000  0.5111280000000 1.0
C      1  0.4867130000000  0.6021260000000  0.4928420000000 1.0
C      1  0.5187060000000  0.4653280000000  0.4478850000000 1.0
C      1  0.5164010000000  0.5207300000000  0.5497800000000 1.0
C      1  0.4898090000000  0.4762630000000  0.4515080000000 1.0
C      1  0.4856710000000  0.5225970000000  0.5642110000000 1.0
C      1  0.4558720000000  0.4081250000000  0.4702590000000 1.0
C      1  0.4562990000000  0.5921070000000  0.5376630000000 1.0
C      1  0.5470380000000  0.4102590000000  0.4743760000000 1.0
C      1  0.5426640000000  0.5950080000000  0.5321810000000 1.0
C      1  0.4888230000000  0.4264680000000  0.5259060000000 1.0
C      1  0.4838070000000  0.5699670000000  0.4693580000000 1.0
C      1  0.5193860000000  0.4293460000000  0.5296660000000 1.0
C      1  0.5126990000000  0.5721130000000  0.4678060000000 1.0
C      1  0.4223370000000  0.5009180000000  0.4933320000000 1.0
C      1  0.4210330000000  0.5275490000000  0.5069540000000 1.0
C      1  0.5775250000000  0.4893150000000  0.4900730000000 1.0
C      1  0.5710450000000  0.5167550000000  0.5035180000000 1.0
C      1  0.4795620000000  0.5134820000000  0.6065050000000 1.0
C      1  0.4855390000000  0.4928840000000  0.4026260000000 1.0
C      1  0.5071140000000  0.5128710000000  0.5965310000000 1.0
C      1  0.5156250000000  0.4880360000000  0.3912040000000 1.0
C      1  0.5714490000000  0.5798640000000  0.4886200000000 1.0
C      1  0.5891000000000  0.4255650000000  0.5186490000000 1.0
C      1  0.4177660000000  0.5804560000000  0.4958680000000 1.0
C      1  0.4166940000000  0.4262040000000  0.5104480000000 1.0
C      1  0.4000090000000  0.4774970000000  0.4576280000000 1.0
C      1  0.4016640000000  0.5316450000000  0.5339500000000 1.0
C      1  0.6016990000000  0.4727030000000  0.4552800000000 1.0
C      1  0.5888710000000  0.5274510000000  0.5304300000000 1.0
C      1  0.4745620000000  0.5489230000000  0.4512250000000 1.0
C      1  0.4754370000000  0.4478960000000  0.5419730000000 1.0
C      1  0.5235870000000  0.5518520000000  0.4498110000000 1.0
C      1  0.5259800000000  0.4511780000000  0.5476320000000 1.0
C      1  0.5121960000000  0.4777330000000  0.5408900000000 1.0
C      1  0.5180430000000  0.5240940000000  0.4655650000000 1.0
C      1  0.4842590000000  0.4747130000000  0.5290440000000 1.0
C      1  0.4861890000000  0.5213220000000  0.4575500000000 1.0
C      1  0.4743890000000  0.4565820000000  0.5030420000000 1.0
C      1  0.4821450000000  0.5305970000000  0.5025270000000 1.0
C      1  0.5383410000000  0.4685570000000  0.4974840000000 1.0
C      1  0.5152360000000  0.5348540000000  0.4965210000000 1.0
C      1  0.4451710000000  0.5442940000000  0.5748560000000 1.0
C      1  0.4492890000000  0.4564700000000  0.4257020000000 1.0
C      1  0.5473040000000  0.5341130000000  0.5787660000000 1.0
C      1  0.5615900000000  0.4607380000000  0.4190250000000 1.0
C      1  0.5354510000000  0.3869220000000  0.4876100000000 1.0
C      1  0.5475420000000  0.6043290000000  0.5003720000000 1.0
C      1  0.4618220000000  0.3864340000000  0.4870670000000 1.0
C      1  0.4713090000000  0.6084090000000  0.5179630000000 1.0
C      1  0.5123700000000  0.4936000000000  0.5706440000000 1.0
C      1  0.5178340000000  0.5163450000000  0.4323960000000 1.0
C      1  0.4801790000000  0.4892710000000  0.5682060000000 1.0
C      1  0.4900650000000  0.5006960000000  0.4323490000000 1.0
C      1  0.4710730000000  0.4433000000000  0.4115890000000 1.0
C      1  0.4778080000000  0.5504040000000  0.5821820000000 1.0
C      1  0.5322760000000  0.4509670000000  0.4214700000000 1.0
C      1  0.5079270000000  0.5588680000000  0.5907090000000 1.0
C      1  0.5867410000000  0.4568600000000  0.5669270000000 1.0
C      1  0.5827300000000  0.5314580000000  0.4418760000000 1.0
C      1  0.4124690000000  0.4548540000000  0.5604570000000 1.0
C      1  0.4119570000000  0.5357140000000  0.4408590000000 1.0
C      1  0.4153290000000  0.5344110000000  0.5642660000000 1.0
C      1  0.4192380000000  0.4664050000000  0.4333500000000 1.0
C      1  0.5778500000000  0.5319000000000  0.5623250000000 1.0
C      1  0.5849700000000  0.4538380000000  0.4324430000000 1.0
C      1  0.5492310000000  0.5260360000000  0.5264010000000 1.0
C      1  0.5634620000000  0.4693430000000  0.4664170000000 1.0
C      1  0.4414400000000  0.5317480000000  0.5313240000000 1.0
C      1  0.4415890000000  0.4781770000000  0.4779220000000 1.0
C      1  0.4107140000000  0.5621720000000  0.5451560000000 1.0
C      1  0.4122260000000  0.4458080000000  0.4595150000000 1.0
C      1  0.5756560000000  0.5562020000000  0.5400520000000 1.0
C      1  0.5911340000000  0.4410340000000  0.4633330000000 1.0
C      1  0.4126670000000  0.4815880000000  0.5442450000000 1.0
C      1  0.4144410000000  0.5081390000000  0.4607210000000 1.0
C      1  0.5891010000000  0.4800830000000  0.5443710000000 1.0
C      1  0.5848620000000  0.5020330000000  0.4588990000000 1.0
C      1  0.5579800000000  0.4372320000000  0.4567850000000 1.0
C      1  0.5440180000000  0.5494200000000  0.5505280000000 1.0
C      1  0.4601090000000  0.4642470000000  0.4543980000000 1.0
C      1  0.4609950000000  0.5533260000000  0.5461470000000 1.0
C      1  0.5558510000000  0.4479560000000  0.5740710000000 1.0
C      1  0.5625640000000  0.5464950000000  0.4183380000000 1.0
C      1  0.4422680000000  0.4486350000000  0.5721360000000 1.0
C      1  0.4410570000000  0.5491380000000  0.4294430000000 1.0
C      1  0.5317270000000  0.5768410000000  0.4919370000000 1.0
C      1  0.5170660000000  0.4277100000000  0.4976940000000 1.0
C      1  0.4754170000000  0.5707960000000  0.5000820000000 1.0
C      1  0.4858580000000  0.4193930000000  0.4940280000000 1.0
C      1  0.6004310000000  0.4394400000000  0.5475490000000 1.0
C      1  0.6032060000000  0.5484770000000  0.4541770000000 1.0
C      1  0.4030920000000  0.4371100000000  0.5396440000000 1.0
C      1  0.3948910000000  0.5541360000000  0.4534960000000 1.0
C      1  0.4810260000000  0.4805840000000  0.4841090000000 1.0
C      1  0.4809440000000  0.5155320000000  0.5322070000000 1.0
C      1  0.5278610000000  0.4859040000000  0.4720470000000 1.0
C      1  0.5128200000000  0.5101420000000  0.5176620000000 1.0
C      1  0.6096900000000  0.5125210000000  0.5126990000000 1.0
C      1  0.6183290000000  0.5016170000000  0.4648880000000 1.0
C      1  0.3854610000000  0.5116890000000  0.5156530000000 1.0
C      1  0.3814910000000  0.5045080000000  0.4683050000000 1.0
C      1  0.4781690000000  0.4197900000000  0.4232730000000 1.0
C      1  0.4681290000000  0.5790870000000  0.5664290000000 1.0
C      1  0.5283350000000  0.4209890000000  0.4287980000000 1.0
C      1  0.5179170000000  0.5814600000000  0.5796330000000 1.0
C      1  0.5130960000000  0.4416410000000  0.5761070000000 1.0
C      1  0.5099820000000  0.5536670000000  0.4203910000000 1.0
C      1  0.4821980000000  0.4477880000000  0.5724110000000 1.0
C      1  0.4807270000000  0.5464820000000  0.4211020000000 1.0
C      1  0.4482450000000  0.5566180000000  0.5084200000000 1.0
C      1  0.4426910000000  0.4529800000000  0.4966800000000 1.0
C      1  0.5380840000000  0.5516810000000  0.5081810000000 1.0
C      1  0.5663630000000  0.4510510000000  0.4931600000000 1.0
C      1  0.4307860000000  0.4292100000000  0.4796290000000 1.0
C      1  0.4298520000000  0.5768790000000  0.5268100000000 1.0
C      1  0.5767120000000  0.4216360000000  0.4879550000000 1.0
C      1  0.5607890000000  0.5718440000000  0.5188560000000 1.0
C      1  0.4701700000000  0.5094800000000  0.4809670000000 1.0
C      1  0.4602700000000  0.4947030000000  0.5300470000000 1.0
C      1  0.5474020000000  0.5114560000000  0.4688320000000 1.0
C      1  0.5363620000000  0.4875260000000  0.5227530000000 1.0
C      1  0.4477160000000  0.5033640000000  0.4561560000000 1.0
C      1  0.4348200000000  0.5037490000000  0.5476660000000 1.0
C      1  0.5561310000000  0.4911770000000  0.4443120000000 1.0
C      1  0.5611450000000  0.4990070000000  0.5413850000000 1.0
C      1  0.5439600000000  0.5740700000000  0.4172360000000 1.0
C      1  0.5456240000000  0.4188210000000  0.5795410000000 1.0
C      1  0.4570540000000  0.5777980000000  0.4283640000000 1.0
C      1  0.4546250000000  0.4190410000000  0.5746260000000 1.0
C      1  0.5189530000000  0.4101580000000  0.5646390000000 1.0
C      1  0.5146920000000  0.5857740000000  0.4305850000000 1.0
C      1  0.4851680000000  0.4149930000000  0.5639280000000 1.0
C      1  0.4818030000000  0.5925810000000  0.4365860000000 1.0
C      1  0.5727190000000  0.4694460000000  0.5174180000000 1.0
C      1  0.5674050000000  0.5361130000000  0.4783790000000 1.0
C      1  0.4325490000000  0.4784280000000  0.5168340000000 1.0
C      1  0.4324180000000  0.5460880000000  0.4824550000000 1.0
C      1  0.5529490000000  0.5458310000000  0.4494010000000 1.0
C      1  0.5556310000000  0.4589020000000  0.5426450000000 1.0
C      1  0.4471220000000  0.5364840000000  0.4593990000000 1.0
C      1  0.4464670000000  0.4588600000000  0.5409150000000 1.0
C      1  0.4845670000000  0.4171030000000  0.4542860000000 1.0
C      1  0.4899720000000  0.5967770000000  0.5514880000000 1.0
C      1  0.5185650000000  0.4183420000000  0.4565490000000 1.0
C      1  0.5197880000000  0.5838140000000  0.5475410000000 1.0
C      1  0.4357540000000  0.5938110000000  0.4782190000000 1.0
C      1  0.4390470000000  0.4075530000000  0.5281350000000 1.0
C      1  0.5602210000000  0.5956120000000  0.4637220000000 1.0
C      1  0.5642340000000  0.4052710000000  0.5300310000000 1.0
C      1  0.5355700000000  0.4025180000000  0.5358810000000 1.0
C      1  0.5312380000000  0.5979690000000  0.4580310000000 1.0
C      1  0.4672020000000  0.4038620000000  0.5371240000000 1.0
C      1  0.4663890000000  0.5975650000000  0.4665300000000 1.0
C      1  0.6094550000000  0.5241950000000  0.4864150000000 1.0
C      1  0.6094500000000  0.4844570000000  0.5174770000000 1.0
C      1  0.3826810000000  0.5242710000000  0.4905420000000 1.0
C      1  0.3930190000000  0.4842390000000  0.5187010000000 1.0
C      1  0.5294630000000  0.4459650000000  0.4731390000000 1.0
C      1  0.5123450000000  0.5525270000000  0.5385260000000 1.0
C      1  0.4745530000000  0.4428890000000  0.4727500000000 1.0
C      1  0.4841850000000  0.5546930000000  0.5264330000000 1.0
C      1  0.6091040000000  0.4536210000000  0.5212180000000 1.0
C      1  0.5945620000000  0.5549000000000  0.4854850000000 1.0
C      1  0.3962580000000  0.4537960000000  0.5140280000000 1.0
C      1  0.3996980000000  0.5533680000000  0.4852600000000 1.0
C      1  0.4717230000000  0.5413540000000  0.6143910000000 1.0
C      1  0.4877950000000  0.4603470000000  0.3982620000000 1.0
C      1  0.5228840000000  0.5360240000000  0.5952080000000 1.0
C      1  0.5175200000000  0.4583100000000  0.3962510000000 1.0
C      1  0.5337480000000  0.5333040000000  0.4093190000000 1.0
C      1  0.5313130000000  0.4692750000000  0.5828820000000 1.0
C      1  0.4576170000000  0.5327980000000  0.4073340000000 1.0
C      1  0.4625540000000  0.4688400000000  0.5881340000000 1.0
C      1  0.5560490000000  0.4840110000000  0.5913460000000 1.0
C      1  0.5370870000000  0.5032730000000  0.3999230000000 1.0
C      1  0.4559670000000  0.4984550000000  0.5978720000000 1.0
C      1  0.4578260000000  0.5048330000000  0.4059390000000 1.0
C      1  0.5630510000000  0.5051840000000  0.5744560000000 1.0
C      1  0.5566550000000  0.4898370000000  0.4138620000000 1.0
C      1  0.4381590000000  0.5130070000000  0.5783650000000 1.0
C      1  0.4435830000000  0.4896540000000  0.4273370000000 1.0
C      1  0.5065540000000  0.4921310000000  0.4923980000000 1.0
END
