TITL C-2622968-4806-819 0.000294900215759985 125000 -402.838429340373 0 0 74 (C1) n - 1
REM
REM in /nfs/bkarasulu/CARBON/AIRSS/Generating-Clusters/AIREBO/with-SteepDescent/Higher-Symm/SD-CG/HFTN-CG
REM
REM
REM
REM
REM
REM ./C.cell (b20cbc046b6831c77cfcea5457e17084)
REM
REM compiler GCC version 9.2.1 20190827 (Red Hat 9.2.1-1)
REM options -cpp -mtune=generic -march=x86-64 -g -O0 -fpre-include=/usr/include/finclude/math-vector-fortran.h
REM seed -1814734266 74127138 446280785 -187148698 -1475896200 2016847883 -1334470243 1260398459 -1522209670 1146710038 -459659347 657933356 1804115049 970171778 -111938222 183854938 -422629772 215623453 -167561776 1818583052 -1848353111 47050029 713210432 1200862298 -2076944546 -908740350 1449364746 2039627518 97979386 -1899179379 -1278983138 -105393251 -1558941156
REM
CELL 1.54180   50.00000   50.00000   50.00000   90.00000   90.00000   90.00000
LATT -1
SFAC C  
C      1  0.5600970000000  0.5361120000000  0.4767570000000 1.0
C      1  0.5627490000000  0.4733380000000  0.4639440000000 1.0
C      1  0.5632520000000  0.4713950000000  0.5207140000000 1.0
C      1  0.5586480000000  0.5259620000000  0.5379810000000 1.0
C      1  0.4403200000000  0.5353320000000  0.4749590000000 1.0
C      1  0.4397610000000  0.4748320000000  0.4670140000000 1.0
C      1  0.4445840000000  0.4612590000000  0.5278230000000 1.0
C      1  0.4355220000000  0.5318130000000  0.5362690000000 1.0
C      1  0.4873340000000  0.5477110000000  0.4461650000000 1.0
C      1  0.4870000000000  0.4480600000000  0.4542740000000 1.0
C      1  0.4886030000000  0.4541400000000  0.5543270000000 1.0
C      1  0.4853220000000  0.5556810000000  0.5457030000000 1.0
C      1  0.5163760000000  0.5476270000000  0.4464000000000 1.0
C      1  0.5147530000000  0.4479980000000  0.4532680000000 1.0
C      1  0.5174220000000  0.4545350000000  0.5552790000000 1.0
C      1  0.5142760000000  0.5558070000000  0.5460740000000 1.0
C      1  0.4261680000000  0.4849680000000  0.5679730000000 1.0
C      1  0.4250980000000  0.5735310000000  0.5087960000000 1.0
C      1  0.4245270000000  0.5145330000000  0.4306840000000 1.0
C      1  0.4248740000000  0.4278460000000  0.4831080000000 1.0
C      1  0.5793360000000  0.4843530000000  0.5679770000000 1.0
C      1  0.5774970000000  0.5672850000000  0.5140460000000 1.0
C      1  0.5793270000000  0.5125990000000  0.4351310000000 1.0
C      1  0.5796340000000  0.4240150000000  0.4722760000000 1.0
C      1  0.5287110000000  0.4327720000000  0.4723710000000 1.0
C      1  0.5292090000000  0.4791200000000  0.5635400000000 1.0
C      1  0.5277710000000  0.5649270000000  0.5226400000000 1.0
C      1  0.5297510000000  0.5246250000000  0.4361610000000 1.0
C      1  0.4745150000000  0.4360360000000  0.4764900000000 1.0
C      1  0.4747740000000  0.4781050000000  0.5632720000000 1.0
C      1  0.4731010000000  0.5651820000000  0.5216010000000 1.0
C      1  0.4739210000000  0.5251460000000  0.4355110000000 1.0
C      1  0.4758480000000  0.4780030000000  0.4472780000000 1.0
C      1  0.4798760000000  0.4427930000000  0.5253440000000 1.0
C      1  0.4762630000000  0.5266040000000  0.5568900000000 1.0
C      1  0.4776880000000  0.5562800000000  0.4741340000000 1.0
C      1  0.5264410000000  0.4778270000000  0.4479980000000 1.0
C      1  0.5305150000000  0.4459200000000  0.5250740000000 1.0
C      1  0.5229170000000  0.5274760000000  0.5554890000000 1.0
C      1  0.5249390000000  0.5548160000000  0.4753840000000 1.0
C      1  0.5591510000000  0.4420370000000  0.4742270000000 1.0
C      1  0.5577870000000  0.4822620000000  0.5510820000000 1.0
C      1  0.5553620000000  0.5517390000000  0.5192200000000 1.0
C      1  0.5569090000000  0.5182100000000  0.4501850000000 1.0
C      1  0.4454030000000  0.4458480000000  0.4805630000000 1.0
C      1  0.4478540000000  0.4832760000000  0.5502150000000 1.0
C      1  0.4442510000000  0.5553090000000  0.5166540000000 1.0
C      1  0.4457050000000  0.5195390000000  0.4475540000000 1.0
C      1  0.4820280000000  0.5220130000000  0.5246580000000 1.0
C      1  0.4857970000000  0.5236140000000  0.4779630000000 1.0
C      1  0.4874290000000  0.4789160000000  0.4794950000000 1.0
C      1  0.4898260000000  0.4722310000000  0.5188390000000 1.0
C      1  0.5135960000000  0.5232430000000  0.5230650000000 1.0
C      1  0.5165470000000  0.5218980000000  0.4768590000000 1.0
C      1  0.5171180000000  0.4753020000000  0.4822780000000 1.0
C      1  0.5168840000000  0.4764360000000  0.5221560000000 1.0
C      1  0.5153700000000  0.5011210000000  0.4314020000000 1.0
C      1  0.5171990000000  0.4295710000000  0.4983620000000 1.0
C      1  0.5156860000000  0.5036800000000  0.5701680000000 1.0
C      1  0.5153940000000  0.5702440000000  0.4976330000000 1.0
C      1  0.4877720000000  0.5013850000000  0.4307800000000 1.0
C      1  0.4886180000000  0.4286740000000  0.5005470000000 1.0
C      1  0.4868590000000  0.5028870000000  0.5707080000000 1.0
C      1  0.4867260000000  0.5708930000000  0.4971740000000 1.0
C      1  0.5431460000000  0.4603990000000  0.4970200000000 1.0
C      1  0.5376730000000  0.5003380000000  0.5302570000000 1.0
C      1  0.5397150000000  0.5275870000000  0.5010900000000 1.0
C      1  0.5404050000000  0.4977470000000  0.4717740000000 1.0
C      1  0.4619950000000  0.4685810000000  0.4996470000000 1.0
C      1  0.4516320000000  0.5081970000000  0.5313820000000 1.0
C      1  0.4606580000000  0.5308010000000  0.4997070000000 1.0
C      1  0.4625620000000  0.4999180000000  0.4696420000000 1.0
C      1  0.5561910000000  0.4978540000000  0.5018500000000 1.0
C      1  0.4486590000000  0.4990000000000  0.5006620000000 1.0
END
