TITL C-2622964-2985-344 -0.00130627660468784 125000 -477.789674715049 0 0 80 (C1) n - 1
REM
REM in /nfs/bkarasulu/CARBON/AIRSS/Generating-Clusters/AIREBO/with-SteepDescent/Higher-Symm/SD-CG/HFTN-CG
REM
REM
REM
REM
REM
REM ./C.cell (b20cbc046b6831c77cfcea5457e17084)
REM
REM compiler GCC version 9.2.1 20190827 (Red Hat 9.2.1-1)
REM options -cpp -mtune=generic -march=x86-64 -g -O0 -fpre-include=/usr/include/finclude/math-vector-fortran.h
REM seed -2063085316 2035191572 555958691 446552187 1463551054 1793428289 1458179206 -720504066 -1779558613 -528362861 828989029 -938819950 -390961526 -574916580 -69437783 -1623510075 813226379 -1642569029 -820605909 -1325255201 2064059360 -125484486 2113344306 -446055502 -1980558847 1486898747 686459237 -31822971 575928070 1484384780 438140939 -683381502 -1758843768
REM
CELL 1.54180   50.00000   50.00000   50.00000   90.00000   90.00000   90.00000
LATT -1
SFAC C  
C      1  0.4322490000000  0.5007130000000  0.5454360000000 1.0
C      1  0.5239910000000  0.4516800000000  0.5807740000000 1.0
C      1  0.5432600000000  0.5592640000000  0.5395250000000 1.0
C      1  0.5891080000000  0.4921600000000  0.4557150000000 1.0
C      1  0.4686840000000  0.4382080000000  0.4498340000000 1.0
C      1  0.4605820000000  0.5438660000000  0.4513280000000 1.0
C      1  0.5769240000000  0.4749920000000  0.4415560000000 1.0
C      1  0.4746870000000  0.5737500000000  0.4546020000000 1.0
C      1  0.4562750000000  0.4660670000000  0.4367930000000 1.0
C      1  0.4426970000000  0.4793500000000  0.5655910000000 1.0
C      1  0.5237310000000  0.5703140000000  0.5549200000000 1.0
C      1  0.5461720000000  0.4514170000000  0.5678750000000 1.0
C      1  0.5689980000000  0.5153370000000  0.5277170000000 1.0
C      1  0.4540410000000  0.5471580000000  0.5302500000000 1.0
C      1  0.4759580000000  0.4307500000000  0.5276670000000 1.0
C      1  0.4284220000000  0.5091040000000  0.4758290000000 1.0
C      1  0.5473700000000  0.5495760000000  0.4701010000000 1.0
C      1  0.5195530000000  0.4348820000000  0.4705340000000 1.0
C      1  0.4258220000000  0.4812600000000  0.4772380000000 1.0
C      1  0.5435340000000  0.4487700000000  0.4713310000000 1.0
C      1  0.5229670000000  0.5633190000000  0.4714270000000 1.0
C      1  0.5693240000000  0.4872470000000  0.5275080000000 1.0
C      1  0.4511220000000  0.4440690000000  0.5301890000000 1.0
C      1  0.4776900000000  0.5620770000000  0.5300410000000 1.0
C      1  0.5611180000000  0.5517440000000  0.4950370000000 1.0
C      1  0.4238780000000  0.5218890000000  0.5012580000000 1.0
C      1  0.5096000000000  0.4300840000000  0.4961760000000 1.0
C      1  0.4407060000000  0.5459290000000  0.5051530000000 1.0
C      1  0.5730780000000  0.5266610000000  0.5022600000000 1.0
C      1  0.4820360000000  0.4252890000000  0.5005810000000 1.0
C      1  0.4358910000000  0.4463760000000  0.5062840000000 1.0
C      1  0.5686790000000  0.4779230000000  0.5006040000000 1.0
C      1  0.4869190000000  0.5691520000000  0.5044070000000 1.0
C      1  0.5516630000000  0.4560100000000  0.4968730000000 1.0
C      1  0.4214830000000  0.4720300000000  0.5040260000000 1.0
C      1  0.5158260000000  0.5714930000000  0.4983380000000 1.0
C      1  0.4761700000000  0.5124560000000  0.4887770000000 1.0
C      1  0.5016510000000  0.4696970000000  0.4781510000000 1.0
C      1  0.5254960000000  0.5139790000000  0.4866700000000 1.0
C      1  0.5256540000000  0.5163590000000  0.5189570000000 1.0
C      1  0.5003780000000  0.4711260000000  0.5098560000000 1.0
C      1  0.4751120000000  0.5137460000000  0.5195070000000 1.0
C      1  0.5252840000000  0.4860380000000  0.5181130000000 1.0
C      1  0.4995960000000  0.5287390000000  0.5295540000000 1.0
C      1  0.4761140000000  0.4834890000000  0.5257590000000 1.0
C      1  0.4747700000000  0.4838920000000  0.4782620000000 1.0
C      1  0.4998530000000  0.5270460000000  0.4775850000000 1.0
C      1  0.5272520000000  0.4852600000000  0.4711510000000 1.0
C      1  0.5447510000000  0.4683080000000  0.5391720000000 1.0
C      1  0.4981260000000  0.5541410000000  0.5521170000000 1.0
C      1  0.4568850000000  0.4697700000000  0.5398590000000 1.0
C      1  0.4509300000000  0.4681510000000  0.4683410000000 1.0
C      1  0.4992760000000  0.5521690000000  0.4567180000000 1.0
C      1  0.5477340000000  0.4696620000000  0.4488900000000 1.0
C      1  0.4549760000000  0.5163900000000  0.4662190000000 1.0
C      1  0.4981060000000  0.4486970000000  0.4521520000000 1.0
C      1  0.5464670000000  0.5192120000000  0.4626130000000 1.0
C      1  0.5457760000000  0.5289400000000  0.5422430000000 1.0
C      1  0.4991870000000  0.4498750000000  0.5359220000000 1.0
C      1  0.4559450000000  0.5196740000000  0.5453590000000 1.0
C      1  0.4759310000000  0.4851560000000  0.4284810000000 1.0
C      1  0.5265400000000  0.4845700000000  0.4314890000000 1.0
C      1  0.5002610000000  0.5301880000000  0.4352090000000 1.0
C      1  0.5226650000000  0.4860830000000  0.5579450000000 1.0
C      1  0.4736730000000  0.4816910000000  0.5739830000000 1.0
C      1  0.5012160000000  0.5281690000000  0.5693930000000 1.0
C      1  0.5238920000000  0.5122040000000  0.5587010000000 1.0
C      1  0.4724440000000  0.5129210000000  0.5701010000000 1.0
C      1  0.4983660000000  0.4655530000000  0.5655220000000 1.0
C      1  0.4730080000000  0.5142370000000  0.4382250000000 1.0
C      1  0.5299900000000  0.5138290000000  0.4367480000000 1.0
C      1  0.5012250000000  0.4732990000000  0.4324260000000 1.0
C      1  0.4204230000000  0.4978850000000  0.5201740000000 1.0
C      1  0.5721560000000  0.5038210000000  0.4788370000000 1.0
C      1  0.4571720000000  0.4372010000000  0.4813420000000 1.0
C      1  0.5289890000000  0.4451540000000  0.5198670000000 1.0
C      1  0.5427790000000  0.5667080000000  0.5125450000000 1.0
C      1  0.4629500000000  0.5583290000000  0.4825420000000 1.0
C      1  0.4826210000000  0.5297020000000  0.5978660000000 1.0
C      1  0.5216130000000  0.5347360000000  0.4111850000000 1.0
END
