TITL C-2622964-2985-15 0.00574593797625826 125000 -127.805144832652 0 0 25 (C1) n - 1
REM
REM in /nfs/bkarasulu/CARBON/AIRSS/Generating-Clusters/AIREBO/with-SteepDescent/Higher-Symm/SD-CG/HFTN-CG
REM
REM
REM
REM
REM
REM ./C.cell (b20cbc046b6831c77cfcea5457e17084)
REM
REM compiler GCC version 9.2.1 20190827 (Red Hat 9.2.1-1)
REM options -cpp -mtune=generic -march=x86-64 -g -O0 -fpre-include=/usr/include/finclude/math-vector-fortran.h
REM seed -782893541 -1569536912 -764386016 1968323657 -272225372 -2048930270 -1804135034 -1581372588 714633458 1372219297 -1435427046 -767974178 1711601565 1873730901 585718203 -839521076 707900846 1858464507 1419927454 -105710666 -924688051 -1806458372 2023981580 2014028248 -1659566439 148750752 973669250 1470334070 -1438040615 217224062 754242226 -1282903443 -428712439
REM
CELL 1.54180   50.00000   50.00000   50.00000   90.00000   90.00000   90.00000
LATT -1
SFAC C  
C      1  0.4432490000000  0.4885850000000  0.5371760000000 1.0
C      1  0.4861860000000  0.4514020000000  0.5703510000000 1.0
C      1  0.5299570000000  0.4556500000000  0.5213490000000 1.0
C      1  0.5501030000000  0.4922550000000  0.5647230000000 1.0
C      1  0.5430070000000  0.5415020000000  0.5301050000000 1.0
C      1  0.4918480000000  0.5597910000000  0.5358780000000 1.0
C      1  0.4666420000000  0.5245840000000  0.5797080000000 1.0
C      1  0.5082730000000  0.4672990000000  0.4428980000000 1.0
C      1  0.5320210000000  0.4824330000000  0.4451430000000 1.0
C      1  0.5373290000000  0.5090980000000  0.4519430000000 1.0
C      1  0.5208920000000  0.5308830000000  0.4592570000000 1.0
C      1  0.4926730000000  0.5352650000000  0.4489480000000 1.0
C      1  0.4682730000000  0.5108110000000  0.4406040000000 1.0
C      1  0.4815020000000  0.4786460000000  0.4345200000000 1.0
C      1  0.4890510000000  0.4681820000000  0.5509240000000 1.0
C      1  0.5153910000000  0.4761970000000  0.5333320000000 1.0
C      1  0.5309070000000  0.4983300000000  0.5460840000000 1.0
C      1  0.5239650000000  0.5247960000000  0.5396810000000 1.0
C      1  0.4978650000000  0.5345320000000  0.5435460000000 1.0
C      1  0.4779300000000  0.5186070000000  0.5554430000000 1.0
C      1  0.4703930000000  0.4932730000000  0.5414890000000 1.0
C      1  0.4888190000000  0.4953810000000  0.4917090000000 1.0
C      1  0.4869130000000  0.5008730000000  0.4667230000000 1.0
C      1  0.5010450000000  0.5057800000000  0.4355310000000 1.0
C      1  0.4901020000000  0.4873550000000  0.5165610000000 1.0
END
