TITL C-2622958-629-82 0.00012765948656811 125000 -703.457763295988 0 0 131 (C1) n - 1
REM
REM in /nfs/bkarasulu/CARBON/AIRSS/Generating-Clusters/AIREBO/with-SteepDescent/Higher-Symm/SD-CG/HFTN-CG
REM
REM
REM
REM
REM
REM ./C.cell (b20cbc046b6831c77cfcea5457e17084)
REM
REM compiler GCC version 9.2.1 20190827 (Red Hat 9.2.1-1)
REM options -cpp -mtune=generic -march=x86-64 -g -O0 -fpre-include=/usr/include/finclude/math-vector-fortran.h
REM seed 956674977 -1440963168 -305577353 -805900574 -1503952081 642617168 760661857 1283075149 444550065 756602091 -1541115772 -2021646907 55571211 940133606 1559007061 1428643795 -1486550899 -1987282525 203179340 -24030085 -1548869922 -532353067 130186236 429242918 1852399195 -1264457607 936880993 1137858294 -1077963696 1345415851 1437823120 -1180975720 2009994336
REM
CELL 1.54180   50.00000   50.00000   50.00000   90.00000   90.00000   90.00000
LATT -1
SFAC C  
C      1  0.4100550000000  0.5664250000000  0.4483270000000 1.0
C      1  0.4738910000000  0.4127240000000  0.5661270000000 1.0
C      1  0.5500780000000  0.4448250000000  0.4142740000000 1.0
C      1  0.5896820000000  0.5627070000000  0.5521530000000 1.0
C      1  0.4201640000000  0.4332630000000  0.5469420000000 1.0
C      1  0.5898300000000  0.4410450000000  0.4474880000000 1.0
C      1  0.5388940000000  0.4238430000000  0.4231440000000 1.0
C      1  0.4684840000000  0.5993300000000  0.4416370000000 1.0
C      1  0.5484070000000  0.5783600000000  0.5756530000000 1.0
C      1  0.4400420000000  0.4666520000000  0.5936250000000 1.0
C      1  0.5569240000000  0.5578230000000  0.5876590000000 1.0
C      1  0.4410400000000  0.5398090000000  0.4021570000000 1.0
C      1  0.5305540000000  0.5706380000000  0.4620440000000 1.0
C      1  0.4582420000000  0.5352120000000  0.5728230000000 1.0
C      1  0.5607370000000  0.4793540000000  0.5129970000000 1.0
C      1  0.4841930000000  0.5628180000000  0.5297000000000 1.0
C      1  0.5348970000000  0.4257840000000  0.5425370000000 1.0
C      1  0.4670660000000  0.4266760000000  0.4572950000000 1.0
C      1  0.5318580000000  0.5140500000000  0.4506790000000 1.0
C      1  0.4576170000000  0.4714800000000  0.4246950000000 1.0
C      1  0.5301970000000  0.4806900000000  0.5591060000000 1.0
C      1  0.4401750000000  0.4698010000000  0.4819520000000 1.0
C      1  0.5632690000000  0.5295440000000  0.4905620000000 1.0
C      1  0.4383280000000  0.5212180000000  0.5080760000000 1.0
C      1  0.5444920000000  0.4346900000000  0.4728140000000 1.0
C      1  0.4835630000000  0.5477690000000  0.4346400000000 1.0
C      1  0.4365220000000  0.4848830000000  0.5436750000000 1.0
C      1  0.4656570000000  0.4417240000000  0.5222900000000 1.0
C      1  0.5440980000000  0.5577160000000  0.5266420000000 1.0
C      1  0.4549130000000  0.5640200000000  0.4790320000000 1.0
C      1  0.5224270000000  0.5474750000000  0.5686410000000 1.0
C      1  0.4841280000000  0.4633100000000  0.5640270000000 1.0
C      1  0.5159560000000  0.4552500000000  0.4323600000000 1.0
C      1  0.5588750000000  0.4850960000000  0.4561370000000 1.0
C      1  0.4377370000000  0.5192400000000  0.4513130000000 1.0
C      1  0.5674000000000  0.5144260000000  0.5515580000000 1.0
C      1  0.5684620000000  0.4465970000000  0.5179510000000 1.0
C      1  0.5101830000000  0.5701770000000  0.4359340000000 1.0
C      1  0.4348010000000  0.5119290000000  0.5642200000000 1.0
C      1  0.4288740000000  0.4389960000000  0.4835000000000 1.0
C      1  0.5721430000000  0.5613750000000  0.4846770000000 1.0
C      1  0.4427160000000  0.5530080000000  0.5073720000000 1.0
C      1  0.4807490000000  0.5789660000000  0.5602870000000 1.0
C      1  0.5310870000000  0.4186510000000  0.5745910000000 1.0
C      1  0.4652680000000  0.4226740000000  0.4264970000000 1.0
C      1  0.5610730000000  0.5102610000000  0.4333670000000 1.0
C      1  0.4343440000000  0.4958560000000  0.4268550000000 1.0
C      1  0.5593200000000  0.4901150000000  0.5739260000000 1.0
C      1  0.4770900000000  0.5392330000000  0.4848960000000 1.0
C      1  0.4879650000000  0.4835650000000  0.5383090000000 1.0
C      1  0.5333240000000  0.4944470000000  0.4766670000000 1.0
C      1  0.5234080000000  0.5343590000000  0.5141600000000 1.0
C      1  0.4876840000000  0.4660780000000  0.5127580000000 1.0
C      1  0.5226170000000  0.4559520000000  0.4772310000000 1.0
C      1  0.5052880000000  0.4754560000000  0.4554290000000 1.0
C      1  0.4888530000000  0.5249810000000  0.4580640000000 1.0
C      1  0.5146460000000  0.5277180000000  0.5452090000000 1.0
C      1  0.4612960000000  0.4932780000000  0.5248840000000 1.0
C      1  0.5375390000000  0.5055070000000  0.5378800000000 1.0
C      1  0.4615170000000  0.5135680000000  0.4726550000000 1.0
C      1  0.5303630000000  0.5564730000000  0.4150250000000 1.0
C      1  0.4416140000000  0.5255300000000  0.5380690000000 1.0
C      1  0.5546280000000  0.4240420000000  0.5202510000000 1.0
C      1  0.4765570000000  0.5604230000000  0.5804580000000 1.0
C      1  0.5251610000000  0.4461660000000  0.5847820000000 1.0
C      1  0.4713100000000  0.4453820000000  0.4134380000000 1.0
C      1  0.5662180000000  0.5329590000000  0.4574730000000 1.0
C      1  0.4233310000000  0.4713420000000  0.4443470000000 1.0
C      1  0.5671890000000  0.4744590000000  0.5460370000000 1.0
C      1  0.4487410000000  0.4206620000000  0.4812330000000 1.0
C      1  0.5510120000000  0.5780680000000  0.4824020000000 1.0
C      1  0.4444100000000  0.5769150000000  0.5270170000000 1.0
C      1  0.5495640000000  0.5287820000000  0.5767090000000 1.0
C      1  0.5726720000000  0.5436580000000  0.5349050000000 1.0
C      1  0.5295710000000  0.5746230000000  0.5502190000000 1.0
C      1  0.4573940000000  0.5284560000000  0.4251270000000 1.0
C      1  0.5438820000000  0.4734040000000  0.4279390000000 1.0
C      1  0.4561150000000  0.4787870000000  0.5708050000000 1.0
C      1  0.4274300000000  0.5484490000000  0.4654040000000 1.0
C      1  0.5700350000000  0.4546470000000  0.4663610000000 1.0
C      1  0.4371750000000  0.4531430000000  0.5314800000000 1.0
C      1  0.4754630000000  0.5734010000000  0.4554720000000 1.0
C      1  0.5207790000000  0.4275490000000  0.4494600000000 1.0
C      1  0.4829890000000  0.4359470000000  0.5488040000000 1.0
C      1  0.5011930000000  0.5698040000000  0.4763190000000 1.0
C      1  0.4739670000000  0.5054880000000  0.5781030000000 1.0
C      1  0.5842660000000  0.4689510000000  0.4907590000000 1.0
C      1  0.5040760000000  0.5875540000000  0.5400900000000 1.0
C      1  0.5066050000000  0.4292970000000  0.5287380000000 1.0
C      1  0.4960140000000  0.4247980000000  0.4685610000000 1.0
C      1  0.5247610000000  0.4947770000000  0.4150200000000 1.0
C      1  0.4744430000000  0.5006780000000  0.4197210000000 1.0
C      1  0.5253590000000  0.5098730000000  0.5858560000000 1.0
C      1  0.4212300000000  0.4702330000000  0.5097780000000 1.0
C      1  0.5896250000000  0.5354510000000  0.5084550000000 1.0
C      1  0.4132980000000  0.5336320000000  0.4903150000000 1.0
C      1  0.5052750000000  0.5408000000000  0.4094090000000 1.0
C      1  0.4108690000000  0.4973820000000  0.5248380000000 1.0
C      1  0.5422840000000  0.4140470000000  0.4970590000000 1.0
C      1  0.5000120000000  0.5480070000000  0.5900250000000 1.0
C      1  0.5043770000000  0.4637990000000  0.5866840000000 1.0
C      1  0.4969810000000  0.4559250000000  0.4083290000000 1.0
C      1  0.5842060000000  0.5061210000000  0.4661290000000 1.0
C      1  0.4159080000000  0.4946370000000  0.4621080000000 1.0
C      1  0.5900980000000  0.4945130000000  0.5352390000000 1.0
C      1  0.4658490000000  0.4165200000000  0.5031350000000 1.0
C      1  0.5377790000000  0.5823050000000  0.5064330000000 1.0
C      1  0.4626150000000  0.5873250000000  0.5039550000000 1.0
C      1  0.4869950000000  0.5989060000000  0.5129560000000 1.0
C      1  0.5099890000000  0.4886570000000  0.5987010000000 1.0
C      1  0.6011480000000  0.5177950000000  0.4863640000000 1.0
C      1  0.5109230000000  0.5880890000000  0.5007270000000 1.0
C      1  0.4911030000000  0.4039490000000  0.4931060000000 1.0
C      1  0.5160860000000  0.4059750000000  0.5070910000000 1.0
C      1  0.4913440000000  0.4812060000000  0.3981060000000 1.0
C      1  0.5113810000000  0.5152650000000  0.3998710000000 1.0
C      1  0.4911170000000  0.5237390000000  0.6005540000000 1.0
C      1  0.3987590000000  0.5180220000000  0.5115560000000 1.0
C      1  0.6003770000000  0.4841710000000  0.5118120000000 1.0
C      1  0.4033060000000  0.4846200000000  0.4847090000000 1.0
C      1  0.5032990000000  0.5013830000000  0.5613970000000 1.0
C      1  0.5438010000000  0.5077660000000  0.5045340000000 1.0
C      1  0.4981270000000  0.5504090000000  0.5041920000000 1.0
C      1  0.5022440000000  0.5029030000000  0.4391690000000 1.0
C      1  0.4520780000000  0.4954170000000  0.4948580000000 1.0
C      1  0.5019150000000  0.4419630000000  0.4975140000000 1.0
C      1  0.5406810000000  0.5460430000000  0.4438910000000 1.0
C      1  0.4561730000000  0.5520590000000  0.5447000000000 1.0
C      1  0.5457830000000  0.4521420000000  0.5590680000000 1.0
C      1  0.4502760000000  0.4544420000000  0.4534380000000 1.0
C      1  0.5046930000000  0.4809090000000  0.4891160000000 1.0
END
