TITL C-2622965-4321-507 0.000650360332239472 125000 -906.628680976421 0 0 172 (C1) n - 1
REM
REM in /nfs/bkarasulu/CARBON/AIRSS/Generating-Clusters/AIREBO/with-SteepDescent/Higher-Symm/SD-CG/HFTN-CG
REM
REM
REM
REM
REM
REM ./C.cell (b20cbc046b6831c77cfcea5457e17084)
REM
REM compiler GCC version 9.2.1 20190827 (Red Hat 9.2.1-1)
REM options -cpp -mtune=generic -march=x86-64 -g -O0 -fpre-include=/usr/include/finclude/math-vector-fortran.h
REM seed 965806182 -1921640108 -1777660742 2001539527 -1384732489 -1008927111 -1322337063 355813841 -726717938 238471879 1168039101 2044075023 1785947756 -1623287992 -911750246 1235352029 -433719271 -150277817 -1114693472 -224310433 156188585 -1759044378 -1728474280 -753089105 591291618 -1933045960 -1541799044 -1818910500 1961993462 -796634836 576379569 -1913043151 1660367181
REM
CELL 1.54180   50.00000   50.00000   50.00000   90.00000   90.00000   90.00000
LATT -1
SFAC C  
C      1  0.4835820000000  0.4777200000000  0.5063690000000 1.0
C      1  0.5154170000000  0.4827710000000  0.4955420000000 1.0
C      1  0.5070260000000  0.5085190000000  0.5161390000000 1.0
C      1  0.4871750000000  0.5239580000000  0.4965820000000 1.0
C      1  0.4671110000000  0.4045930000000  0.4632080000000 1.0
C      1  0.5321110000000  0.4058040000000  0.5329870000000 1.0
C      1  0.5312310000000  0.5921400000000  0.4666510000000 1.0
C      1  0.4736470000000  0.5885530000000  0.5309500000000 1.0
C      1  0.5566710000000  0.5385380000000  0.5221200000000 1.0
C      1  0.4389180000000  0.5414320000000  0.4846280000000 1.0
C      1  0.4396230000000  0.4549460000000  0.5110970000000 1.0
C      1  0.5643220000000  0.4579280000000  0.4823940000000 1.0
C      1  0.4751000000000  0.5147010000000  0.5677210000000 1.0
C      1  0.5127280000000  0.4962180000000  0.4291830000000 1.0
C      1  0.5132740000000  0.5090820000000  0.5758940000000 1.0
C      1  0.4752480000000  0.4881240000000  0.4404890000000 1.0
C      1  0.5619530000000  0.4893520000000  0.5259780000000 1.0
C      1  0.4453140000000  0.4995310000000  0.4811960000000 1.0
C      1  0.4417100000000  0.5010590000000  0.5145870000000 1.0
C      1  0.5610030000000  0.5078660000000  0.4797210000000 1.0
C      1  0.4772630000000  0.5265540000000  0.4512110000000 1.0
C      1  0.5292320000000  0.5282900000000  0.5550540000000 1.0
C      1  0.5340680000000  0.4775900000000  0.4481610000000 1.0
C      1  0.4724290000000  0.4751830000000  0.5555820000000 1.0
C      1  0.3923850000000  0.4367120000000  0.4943700000000 1.0
C      1  0.6077840000000  0.4399940000000  0.5005220000000 1.0
C      1  0.5997170000000  0.5546080000000  0.4947380000000 1.0
C      1  0.3930940000000  0.5522770000000  0.5055840000000 1.0
C      1  0.6130620000000  0.5357860000000  0.5048010000000 1.0
C      1  0.3836140000000  0.5293620000000  0.4941080000000 1.0
C      1  0.3807980000000  0.4570440000000  0.5034820000000 1.0
C      1  0.6174640000000  0.4626060000000  0.4956320000000 1.0
C      1  0.5464870000000  0.4379020000000  0.5724770000000 1.0
C      1  0.4458990000000  0.4370980000000  0.4258790000000 1.0
C      1  0.4389960000000  0.5589430000000  0.5729660000000 1.0
C      1  0.5523050000000  0.5626140000000  0.4295610000000 1.0
C      1  0.4910320000000  0.5870220000000  0.5601760000000 1.0
C      1  0.5312910000000  0.5845100000000  0.4377510000000 1.0
C      1  0.5257720000000  0.4168560000000  0.5645410000000 1.0
C      1  0.4672550000000  0.4127510000000  0.4320810000000 1.0
C      1  0.5082010000000  0.4547350000000  0.4776850000000 1.0
C      1  0.4997880000000  0.4524250000000  0.5163530000000 1.0
C      1  0.5007020000000  0.5505990000000  0.4864820000000 1.0
C      1  0.5119730000000  0.5398340000000  0.5280320000000 1.0
C      1  0.4525990000000  0.4189300000000  0.5236900000000 1.0
C      1  0.5463060000000  0.4168910000000  0.4755910000000 1.0
C      1  0.5433800000000  0.5870470000000  0.5211060000000 1.0
C      1  0.4489570000000  0.5821400000000  0.4773810000000 1.0
C      1  0.5651700000000  0.4817490000000  0.4361440000000 1.0
C      1  0.4493800000000  0.4859710000000  0.5782750000000 1.0
C      1  0.4457950000000  0.5131480000000  0.4302110000000 1.0
C      1  0.5588090000000  0.5149750000000  0.5652970000000 1.0
C      1  0.5444530000000  0.4674760000000  0.5066930000000 1.0
C      1  0.4590660000000  0.4693140000000  0.4885650000000 1.0
C      1  0.4578010000000  0.5306240000000  0.5097080000000 1.0
C      1  0.5502660000000  0.5369180000000  0.4887660000000 1.0
C      1  0.5812670000000  0.5691340000000  0.5382820000000 1.0
C      1  0.4213760000000  0.5707480000000  0.4641500000000 1.0
C      1  0.4243510000000  0.4281410000000  0.5365370000000 1.0
C      1  0.5740660000000  0.4226770000000  0.4584680000000 1.0
C      1  0.4167680000000  0.5431310000000  0.5728790000000 1.0
C      1  0.5772860000000  0.5505390000000  0.4299270000000 1.0
C      1  0.5726190000000  0.4469860000000  0.5726100000000 1.0
C      1  0.4218090000000  0.4515280000000  0.4288390000000 1.0
C      1  0.4906430000000  0.4764730000000  0.4155610000000 1.0
C      1  0.4966120000000  0.4795970000000  0.5790980000000 1.0
C      1  0.4971010000000  0.5259010000000  0.4235170000000 1.0
C      1  0.4913220000000  0.5325820000000  0.5870070000000 1.0
C      1  0.6034390000000  0.4896010000000  0.4899990000000 1.0
C      1  0.3938120000000  0.4840970000000  0.5102530000000 1.0
C      1  0.3911000000000  0.5032760000000  0.4867690000000 1.0
C      1  0.6021640000000  0.5084160000000  0.5149010000000 1.0
C      1  0.4283260000000  0.5191810000000  0.4040180000000 1.0
C      1  0.5796300000000  0.5135190000000  0.5896140000000 1.0
C      1  0.5893500000000  0.4815570000000  0.4174830000000 1.0
C      1  0.4253190000000  0.4874280000000  0.5977510000000 1.0
C      1  0.4204390000000  0.4289080000000  0.5027680000000 1.0
C      1  0.5801400000000  0.4303640000000  0.4912010000000 1.0
C      1  0.5733990000000  0.5643670000000  0.5076190000000 1.0
C      1  0.4201860000000  0.5644240000000  0.4978470000000 1.0
C      1  0.4427890000000  0.4825560000000  0.4424540000000 1.0
C      1  0.5562560000000  0.4825020000000  0.5647620000000 1.0
C      1  0.5607180000000  0.5153540000000  0.4391380000000 1.0
C      1  0.4440070000000  0.5157260000000  0.5625860000000 1.0
C      1  0.4298910000000  0.5205460000000  0.4593470000000 1.0
C      1  0.5782310000000  0.5171600000000  0.5374540000000 1.0
C      1  0.5792140000000  0.4827270000000  0.4671230000000 1.0
C      1  0.4218600000000  0.4770020000000  0.5281450000000 1.0
C      1  0.5887490000000  0.5263670000000  0.4442300000000 1.0
C      1  0.4128450000000  0.5192090000000  0.5559570000000 1.0
C      1  0.4124720000000  0.4766140000000  0.4457110000000 1.0
C      1  0.5846130000000  0.4709310000000  0.5581830000000 1.0
C      1  0.5003260000000  0.4094940000000  0.4570580000000 1.0
C      1  0.4978850000000  0.4081370000000  0.5375690000000 1.0
C      1  0.4864380000000  0.5947640000000  0.4540790000000 1.0
C      1  0.5012350000000  0.6069970000000  0.5251240000000 1.0
C      1  0.4882630000000  0.5502710000000  0.5500600000000 1.0
C      1  0.5110130000000  0.5470570000000  0.4547390000000 1.0
C      1  0.5132860000000  0.4581180000000  0.5470420000000 1.0
C      1  0.4893810000000  0.4486600000000  0.4516490000000 1.0
C      1  0.4938680000000  0.5664810000000  0.5879310000000 1.0
C      1  0.5059800000000  0.5779030000000  0.4156430000000 1.0
C      1  0.4997380000000  0.4230710000000  0.5856380000000 1.0
C      1  0.4954730000000  0.4222340000000  0.4154320000000 1.0
C      1  0.4615540000000  0.6048130000000  0.4606280000000 1.0
C      1  0.5277490000000  0.6092360000000  0.5281040000000 1.0
C      1  0.5273150000000  0.3970120000000  0.4616630000000 1.0
C      1  0.4708650000000  0.3970110000000  0.5355940000000 1.0
C      1  0.6017200000000  0.5073340000000  0.4604180000000 1.0
C      1  0.4011180000000  0.5015890000000  0.5391690000000 1.0
C      1  0.4042000000000  0.4992820000000  0.4620850000000 1.0
C      1  0.5985410000000  0.4907320000000  0.5442580000000 1.0
C      1  0.5124840000000  0.4681120000000  0.3908750000000 1.0
C      1  0.4730790000000  0.4875590000000  0.6023130000000 1.0
C      1  0.4670700000000  0.5278540000000  0.4081360000000 1.0
C      1  0.5218450000000  0.5304530000000  0.6123420000000 1.0
C      1  0.5387040000000  0.5103450000000  0.5283810000000 1.0
C      1  0.4746550000000  0.5074160000000  0.4751360000000 1.0
C      1  0.4687620000000  0.4915300000000  0.5268610000000 1.0
C      1  0.5339740000000  0.4962670000000  0.4739590000000 1.0
C      1  0.4620830000000  0.4628450000000  0.4586730000000 1.0
C      1  0.5464130000000  0.4613620000000  0.5400890000000 1.0
C      1  0.5432440000000  0.5360490000000  0.4579730000000 1.0
C      1  0.4579210000000  0.5378960000000  0.5407960000000 1.0
C      1  0.5326250000000  0.5040520000000  0.6132420000000 1.0
C      1  0.4703240000000  0.5099950000000  0.3820880000000 1.0
C      1  0.4782720000000  0.5032130000000  0.6235860000000 1.0
C      1  0.5216040000000  0.4989870000000  0.3835200000000 1.0
C      1  0.5100220000000  0.5193200000000  0.3927530000000 1.0
C      1  0.4921870000000  0.5271550000000  0.6185800000000 1.0
C      1  0.4838400000000  0.4860340000000  0.3836500000000 1.0
C      1  0.5193410000000  0.4816340000000  0.6043250000000 1.0
C      1  0.4465240000000  0.5813390000000  0.5112880000000 1.0
C      1  0.5474020000000  0.5775420000000  0.4898940000000 1.0
C      1  0.5528620000000  0.4192400000000  0.5088850000000 1.0
C      1  0.4498010000000  0.4176560000000  0.4897990000000 1.0
C      1  0.5224640000000  0.4436840000000  0.4123260000000 1.0
C      1  0.4702330000000  0.4376400000000  0.5767210000000 1.0
C      1  0.4769340000000  0.5595560000000  0.4156370000000 1.0
C      1  0.5253240000000  0.5533890000000  0.5875700000000 1.0
C      1  0.5098290000000  0.4108510000000  0.5078060000000 1.0
C      1  0.4891180000000  0.4131060000000  0.4872310000000 1.0
C      1  0.4925560000000  0.5886960000000  0.5001670000000 1.0
C      1  0.5048980000000  0.5967980000000  0.4746400000000 1.0
C      1  0.5537710000000  0.4525750000000  0.4228610000000 1.0
C      1  0.4450390000000  0.4525740000000  0.5735460000000 1.0
C      1  0.4438670000000  0.5573510000000  0.4234270000000 1.0
C      1  0.5568800000000  0.5469900000000  0.5766180000000 1.0
C      1  0.4764950000000  0.4490450000000  0.4210760000000 1.0
C      1  0.5166100000000  0.4521170000000  0.5803470000000 1.0
C      1  0.5218430000000  0.5492160000000  0.4225780000000 1.0
C      1  0.4650960000000  0.5601880000000  0.5729060000000 1.0
C      1  0.5205310000000  0.4902350000000  0.5490050000000 1.0
C      1  0.4943240000000  0.4843590000000  0.4684210000000 1.0
C      1  0.4867810000000  0.5104340000000  0.5434010000000 1.0
C      1  0.5194140000000  0.5141070000000  0.4542180000000 1.0
C      1  0.4839310000000  0.5654980000000  0.4459630000000 1.0
C      1  0.5176130000000  0.5660560000000  0.5569210000000 1.0
C      1  0.5186280000000  0.4352490000000  0.4444930000000 1.0
C      1  0.4884440000000  0.4350850000000  0.5499770000000 1.0
C      1  0.4613920000000  0.5535220000000  0.4638440000000 1.0
C      1  0.5415570000000  0.5644920000000  0.5381050000000 1.0
C      1  0.5428870000000  0.4473070000000  0.4607680000000 1.0
C      1  0.4623060000000  0.4492190000000  0.5357940000000 1.0
C      1  0.5257580000000  0.5547240000000  0.5028250000000 1.0
C      1  0.4724120000000  0.5613470000000  0.5019940000000 1.0
C      1  0.4742310000000  0.4399450000000  0.4976990000000 1.0
C      1  0.5261980000000  0.4391790000000  0.5019850000000 1.0
C      1  0.5700780000000  0.4322600000000  0.4334320000000 1.0
C      1  0.4257120000000  0.4523480000000  0.5516260000000 1.0
C      1  0.4265920000000  0.5508950000000  0.4443570000000 1.0
C      1  0.5793440000000  0.5473270000000  0.5544040000000 1.0
END
