TITL C-2622960-5345-383 0.00153032370036147 125000 -425.963118000954 0 0 74 (C1) n - 1
REM
REM in /nfs/bkarasulu/CARBON/AIRSS/Generating-Clusters/AIREBO/with-SteepDescent/Higher-Symm/SD-CG/HFTN-CG
REM
REM
REM
REM
REM
REM ./C.cell (b20cbc046b6831c77cfcea5457e17084)
REM
REM compiler GCC version 9.2.1 20190827 (Red Hat 9.2.1-1)
REM options -cpp -mtune=generic -march=x86-64 -g -O0 -fpre-include=/usr/include/finclude/math-vector-fortran.h
REM seed -2015202408 -2101555677 1333976969 1512360621 -1438873350 -150933182 114209143 -264110075 -942012687 1960811057 -1869851806 -1701865096 1241035559 -1785364645 781561016 1982505770 -949304464 -1811516126 255626272 2143244962 1179813801 831427174 1802233696 -394146966 905620039 -439300603 -1264750789 189568269 1247370212 -1548150590 -616759613 -1402648171 -1683583669
REM
CELL 1.54180   50.00000   50.00000   50.00000   90.00000   90.00000   90.00000
LATT -1
SFAC C  
C      1  0.4763740000000  0.4795570000000  0.5952260000000 1.0
C      1  0.5243660000000  0.5359750000000  0.5671060000000 1.0
C      1  0.4818820000000  0.6016930000000  0.5153310000000 1.0
C      1  0.5280960000000  0.5935900000000  0.4782530000000 1.0
C      1  0.4741950000000  0.5572250000000  0.4420540000000 1.0
C      1  0.5329530000000  0.5369320000000  0.4002520000000 1.0
C      1  0.4742910000000  0.4603430000000  0.4122240000000 1.0
C      1  0.5239780000000  0.4261140000000  0.4784490000000 1.0
C      1  0.4746660000000  0.3975140000000  0.5171560000000 1.0
C      1  0.5292660000000  0.4385990000000  0.5438530000000 1.0
C      1  0.4791670000000  0.5281930000000  0.5014020000000 1.0
C      1  0.4984060000000  0.5191190000000  0.4812660000000 1.0
C      1  0.4879910000000  0.5019070000000  0.4563220000000 1.0
C      1  0.5152910000000  0.4852730000000  0.4683240000000 1.0
C      1  0.4856560000000  0.4415390000000  0.4857920000000 1.0
C      1  0.5266000000000  0.4719480000000  0.5042090000000 1.0
C      1  0.4698210000000  0.4871470000000  0.5387250000000 1.0
C      1  0.5141370000000  0.4851460000000  0.5530880000000 1.0
C      1  0.4777930000000  0.5263630000000  0.5412880000000 1.0
C      1  0.5279970000000  0.5213720000000  0.5197130000000 1.0
C      1  0.5391640000000  0.4225900000000  0.5227630000000 1.0
C      1  0.4640000000000  0.4606300000000  0.5325550000000 1.0
C      1  0.5416710000000  0.4783700000000  0.5650460000000 1.0
C      1  0.4547860000000  0.5196960000000  0.5619450000000 1.0
C      1  0.5361110000000  0.5541250000000  0.5184230000000 1.0
C      1  0.4689290000000  0.5543590000000  0.5035630000000 1.0
C      1  0.5363310000000  0.5444770000000  0.4494790000000 1.0
C      1  0.4636090000000  0.5191950000000  0.4457950000000 1.0
C      1  0.5396520000000  0.4870750000000  0.4473830000000 1.0
C      1  0.4646750000000  0.4481700000000  0.4686950000000 1.0
C      1  0.5609920000000  0.5236100000000  0.5117490000000 1.0
C      1  0.4327660000000  0.5213650000000  0.5034970000000 1.0
C      1  0.5692240000000  0.5227820000000  0.4815680000000 1.0
C      1  0.4230880000000  0.5138090000000  0.4760710000000 1.0
C      1  0.5791370000000  0.4976450000000  0.4742260000000 1.0
C      1  0.4187870000000  0.4691700000000  0.4908490000000 1.0
C      1  0.5571890000000  0.4668000000000  0.5080790000000 1.0
C      1  0.4208780000000  0.4748470000000  0.5188420000000 1.0
C      1  0.5690370000000  0.4942590000000  0.5245120000000 1.0
C      1  0.4226740000000  0.5025010000000  0.5268880000000 1.0
C      1  0.4977770000000  0.5420410000000  0.4597430000000 1.0
C      1  0.5228110000000  0.5298700000000  0.4253640000000 1.0
C      1  0.4922700000000  0.4808880000000  0.4324240000000 1.0
C      1  0.5131020000000  0.4558970000000  0.4789370000000 1.0
C      1  0.4895520000000  0.4197870000000  0.5105840000000 1.0
C      1  0.5124410000000  0.4619730000000  0.5306750000000 1.0
C      1  0.4856950000000  0.4905390000000  0.5642220000000 1.0
C      1  0.5098820000000  0.5153990000000  0.5443470000000 1.0
C      1  0.4914320000000  0.5546570000000  0.5366200000000 1.0
C      1  0.5183410000000  0.5708160000000  0.4994360000000 1.0
C      1  0.5597240000000  0.5390480000000  0.4613500000000 1.0
C      1  0.4390270000000  0.5201280000000  0.4542810000000 1.0
C      1  0.5666780000000  0.4857620000000  0.4519260000000 1.0
C      1  0.4387580000000  0.4531670000000  0.4786850000000 1.0
C      1  0.5619230000000  0.4360560000000  0.5115920000000 1.0
C      1  0.4364290000000  0.4559220000000  0.5329370000000 1.0
C      1  0.5630900000000  0.4913900000000  0.5545100000000 1.0
C      1  0.4283670000000  0.5150870000000  0.5519880000000 1.0
C      1  0.5688170000000  0.5537920000000  0.5240360000000 1.0
C      1  0.4416570000000  0.5521370000000  0.5058950000000 1.0
C      1  0.5186360000000  0.5635500000000  0.4663170000000 1.0
C      1  0.4906630000000  0.5304870000000  0.4285670000000 1.0
C      1  0.5183580000000  0.4985530000000  0.4306340000000 1.0
C      1  0.4721250000000  0.4555070000000  0.4431350000000 1.0
C      1  0.5197810000000  0.4150400000000  0.5034680000000 1.0
C      1  0.4861440000000  0.4467390000000  0.5260230000000 1.0
C      1  0.5420950000000  0.4496550000000  0.5667910000000 1.0
C      1  0.4660480000000  0.5075860000000  0.5859840000000 1.0
C      1  0.5188050000000  0.5543010000000  0.5450710000000 1.0
C      1  0.4898440000000  0.5752940000000  0.5120800000000 1.0
C      1  0.4610240000000  0.5090400000000  0.5179110000000 1.0
C      1  0.5216010000000  0.5037760000000  0.4955960000000 1.0
C      1  0.5835790000000  0.4821180000000  0.4968060000000 1.0
C      1  0.4078970000000  0.4902880000000  0.4757490000000 1.0
END
