TITL C-2622954-8726-401 0.0442409231218896 125000 -561.139849655662 0 0 101 (C1) n - 1
REM
REM in /nfs/bkarasulu/CARBON/AIRSS/Generating-Clusters/AIREBO/with-SteepDescent/Higher-Symm/SD-CG/HFTN-CG
REM
REM
REM
REM
REM
REM ./C.cell (b20cbc046b6831c77cfcea5457e17084)
REM
REM compiler GCC version 9.2.1 20190827 (Red Hat 9.2.1-1)
REM options -cpp -mtune=generic -march=x86-64 -g -O0 -fpre-include=/usr/include/finclude/math-vector-fortran.h
REM seed -423206098 619387859 -1195783898 -265801133 -1658770658 -2091951968 -900600786 -1793346790 374710116 -1276378473 -1604515271 189937847 -1831727747 -1991700322 -371131734 -408383461 -1649722544 -972094892 1650291624 1694096746 -912140785 1695474779 -849021114 -465858122 318994499 -1644838593 453469004 -1661424431 -1123935423 1060272680 -90060734 -170218500 -91062436
REM
CELL 1.54180   50.00000   50.00000   50.00000   90.00000   90.00000   90.00000
LATT -1
SFAC C  
C      1  0.4559750000000  0.5788510000000  0.4991630000000 1.0
C      1  0.4184700000000  0.5096660000000  0.5101300000000 1.0
C      1  0.4510360000000  0.4486410000000  0.5081390000000 1.0
C      1  0.5101170000000  0.4173320000000  0.5038330000000 1.0
C      1  0.5687940000000  0.4611810000000  0.5170640000000 1.0
C      1  0.5847660000000  0.5343200000000  0.5107300000000 1.0
C      1  0.5238440000000  0.5764280000000  0.4996440000000 1.0
C      1  0.4714660000000  0.4664050000000  0.5880390000000 1.0
C      1  0.4994390000000  0.4561900000000  0.5852090000000 1.0
C      1  0.5210640000000  0.4692870000000  0.5972820000000 1.0
C      1  0.5298140000000  0.4943100000000  0.5869070000000 1.0
C      1  0.5134820000000  0.5168510000000  0.5894800000000 1.0
C      1  0.4870290000000  0.5129630000000  0.5985970000000 1.0
C      1  0.4686580000000  0.4958190000000  0.5856870000000 1.0
C      1  0.5273760000000  0.4712290000000  0.4885250000000 1.0
C      1  0.5506250000000  0.5033610000000  0.4928470000000 1.0
C      1  0.5342380000000  0.5407080000000  0.4854800000000 1.0
C      1  0.5006960000000  0.5623520000000  0.4835090000000 1.0
C      1  0.4669060000000  0.5284250000000  0.5062720000000 1.0
C      1  0.4357340000000  0.4845000000000  0.4994670000000 1.0
C      1  0.4790080000000  0.4580030000000  0.4919450000000 1.0
C      1  0.4918710000000  0.5431260000000  0.5240990000000 1.0
C      1  0.4560250000000  0.5001950000000  0.5217900000000 1.0
C      1  0.4788680000000  0.4750610000000  0.5193480000000 1.0
C      1  0.5074210000000  0.4728050000000  0.5330680000000 1.0
C      1  0.5264420000000  0.4930880000000  0.5145590000000 1.0
C      1  0.5336250000000  0.5168720000000  0.5377970000000 1.0
C      1  0.5216870000000  0.5374720000000  0.5135190000000 1.0
C      1  0.5538550000000  0.5664690000000  0.4865510000000 1.0
C      1  0.4734130000000  0.5764610000000  0.4738180000000 1.0
C      1  0.4366860000000  0.5318980000000  0.4919320000000 1.0
C      1  0.4300480000000  0.4539630000000  0.4855740000000 1.0
C      1  0.4876490000000  0.4264200000000  0.4817700000000 1.0
C      1  0.5601030000000  0.4470130000000  0.4632960000000 1.0
C      1  0.5823260000000  0.5091560000000  0.4895980000000 1.0
C      1  0.4043840000000  0.4837970000000  0.5242090000000 1.0
C      1  0.4663950000000  0.4195660000000  0.5074120000000 1.0
C      1  0.5389400000000  0.4237630000000  0.5014620000000 1.0
C      1  0.5930430000000  0.4826340000000  0.5074970000000 1.0
C      1  0.5739340000000  0.5624400000000  0.5087740000000 1.0
C      1  0.5132290000000  0.5992740000000  0.5185870000000 1.0
C      1  0.4290960000000  0.5632940000000  0.4989370000000 1.0
C      1  0.4392970000000  0.5347560000000  0.4608330000000 1.0
C      1  0.4090490000000  0.4734720000000  0.4701180000000 1.0
C      1  0.4656930000000  0.4259070000000  0.4574470000000 1.0
C      1  0.5422880000000  0.4307940000000  0.4493870000000 1.0
C      1  0.5928470000000  0.4909000000000  0.4629100000000 1.0
C      1  0.5624030000000  0.5511470000000  0.4590710000000 1.0
C      1  0.4944720000000  0.5784290000000  0.4459630000000 1.0
C      1  0.4795570000000  0.4275240000000  0.4334790000000 1.0
C      1  0.5186170000000  0.4326460000000  0.4277620000000 1.0
C      1  0.5666260000000  0.5001190000000  0.4433220000000 1.0
C      1  0.5467910000000  0.5548310000000  0.4363870000000 1.0
C      1  0.4772360000000  0.5561720000000  0.4389230000000 1.0
C      1  0.4416130000000  0.5143460000000  0.4421240000000 1.0
C      1  0.4445050000000  0.4638050000000  0.4390070000000 1.0
C      1  0.4777840000000  0.4798550000000  0.4677930000000 1.0
C      1  0.5108400000000  0.4751180000000  0.4660290000000 1.0
C      1  0.4895640000000  0.5112540000000  0.4621840000000 1.0
C      1  0.5359420000000  0.5135380000000  0.4657200000000 1.0
C      1  0.5153430000000  0.5471850000000  0.4594040000000 1.0
C      1  0.4896920000000  0.5321950000000  0.4860970000000 1.0
C      1  0.4465400000000  0.4873600000000  0.4710640000000 1.0
C      1  0.5363830000000  0.4256160000000  0.5324480000000 1.0
C      1  0.5760380000000  0.4904780000000  0.5334690000000 1.0
C      1  0.5578010000000  0.5523410000000  0.5337490000000 1.0
C      1  0.4979660000000  0.5801470000000  0.5379510000000 1.0
C      1  0.4409070000000  0.5534250000000  0.5259010000000 1.0
C      1  0.4146490000000  0.4641690000000  0.5366960000000 1.0
C      1  0.4727480000000  0.4333920000000  0.5377690000000 1.0
C      1  0.5398610000000  0.4927310000000  0.5609200000000 1.0
C      1  0.5178580000000  0.5335250000000  0.5629760000000 1.0
C      1  0.4925020000000  0.5523820000000  0.5558370000000 1.0
C      1  0.4608100000000  0.5035970000000  0.5552810000000 1.0
C      1  0.4594720000000  0.4700140000000  0.5565870000000 1.0
C      1  0.4890100000000  0.4570230000000  0.5535500000000 1.0
C      1  0.5338240000000  0.4689590000000  0.5485220000000 1.0
C      1  0.4444760000000  0.4437420000000  0.4593460000000 1.0
C      1  0.5121990000000  0.4214480000000  0.4586730000000 1.0
C      1  0.5734760000000  0.4679680000000  0.4524570000000 1.0
C      1  0.5765780000000  0.5272520000000  0.4611590000000 1.0
C      1  0.5222320000000  0.5734950000000  0.4389870000000 1.0
C      1  0.4527920000000  0.5577410000000  0.4543060000000 1.0
C      1  0.4242570000000  0.4886310000000  0.4454660000000 1.0
C      1  0.4731780000000  0.4771190000000  0.4342050000000 1.0
C      1  0.4957520000000  0.4556800000000  0.4303800000000 1.0
C      1  0.5188090000000  0.4783860000000  0.4377560000000 1.0
C      1  0.5364520000000  0.5023550000000  0.4358510000000 1.0
C      1  0.5230600000000  0.5308980000000  0.4305700000000 1.0
C      1  0.4898170000000  0.5281900000000  0.4355200000000 1.0
C      1  0.4667090000000  0.5075870000000  0.4295880000000 1.0
C      1  0.4423830000000  0.4545120000000  0.5367430000000 1.0
C      1  0.5026360000000  0.4210390000000  0.5330630000000 1.0
C      1  0.5500970000000  0.4493580000000  0.5393170000000 1.0
C      1  0.5661370000000  0.5191920000000  0.5329200000000 1.0
C      1  0.5275140000000  0.5646080000000  0.5314750000000 1.0
C      1  0.4698320000000  0.5674520000000  0.5266080000000 1.0
C      1  0.4359430000000  0.5263220000000  0.5314710000000 1.0
C      1  0.5502880000000  0.4509130000000  0.4917270000000 1.0
C      1  0.4876050000000  0.5186970000000  0.5590300000000 1.0
C      1  0.5112270000000  0.5083420000000  0.4882520000000 1.0
END
