TITL C-2622962-9663-465 0.000299650898698392 125000 -982.075720471824 0 0 177 (C1) n - 1
REM
REM in /nfs/bkarasulu/CARBON/AIRSS/Generating-Clusters/AIREBO/with-SteepDescent/Higher-Symm/SD-CG/HFTN-CG
REM
REM
REM
REM
REM
REM ./C.cell (b20cbc046b6831c77cfcea5457e17084)
REM
REM compiler GCC version 9.2.1 20190827 (Red Hat 9.2.1-1)
REM options -cpp -mtune=generic -march=x86-64 -g -O0 -fpre-include=/usr/include/finclude/math-vector-fortran.h
REM seed -73310176 -1766513163 1103399140 -382045740 -1119590536 1023806867 1334982020 682374621 1716335559 1537634325 1447133253 -1896731550 -952312886 -1811541518 676888605 -907766165 819690299 1788041729 -1914552144 1749915956 -578048994 205550313 -1159173827 1921678760 1696357128 -129117309 1302086082 -523501037 799083567 -197382175 44194777 -1640230464 450350251
REM
CELL 1.54180   50.00000   50.00000   50.00000   90.00000   90.00000   90.00000
LATT -1
SFAC C  
C      1  0.4573010000000  0.5188240000000  0.5410470000000 1.0
C      1  0.5240560000000  0.5430010000000  0.4569570000000 1.0
C      1  0.5425020000000  0.4606950000000  0.5137920000000 1.0
C      1  0.5590650000000  0.5106530000000  0.4268680000000 1.0
C      1  0.5472390000000  0.4858200000000  0.5582450000000 1.0
C      1  0.4412530000000  0.4865930000000  0.4507180000000 1.0
C      1  0.4825480000000  0.5674190000000  0.5640960000000 1.0
C      1  0.4850720000000  0.4572290000000  0.4434220000000 1.0
C      1  0.5076710000000  0.4516640000000  0.5480910000000 1.0
C      1  0.4480690000000  0.4415130000000  0.4808130000000 1.0
C      1  0.4557970000000  0.5601850000000  0.5148160000000 1.0
C      1  0.5568080000000  0.5296350000000  0.4810140000000 1.0
C      1  0.4545120000000  0.4861710000000  0.5501780000000 1.0
C      1  0.5180770000000  0.4502120000000  0.4482700000000 1.0
C      1  0.5427990000000  0.5435380000000  0.5065080000000 1.0
C      1  0.5486370000000  0.4819140000000  0.4368700000000 1.0
C      1  0.5420110000000  0.5191680000000  0.5544710000000 1.0
C      1  0.4550520000000  0.5152400000000  0.4512510000000 1.0
C      1  0.4822620000000  0.4417430000000  0.5603550000000 1.0
C      1  0.4928560000000  0.5412370000000  0.4512470000000 1.0
C      1  0.5138050000000  0.5595650000000  0.5587530000000 1.0
C      1  0.4515530000000  0.5428710000000  0.4879950000000 1.0
C      1  0.4563230000000  0.4521800000000  0.5117210000000 1.0
C      1  0.5510320000000  0.4564700000000  0.4853860000000 1.0
C      1  0.5865920000000  0.5159130000000  0.4882990000000 1.0
C      1  0.5128330000000  0.4868110000000  0.5876560000000 1.0
C      1  0.4894220000000  0.5922780000000  0.5135210000000 1.0
C      1  0.4111930000000  0.5041080000000  0.5220810000000 1.0
C      1  0.4150360000000  0.4792250000000  0.4912530000000 1.0
C      1  0.5761510000000  0.4895350000000  0.5162650000000 1.0
C      1  0.4808910000000  0.4874400000000  0.3947580000000 1.0
C      1  0.4823730000000  0.5120790000000  0.5891690000000 1.0
C      1  0.5151810000000  0.5122540000000  0.4147690000000 1.0
C      1  0.5164820000000  0.5888960000000  0.4845890000000 1.0
C      1  0.5144500000000  0.4159390000000  0.5142580000000 1.0
C      1  0.4907330000000  0.4208770000000  0.4828820000000 1.0
C      1  0.5802270000000  0.4846890000000  0.4855030000000 1.0
C      1  0.5133640000000  0.5183570000000  0.5837060000000 1.0
C      1  0.4826870000000  0.4132190000000  0.5134560000000 1.0
C      1  0.4041550000000  0.4722890000000  0.5226720000000 1.0
C      1  0.4100120000000  0.5109470000000  0.4910330000000 1.0
C      1  0.5860370000000  0.5202340000000  0.5189100000000 1.0
C      1  0.4836340000000  0.5189400000000  0.4058520000000 1.0
C      1  0.4823020000000  0.4808200000000  0.5901300000000 1.0
C      1  0.5126350000000  0.4834880000000  0.3978550000000 1.0
C      1  0.5218410000000  0.4115750000000  0.4834460000000 1.0
C      1  0.5228100000000  0.5962210000000  0.5158240000000 1.0
C      1  0.4839500000000  0.5838650000000  0.4830720000000 1.0
C      1  0.4160870000000  0.5527780000000  0.5204540000000 1.0
C      1  0.5460120000000  0.5116100000000  0.3893090000000 1.0
C      1  0.5146720000000  0.4123360000000  0.5664030000000 1.0
C      1  0.5848240000000  0.5580670000000  0.4817170000000 1.0
C      1  0.5920890000000  0.4528960000000  0.5169090000000 1.0
C      1  0.4078950000000  0.4406380000000  0.4837390000000 1.0
C      1  0.4408290000000  0.5250580000000  0.6060460000000 1.0
C      1  0.4446600000000  0.4907470000000  0.4111230000000 1.0
C      1  0.5506840000000  0.4886280000000  0.6001000000000 1.0
C      1  0.4878710000000  0.4089800000000  0.4309310000000 1.0
C      1  0.4898750000000  0.6045790000000  0.5515710000000 1.0
C      1  0.5228720000000  0.5898430000000  0.4448740000000 1.0
C      1  0.4082700000000  0.4342670000000  0.5112070000000 1.0
C      1  0.5517700000000  0.4846080000000  0.3906200000000 1.0
C      1  0.5163090000000  0.5993170000000  0.5551200000000 1.0
C      1  0.5814980000000  0.4431920000000  0.4860830000000 1.0
C      1  0.5858130000000  0.5597000000000  0.5140810000000 1.0
C      1  0.4182710000000  0.5637020000000  0.4951440000000 1.0
C      1  0.4372130000000  0.4976880000000  0.5962430000000 1.0
C      1  0.4443900000000  0.5189270000000  0.4131260000000 1.0
C      1  0.5505940000000  0.5168640000000  0.6016530000000 1.0
C      1  0.4944680000000  0.5873730000000  0.4374690000000 1.0
C      1  0.4872980000000  0.4026390000000  0.5517250000000 1.0
C      1  0.5206610000000  0.4042620000000  0.4365770000000 1.0
C      1  0.4577180000000  0.5435790000000  0.4324490000000 1.0
C      1  0.5360950000000  0.4280070000000  0.4352790000000 1.0
C      1  0.4340920000000  0.4343500000000  0.5278690000000 1.0
C      1  0.5545240000000  0.5338210000000  0.5774320000000 1.0
C      1  0.5488880000000  0.4583080000000  0.4123960000000 1.0
C      1  0.4549250000000  0.4583510000000  0.5680210000000 1.0
C      1  0.4641870000000  0.4237920000000  0.5385150000000 1.0
C      1  0.4483390000000  0.5842290000000  0.4649570000000 1.0
C      1  0.5407190000000  0.5761270000000  0.5502690000000 1.0
C      1  0.5819160000000  0.4500840000000  0.4527670000000 1.0
C      1  0.5815630000000  0.5516220000000  0.5539820000000 1.0
C      1  0.4227880000000  0.5422840000000  0.4698380000000 1.0
C      1  0.4542390000000  0.4652500000000  0.4314900000000 1.0
C      1  0.5390130000000  0.5642770000000  0.4418060000000 1.0
C      1  0.4421170000000  0.5452330000000  0.5394650000000 1.0
C      1  0.5427000000000  0.4613130000000  0.5813990000000 1.0
C      1  0.5457330000000  0.5377040000000  0.4111570000000 1.0
C      1  0.4460640000000  0.5542900000000  0.5889230000000 1.0
C      1  0.4601950000000  0.5880200000000  0.5499730000000 1.0
C      1  0.4580370000000  0.4201900000000  0.4450890000000 1.0
C      1  0.5359330000000  0.4328170000000  0.5495350000000 1.0
C      1  0.5784070000000  0.5374260000000  0.4559200000000 1.0
C      1  0.5662600000000  0.4505580000000  0.5309700000000 1.0
C      1  0.4244770000000  0.4390730000000  0.4571380000000 1.0
C      1  0.4748120000000  0.5961270000000  0.4561450000000 1.0
C      1  0.6060250000000  0.4657440000000  0.4792300000000 1.0
C      1  0.4545320000000  0.4686380000000  0.6001080000000 1.0
C      1  0.5372090000000  0.6140070000000  0.5379390000000 1.0
C      1  0.5254560000000  0.3911440000000  0.4605420000000 1.0
C      1  0.4700900000000  0.3859000000000  0.5277200000000 1.0
C      1  0.3862760000000  0.4461120000000  0.5265160000000 1.0
C      1  0.3862920000000  0.5274570000000  0.4759930000000 1.0
C      1  0.6048330000000  0.5403740000000  0.5346230000000 1.0
C      1  0.5295040000000  0.4639230000000  0.3785110000000 1.0
C      1  0.5267720000000  0.5373530000000  0.6058480000000 1.0
C      1  0.4600220000000  0.5373670000000  0.3932090000000 1.0
C      1  0.4779390000000  0.4005010000000  0.4610250000000 1.0
C      1  0.6130350000000  0.5252250000000  0.4715450000000 1.0
C      1  0.4705550000000  0.5308310000000  0.6077100000000 1.0
C      1  0.5252860000000  0.3973200000000  0.5377290000000 1.0
C      1  0.5443200000000  0.5904000000000  0.4712610000000 1.0
C      1  0.4724810000000  0.6168750000000  0.5261320000000 1.0
C      1  0.4046580000000  0.5306660000000  0.5360520000000 1.0
C      1  0.3977480000000  0.4673390000000  0.4662130000000 1.0
C      1  0.5964350000000  0.4755670000000  0.5380980000000 1.0
C      1  0.5180800000000  0.5279430000000  0.3847390000000 1.0
C      1  0.5273140000000  0.4752960000000  0.6152470000000 1.0
C      1  0.4514990000000  0.4803010000000  0.3840770000000 1.0
C      1  0.5145580000000  0.5512030000000  0.4075870000000 1.0
C      1  0.5522090000000  0.4131540000000  0.5270090000000 1.0
C      1  0.4089370000000  0.5150350000000  0.5604680000000 1.0
C      1  0.4783870000000  0.5606790000000  0.5973240000000 1.0
C      1  0.4957100000000  0.4374530000000  0.4178690000000 1.0
C      1  0.5158670000000  0.4405740000000  0.5854070000000 1.0
C      1  0.4532710000000  0.4078340000000  0.4827160000000 1.0
C      1  0.4497570000000  0.5935040000000  0.5179420000000 1.0
C      1  0.5627700000000  0.5784900000000  0.4881520000000 1.0
C      1  0.5970120000000  0.5093080000000  0.4502940000000 1.0
C      1  0.5802580000000  0.4941210000000  0.5557520000000 1.0
C      1  0.4110090000000  0.4912780000000  0.4521700000000 1.0
C      1  0.5190590000000  0.4446800000000  0.4033030000000 1.0
C      1  0.5545000000000  0.5718080000000  0.5205890000000 1.0
C      1  0.4292130000000  0.4982710000000  0.5693400000000 1.0
C      1  0.4839090000000  0.4489810000000  0.5935240000000 1.0
C      1  0.4872780000000  0.5587220000000  0.4249030000000 1.0
C      1  0.5096110000000  0.5574230000000  0.5914360000000 1.0
C      1  0.4360550000000  0.5854720000000  0.4909460000000 1.0
C      1  0.4512660000000  0.3904970000000  0.5038800000000 1.0
C      1  0.5699220000000  0.4188700000000  0.5068620000000 1.0
C      1  0.5986220000000  0.4800970000000  0.4504630000000 1.0
C      1  0.5899510000000  0.5202700000000  0.5584870000000 1.0
C      1  0.4049040000000  0.5190980000000  0.4525370000000 1.0
C      1  0.4839390000000  0.5146360000000  0.4395940000000 1.0
C      1  0.5309840000000  0.4390570000000  0.4732990000000 1.0
C      1  0.4373430000000  0.4740300000000  0.5240410000000 1.0
C      1  0.5131640000000  0.5286430000000  0.5534440000000 1.0
C      1  0.5180640000000  0.4757610000000  0.4305220000000 1.0
C      1  0.4861030000000  0.4830810000000  0.5360370000000 1.0
C      1  0.4874950000000  0.4625270000000  0.5087400000000 1.0
C      1  0.4785470000000  0.5522130000000  0.4780560000000 1.0
C      1  0.5160940000000  0.5629000000000  0.5147880000000 1.0
C      1  0.5543020000000  0.4816150000000  0.4676990000000 1.0
C      1  0.5548690000000  0.5218690000000  0.5257020000000 1.0
C      1  0.4431300000000  0.5103500000000  0.4827210000000 1.0
C      1  0.4878860000000  0.4866070000000  0.4285120000000 1.0
C      1  0.5114610000000  0.5550540000000  0.4835500000000 1.0
C      1  0.4446780000000  0.5047160000000  0.5162160000000 1.0
C      1  0.5136430000000  0.4810520000000  0.5559210000000 1.0
C      1  0.5294470000000  0.5166500000000  0.4409310000000 1.0
C      1  0.4860890000000  0.5110600000000  0.5553750000000 1.0
C      1  0.4858280000000  0.5635320000000  0.5304600000000 1.0
C      1  0.4803950000000  0.4513200000000  0.4768260000000 1.0
C      1  0.5154960000000  0.4471690000000  0.5183390000000 1.0
C      1  0.5372560000000  0.5077390000000  0.4704080000000 1.0
C      1  0.5444530000000  0.4895330000000  0.5242650000000 1.0
C      1  0.4454000000000  0.4754250000000  0.4811260000000 1.0
C      1  0.4405200000000  0.5609760000000  0.4510480000000 1.0
C      1  0.5645030000000  0.4394870000000  0.4341370000000 1.0
C      1  0.4333500000000  0.4408090000000  0.5594390000000 1.0
C      1  0.5623320000000  0.4481630000000  0.5599420000000 1.0
C      1  0.5651120000000  0.5523700000000  0.4329470000000 1.0
C      1  0.4427530000000  0.5639860000000  0.5630500000000 1.0
C      1  0.5608160000000  0.5613590000000  0.5697330000000 1.0
C      1  0.4401360000000  0.4382860000000  0.4323000000000 1.0
C      1  0.5140940000000  0.5019910000000  0.4894540000000 1.0
END
