TITL C-2622956-4641-77 0.000668910573322652 125000 -674.202676475933 0 0 128 (C1) n - 1
REM
REM in /nfs/bkarasulu/CARBON/AIRSS/Generating-Clusters/AIREBO/with-SteepDescent/Higher-Symm/SD-CG/HFTN-CG
REM
REM
REM
REM
REM
REM ./C.cell (b20cbc046b6831c77cfcea5457e17084)
REM
REM compiler GCC version 9.2.1 20190827 (Red Hat 9.2.1-1)
REM options -cpp -mtune=generic -march=x86-64 -g -O0 -fpre-include=/usr/include/finclude/math-vector-fortran.h
REM seed 1704847379 -227450282 -851128397 1505836835 2075349516 464720485 -1884899767 -630651308 26715231 998914682 -166216380 -1055480891 -891246487 -1431188479 2091098672 -24247668 4058898 -111208320 1079807042 570598605 188539121 369215356 2005200298 -1293329621 1181131353 1254829879 -210599987 -1782810690 1542233 -248676552 -220754064 -1792970908 -1006625863
REM
CELL 1.54180   50.00000   50.00000   50.00000   90.00000   90.00000   90.00000
LATT -1
SFAC C  
C      1  0.4166420000000  0.5142630000000  0.5124760000000 1.0
C      1  0.4459480000000  0.5630950000000  0.5178970000000 1.0
C      1  0.5075430000000  0.5822750000000  0.5205850000000 1.0
C      1  0.5557820000000  0.5528420000000  0.5060690000000 1.0
C      1  0.5782090000000  0.5062720000000  0.5283650000000 1.0
C      1  0.5854890000000  0.4564960000000  0.5169920000000 1.0
C      1  0.5263920000000  0.4091870000000  0.5145550000000 1.0
C      1  0.4654360000000  0.4293370000000  0.5242940000000 1.0
C      1  0.4250420000000  0.4537970000000  0.5193820000000 1.0
C      1  0.4659770000000  0.4834920000000  0.4529970000000 1.0
C      1  0.4599180000000  0.5076220000000  0.4661640000000 1.0
C      1  0.4815500000000  0.5240160000000  0.4708280000000 1.0
C      1  0.5050190000000  0.5353140000000  0.4794430000000 1.0
C      1  0.5281230000000  0.5256760000000  0.4700980000000 1.0
C      1  0.5290160000000  0.5062000000000  0.4504380000000 1.0
C      1  0.5326580000000  0.4812620000000  0.4618430000000 1.0
C      1  0.5098410000000  0.4671050000000  0.4643120000000 1.0
C      1  0.4785080000000  0.4641940000000  0.4682610000000 1.0
C      1  0.5135790000000  0.4876460000000  0.4080940000000 1.0
C      1  0.4940030000000  0.4776890000000  0.3922690000000 1.0
C      1  0.4790990000000  0.4836930000000  0.3704180000000 1.0
C      1  0.4643080000000  0.5045020000000  0.3609440000000 1.0
C      1  0.4664760000000  0.5316170000000  0.3631880000000 1.0
C      1  0.4842010000000  0.5481350000000  0.3755870000000 1.0
C      1  0.4994640000000  0.5488320000000  0.3979650000000 1.0
C      1  0.5175590000000  0.5347000000000  0.4123640000000 1.0
C      1  0.5206410000000  0.5094580000000  0.4241930000000 1.0
C      1  0.3916980000000  0.5139230000000  0.4889070000000 1.0
C      1  0.4325590000000  0.5796530000000  0.4842310000000 1.0
C      1  0.5053240000000  0.6114380000000  0.4915640000000 1.0
C      1  0.5803170000000  0.5749570000000  0.4837100000000 1.0
C      1  0.6013540000000  0.5102470000000  0.4813290000000 1.0
C      1  0.5977690000000  0.4457310000000  0.4882980000000 1.0
C      1  0.5440500000000  0.4012760000000  0.4867390000000 1.0
C      1  0.4719340000000  0.3949280000000  0.4958670000000 1.0
C      1  0.4105880000000  0.4376190000000  0.4859300000000 1.0
C      1  0.5780580000000  0.5426350000000  0.4746260000000 1.0
C      1  0.5881880000000  0.4813400000000  0.4729060000000 1.0
C      1  0.5659420000000  0.4462740000000  0.4835420000000 1.0
C      1  0.5199430000000  0.4260150000000  0.4861850000000 1.0
C      1  0.4600420000000  0.4248580000000  0.4849500000000 1.0
C      1  0.4178630000000  0.4679390000000  0.4827040000000 1.0
C      1  0.4197300000000  0.5271040000000  0.4748780000000 1.0
C      1  0.4639380000000  0.5835340000000  0.4853030000000 1.0
C      1  0.5218500000000  0.5856670000000  0.4793850000000 1.0
C      1  0.5512810000000  0.5824020000000  0.4961040000000 1.0
C      1  0.5872760000000  0.5282650000000  0.5040540000000 1.0
C      1  0.6078870000000  0.4755760000000  0.5000190000000 1.0
C      1  0.5540730000000  0.4272090000000  0.5065540000000 1.0
C      1  0.4799490000000  0.4051910000000  0.5221730000000 1.0
C      1  0.4316750000000  0.4243690000000  0.5036910000000 1.0
C      1  0.4019560000000  0.4852270000000  0.5038050000000 1.0
C      1  0.4244860000000  0.5518390000000  0.4941800000000 1.0
C      1  0.4803740000000  0.6000890000000  0.5102990000000 1.0
C      1  0.5311820000000  0.5206140000000  0.5382650000000 1.0
C      1  0.5368220000000  0.4961780000000  0.5261070000000 1.0
C      1  0.5250930000000  0.4696410000000  0.5340660000000 1.0
C      1  0.4937450000000  0.4570930000000  0.5277020000000 1.0
C      1  0.4668180000000  0.4665950000000  0.5383170000000 1.0
C      1  0.4502700000000  0.4902120000000  0.5285810000000 1.0
C      1  0.4639390000000  0.5173810000000  0.5309210000000 1.0
C      1  0.4788970000000  0.5446650000000  0.5327340000000 1.0
C      1  0.5088100000000  0.5358150000000  0.5358890000000 1.0
C      1  0.4920670000000  0.5873820000000  0.5704900000000 1.0
C      1  0.5425760000000  0.5691050000000  0.5569770000000 1.0
C      1  0.5779230000000  0.5264850000000  0.5765180000000 1.0
C      1  0.5715200000000  0.4726670000000  0.5674040000000 1.0
C      1  0.5330800000000  0.4267160000000  0.5659090000000 1.0
C      1  0.4756820000000  0.4221180000000  0.5670830000000 1.0
C      1  0.4261590000000  0.4558590000000  0.5761660000000 1.0
C      1  0.4164690000000  0.5115480000000  0.5645340000000 1.0
C      1  0.4384220000000  0.5613070000000  0.5677210000000 1.0
C      1  0.5325000000000  0.5968990000000  0.5168580000000 1.0
C      1  0.5751980000000  0.5460550000000  0.5303940000000 1.0
C      1  0.6071240000000  0.4982380000000  0.5212940000000 1.0
C      1  0.5662050000000  0.4416390000000  0.5303570000000 1.0
C      1  0.5051470000000  0.4086120000000  0.5333990000000 1.0
C      1  0.4365440000000  0.4291030000000  0.5376890000000 1.0
C      1  0.4067390000000  0.4743990000000  0.5349650000000 1.0
C      1  0.4244570000000  0.5399720000000  0.5260550000000 1.0
C      1  0.4614540000000  0.5873230000000  0.5339580000000 1.0
C      1  0.4629680000000  0.5181790000000  0.5752440000000 1.0
C      1  0.4805180000000  0.5402350000000  0.5791360000000 1.0
C      1  0.5088290000000  0.5429880000000  0.5752060000000 1.0
C      1  0.5324820000000  0.5284250000000  0.5779150000000 1.0
C      1  0.5398010000000  0.4995360000000  0.5778170000000 1.0
C      1  0.5272190000000  0.4739490000000  0.5741860000000 1.0
C      1  0.5015330000000  0.4618300000000  0.5747790000000 1.0
C      1  0.4736420000000  0.4663520000000  0.5808200000000 1.0
C      1  0.4581130000000  0.4908000000000  0.5763820000000 1.0
C      1  0.4743230000000  0.4516990000000  0.5002420000000 1.0
C      1  0.4467610000000  0.4716910000000  0.5002810000000 1.0
C      1  0.4388070000000  0.5029080000000  0.4893190000000 1.0
C      1  0.4766230000000  0.5608210000000  0.5071220000000 1.0
C      1  0.5049350000000  0.5604220000000  0.4946420000000 1.0
C      1  0.5508010000000  0.5272280000000  0.4878920000000 1.0
C      1  0.5564160000000  0.5008970000000  0.5027790000000 1.0
C      1  0.5568230000000  0.4779300000000  0.4818590000000 1.0
C      1  0.5073580000000  0.4524520000000  0.4921460000000 1.0
C      1  0.4273560000000  0.4514140000000  0.4475490000000 1.0
C      1  0.4236560000000  0.5052740000000  0.4491020000000 1.0
C      1  0.4534830000000  0.5584610000000  0.4444450000000 1.0
C      1  0.5017600000000  0.5748710000000  0.4541400000000 1.0
C      1  0.5560570000000  0.5543310000000  0.4514480000000 1.0
C      1  0.5856710000000  0.5055670000000  0.4324230000000 1.0
C      1  0.5734490000000  0.4532880000000  0.4360060000000 1.0
C      1  0.5329030000000  0.4248190000000  0.4557910000000 1.0
C      1  0.4784350000000  0.4208290000000  0.4566280000000 1.0
C      1  0.4336920000000  0.5379290000000  0.4458100000000 1.0
C      1  0.4741460000000  0.5755110000000  0.4567990000000 1.0
C      1  0.5358550000000  0.5730040000000  0.4510900000000 1.0
C      1  0.5787640000000  0.5303120000000  0.4429290000000 1.0
C      1  0.5844770000000  0.4790600000000  0.4428400000000 1.0
C      1  0.5572620000000  0.4380930000000  0.4546040000000 1.0
C      1  0.5046560000000  0.4143370000000  0.4511180000000 1.0
C      1  0.4466880000000  0.4327730000000  0.4542130000000 1.0
C      1  0.4158150000000  0.4791660000000  0.4525450000000 1.0
C      1  0.5704820000000  0.5013610000000  0.5575770000000 1.0
C      1  0.5473630000000  0.4545300000000  0.5548480000000 1.0
C      1  0.5031670000000  0.4360280000000  0.5526910000000 1.0
C      1  0.4547700000000  0.4472890000000  0.5599070000000 1.0
C      1  0.4319160000000  0.4827970000000  0.5562260000000 1.0
C      1  0.4415450000000  0.5310150000000  0.5525960000000 1.0
C      1  0.4706600000000  0.5644400000000  0.5573790000000 1.0
C      1  0.5100260000000  0.5664470000000  0.5506030000000 1.0
C      1  0.5549470000000  0.5379860000000  0.5542410000000 1.0
C      1  0.4874950000000  0.5039500000000  0.5103780000000 1.0
C      1  0.4964410000000  0.4842530000000  0.4976310000000 1.0
END
