TITL C-2622966-9038-249 -0.000988315823337513 125000 -665.89617471757 0 0 125 (C1) n - 1
REM
REM in /nfs/bkarasulu/CARBON/AIRSS/Generating-Clusters/AIREBO/with-SteepDescent/Higher-Symm/SD-CG/HFTN-CG
REM
REM
REM
REM
REM
REM ./C.cell (b20cbc046b6831c77cfcea5457e17084)
REM
REM compiler GCC version 9.2.1 20190827 (Red Hat 9.2.1-1)
REM options -cpp -mtune=generic -march=x86-64 -g -O0 -fpre-include=/usr/include/finclude/math-vector-fortran.h
REM seed 1581577724 -1114291693 1575279868 -14069716 1069712241 -607085757 1914360599 1634079226 265104046 1786512941 1218301601 -527571173 980154456 427967733 1598170116 -366102594 1486196873 2013118141 1978259724 793023396 223946712 -1157852717 1906314383 845142356 263833157 1052539750 155653367 -1767519687 1008476609 -1980195369 -48236714 269731798 1324919563
REM
CELL 1.54180   50.00000   50.00000   50.00000   90.00000   90.00000   90.00000
LATT -1
SFAC C  
C      1  0.5040740000000  0.4898320000000  0.5166650000000 1.0
C      1  0.5085560000000  0.4934260000000  0.4842650000000 1.0
C      1  0.5484480000000  0.4863740000000  0.5849390000000 1.0
C      1  0.5484060000000  0.4827340000000  0.4125510000000 1.0
C      1  0.5790570000000  0.5376620000000  0.5260040000000 1.0
C      1  0.5757940000000  0.5321810000000  0.4621180000000 1.0
C      1  0.4294880000000  0.4935340000000  0.4316850000000 1.0
C      1  0.4288630000000  0.4889240000000  0.5606470000000 1.0
C      1  0.4765860000000  0.4946190000000  0.5654740000000 1.0
C      1  0.4754130000000  0.4999180000000  0.4415660000000 1.0
C      1  0.5443970000000  0.4593950000000  0.4307550000000 1.0
C      1  0.5419030000000  0.4591770000000  0.5731500000000 1.0
C      1  0.5993380000000  0.4955980000000  0.4835700000000 1.0
C      1  0.5855710000000  0.5010430000000  0.5114820000000 1.0
C      1  0.4668830000000  0.5144680000000  0.5884970000000 1.0
C      1  0.4620080000000  0.5153650000000  0.4164090000000 1.0
C      1  0.5331880000000  0.4157510000000  0.5515680000000 1.0
C      1  0.5316670000000  0.4163180000000  0.4496630000000 1.0
C      1  0.5273090000000  0.4352620000000  0.5712820000000 1.0
C      1  0.5277720000000  0.4367690000000  0.4305460000000 1.0
C      1  0.4909360000000  0.5402820000000  0.5697490000000 1.0
C      1  0.4865000000000  0.5414430000000  0.4339050000000 1.0
C      1  0.5463500000000  0.5749120000000  0.5096030000000 1.0
C      1  0.5434090000000  0.5727090000000  0.4847150000000 1.0
C      1  0.4948630000000  0.5685880000000  0.4687920000000 1.0
C      1  0.5015270000000  0.5737310000000  0.5336900000000 1.0
C      1  0.5660360000000  0.4440880000000  0.5284430000000 1.0
C      1  0.5678990000000  0.4415900000000  0.4786450000000 1.0
C      1  0.5022910000000  0.5587810000000  0.5959240000000 1.0
C      1  0.5130570000000  0.5560610000000  0.4163050000000 1.0
C      1  0.4560690000000  0.4347810000000  0.4750910000000 1.0
C      1  0.4524920000000  0.4253830000000  0.5066750000000 1.0
C      1  0.5951410000000  0.5526320000000  0.5049410000000 1.0
C      1  0.5889990000000  0.5531260000000  0.4807060000000 1.0
C      1  0.5387220000000  0.5384270000000  0.4276660000000 1.0
C      1  0.5511010000000  0.5371420000000  0.5681480000000 1.0
C      1  0.5395220000000  0.4367810000000  0.5181580000000 1.0
C      1  0.5404250000000  0.4374380000000  0.4882680000000 1.0
C      1  0.4071860000000  0.4349160000000  0.5090680000000 1.0
C      1  0.4059860000000  0.4348570000000  0.4837340000000 1.0
C      1  0.4831070000000  0.5495680000000  0.5183790000000 1.0
C      1  0.4766850000000  0.5487090000000  0.4883120000000 1.0
C      1  0.4602630000000  0.4675290000000  0.4236660000000 1.0
C      1  0.4625720000000  0.4650880000000  0.5719370000000 1.0
C      1  0.5149320000000  0.4221010000000  0.4755160000000 1.0
C      1  0.5134100000000  0.4194380000000  0.5267450000000 1.0
C      1  0.5048100000000  0.4830370000000  0.4442400000000 1.0
C      1  0.5083670000000  0.4888470000000  0.5668860000000 1.0
C      1  0.4989460000000  0.4373590000000  0.5739640000000 1.0
C      1  0.5002570000000  0.4400390000000  0.4255720000000 1.0
C      1  0.5147550000000  0.5357550000000  0.4506220000000 1.0
C      1  0.5219630000000  0.5489600000000  0.5575010000000 1.0
C      1  0.5728880000000  0.4719150000000  0.5196340000000 1.0
C      1  0.5773330000000  0.4717370000000  0.4857700000000 1.0
C      1  0.5214290000000  0.5240510000000  0.4915260000000 1.0
C      1  0.5264960000000  0.5232890000000  0.5251410000000 1.0
C      1  0.4050520000000  0.5163260000000  0.4833650000000 1.0
C      1  0.4089520000000  0.5182520000000  0.5127640000000 1.0
C      1  0.4802440000000  0.4685490000000  0.5283360000000 1.0
C      1  0.4833480000000  0.4739310000000  0.4767160000000 1.0
C      1  0.4749290000000  0.5884810000000  0.4870850000000 1.0
C      1  0.4774680000000  0.5888630000000  0.5145980000000 1.0
C      1  0.5336750000000  0.4984920000000  0.4536080000000 1.0
C      1  0.5335090000000  0.5047090000000  0.5527490000000 1.0
C      1  0.4932730000000  0.4659300000000  0.5869620000000 1.0
C      1  0.4928180000000  0.4713680000000  0.4146360000000 1.0
C      1  0.5816920000000  0.4827240000000  0.5624010000000 1.0
C      1  0.5825410000000  0.4894630000000  0.4415650000000 1.0
C      1  0.5499760000000  0.5189380000000  0.4755630000000 1.0
C      1  0.5566960000000  0.5185790000000  0.5089010000000 1.0
C      1  0.4838720000000  0.4172460000000  0.4837990000000 1.0
C      1  0.4814190000000  0.4159550000000  0.5180830000000 1.0
C      1  0.4171130000000  0.4756980000000  0.4482710000000 1.0
C      1  0.4133830000000  0.4668480000000  0.5440310000000 1.0
C      1  0.4890920000000  0.4954090000000  0.6034030000000 1.0
C      1  0.4864740000000  0.4998280000000  0.4015040000000 1.0
C      1  0.4555170000000  0.5773940000000  0.4664710000000 1.0
C      1  0.4567720000000  0.5778420000000  0.5317160000000 1.0
C      1  0.4799940000000  0.4297530000000  0.4514380000000 1.0
C      1  0.4824780000000  0.4274440000000  0.5501670000000 1.0
C      1  0.4590150000000  0.5208370000000  0.5321130000000 1.0
C      1  0.4607360000000  0.5234740000000  0.4720130000000 1.0
C      1  0.4501770000000  0.5466240000000  0.4226650000000 1.0
C      1  0.4585390000000  0.5446700000000  0.5791550000000 1.0
C      1  0.5314710000000  0.5067140000000  0.4223760000000 1.0
C      1  0.5314170000000  0.5158110000000  0.5848210000000 1.0
C      1  0.4770780000000  0.4610230000000  0.4494410000000 1.0
C      1  0.4598450000000  0.4487680000000  0.5464180000000 1.0
C      1  0.5659660000000  0.5547490000000  0.5496360000000 1.0
C      1  0.5650270000000  0.5444010000000  0.4356640000000 1.0
C      1  0.4319830000000  0.5683130000000  0.5254200000000 1.0
C      1  0.4324620000000  0.5650040000000  0.4737140000000 1.0
C      1  0.4990630000000  0.5785730000000  0.4369580000000 1.0
C      1  0.5056540000000  0.5770830000000  0.5674660000000 1.0
C      1  0.4669700000000  0.5685430000000  0.4402430000000 1.0
C      1  0.4693390000000  0.5560840000000  0.5487780000000 1.0
C      1  0.4283160000000  0.4486760000000  0.4661660000000 1.0
C      1  0.4343360000000  0.4463110000000  0.5260720000000 1.0
C      1  0.5052740000000  0.5224830000000  0.4128310000000 1.0
C      1  0.5049630000000  0.5240140000000  0.5961080000000 1.0
C      1  0.4927510000000  0.5199320000000  0.5278080000000 1.0
C      1  0.4931820000000  0.5157610000000  0.4637370000000 1.0
C      1  0.4446930000000  0.5184150000000  0.5628620000000 1.0
C      1  0.4423340000000  0.5220560000000  0.4434440000000 1.0
C      1  0.4329350000000  0.5381560000000  0.5184220000000 1.0
C      1  0.4320020000000  0.5358830000000  0.4853350000000 1.0
C      1  0.4555950000000  0.4878430000000  0.5395930000000 1.0
C      1  0.4573420000000  0.4898170000000  0.4685370000000 1.0
C      1  0.4116090000000  0.4938280000000  0.5252790000000 1.0
C      1  0.4076190000000  0.4909420000000  0.4732930000000 1.0
C      1  0.5939730000000  0.5081410000000  0.4587620000000 1.0
C      1  0.5764790000000  0.5087360000000  0.5421270000000 1.0
C      1  0.4372110000000  0.4771220000000  0.5130660000000 1.0
C      1  0.4353140000000  0.4771280000000  0.4834140000000 1.0
C      1  0.5217700000000  0.5537290000000  0.4756900000000 1.0
C      1  0.5288600000000  0.5571650000000  0.5270310000000 1.0
C      1  0.5523090000000  0.4771380000000  0.5462170000000 1.0
C      1  0.5571690000000  0.4743910000000  0.4584910000000 1.0
C      1  0.5020680000000  0.4499840000000  0.5169130000000 1.0
C      1  0.5033550000000  0.4518920000000  0.4872340000000 1.0
C      1  0.5277580000000  0.4674030000000  0.5271270000000 1.0
C      1  0.5310630000000  0.4683190000000  0.4794100000000 1.0
C      1  0.5697600000000  0.5113010000000  0.5754680000000 1.0
C      1  0.5763310000000  0.4889450000000  0.4139520000000 1.0
C      1  0.4618920000000  0.5092070000000  0.5028550000000 1.0
END
