TITL C-2622963-3633-717 -0.000281304583406377 125000 -535.170867561794 0 0 109 (C1) n - 1
REM
REM in /nfs/bkarasulu/CARBON/AIRSS/Generating-Clusters/AIREBO/with-SteepDescent/Higher-Symm/SD-CG/HFTN-CG
REM
REM
REM
REM
REM
REM ./C.cell (b20cbc046b6831c77cfcea5457e17084)
REM
REM compiler GCC version 9.2.1 20190827 (Red Hat 9.2.1-1)
REM options -cpp -mtune=generic -march=x86-64 -g -O0 -fpre-include=/usr/include/finclude/math-vector-fortran.h
REM seed -2050249826 -889909637 691833329 1220776749 2077738393 2126976453 -118295952 390154248 1286197151 545270192 -651217454 -1299775227 -764431157 -1007662211 572908999 -1635440728 -1508850594 1549038878 1973929465 -925792871 1170768826 -2022089813 368594614 -774176386 639792792 -411847586 -2132591555 1859874596 1067291867 279902598 -1220040697 735450378 1470098996
REM
CELL 1.54180   50.00000   50.00000   50.00000   90.00000   90.00000   90.00000
LATT -1
SFAC C  
C      1  0.5643500000000  0.4757810000000  0.4533210000000 1.0
C      1  0.5491520000000  0.4724800000000  0.5428750000000 1.0
C      1  0.4696280000000  0.4796310000000  0.5649090000000 1.0
C      1  0.4336080000000  0.4795900000000  0.4985690000000 1.0
C      1  0.4911630000000  0.4781170000000  0.4295120000000 1.0
C      1  0.5598370000000  0.5230990000000  0.4659390000000 1.0
C      1  0.5546790000000  0.5184490000000  0.5417460000000 1.0
C      1  0.4696600000000  0.5286080000000  0.5739750000000 1.0
C      1  0.4059330000000  0.5261180000000  0.4885470000000 1.0
C      1  0.4850040000000  0.5235830000000  0.4371080000000 1.0
C      1  0.4655870000000  0.4882250000000  0.5064490000000 1.0
C      1  0.5023880000000  0.4828840000000  0.4612630000000 1.0
C      1  0.5354970000000  0.4851610000000  0.4687040000000 1.0
C      1  0.5190710000000  0.4829290000000  0.5289110000000 1.0
C      1  0.4842150000000  0.4818320000000  0.5342280000000 1.0
C      1  0.4749640000000  0.5162130000000  0.4890760000000 1.0
C      1  0.5011370000000  0.5163210000000  0.4673610000000 1.0
C      1  0.5312880000000  0.5161680000000  0.4831560000000 1.0
C      1  0.5322020000000  0.5121090000000  0.5169750000000 1.0
C      1  0.4797380000000  0.5133760000000  0.5461570000000 1.0
C      1  0.5422580000000  0.5664640000000  0.5383760000000 1.0
C      1  0.4678800000000  0.5630300000000  0.5517920000000 1.0
C      1  0.4346570000000  0.5655410000000  0.4817320000000 1.0
C      1  0.4694230000000  0.5741960000000  0.4362380000000 1.0
C      1  0.5518740000000  0.5800140000000  0.4540510000000 1.0
C      1  0.5417180000000  0.4333960000000  0.5389020000000 1.0
C      1  0.4584290000000  0.4415940000000  0.5604540000000 1.0
C      1  0.4482990000000  0.4395700000000  0.5044790000000 1.0
C      1  0.5079030000000  0.4420680000000  0.4315680000000 1.0
C      1  0.5715930000000  0.4380310000000  0.4702770000000 1.0
C      1  0.5868360000000  0.4742370000000  0.4773050000000 1.0
C      1  0.5441760000000  0.4729760000000  0.5761910000000 1.0
C      1  0.4376290000000  0.4831070000000  0.5688750000000 1.0
C      1  0.4271770000000  0.4759140000000  0.4677060000000 1.0
C      1  0.5111730000000  0.4853680000000  0.4042870000000 1.0
C      1  0.5885240000000  0.5181730000000  0.4802300000000 1.0
C      1  0.5437950000000  0.5172300000000  0.5717830000000 1.0
C      1  0.4374270000000  0.5321570000000  0.5691600000000 1.0
C      1  0.4062830000000  0.5212200000000  0.4599300000000 1.0
C      1  0.5077610000000  0.5266470000000  0.4119480000000 1.0
C      1  0.5035690000000  0.4536900000000  0.4746680000000 1.0
C      1  0.5430850000000  0.4542020000000  0.4805980000000 1.0
C      1  0.5152150000000  0.4501780000000  0.5372360000000 1.0
C      1  0.4756570000000  0.4489580000000  0.5320670000000 1.0
C      1  0.4665250000000  0.4592990000000  0.4885860000000 1.0
C      1  0.5080430000000  0.5496370000000  0.4670500000000 1.0
C      1  0.5392020000000  0.5480690000000  0.4919190000000 1.0
C      1  0.5217310000000  0.5396730000000  0.5342110000000 1.0
C      1  0.4748200000000  0.5395660000000  0.5281680000000 1.0
C      1  0.4639940000000  0.5483440000000  0.4815160000000 1.0
C      1  0.4519590000000  0.5285510000000  0.4588620000000 1.0
C      1  0.5285170000000  0.5342720000000  0.4446670000000 1.0
C      1  0.5633590000000  0.5344770000000  0.5062760000000 1.0
C      1  0.5087470000000  0.5345330000000  0.5634120000000 1.0
C      1  0.4435120000000  0.5318460000000  0.5203500000000 1.0
C      1  0.4655360000000  0.4678940000000  0.4601240000000 1.0
C      1  0.5307930000000  0.4671410000000  0.4334710000000 1.0
C      1  0.5573720000000  0.4694100000000  0.5038830000000 1.0
C      1  0.5069960000000  0.4668190000000  0.5634730000000 1.0
C      1  0.4465890000000  0.4665020000000  0.5339360000000 1.0
C      1  0.4781860000000  0.4479980000000  0.4365190000000 1.0
C      1  0.5551680000000  0.4456530000000  0.4435620000000 1.0
C      1  0.5642910000000  0.4465590000000  0.5268970000000 1.0
C      1  0.4812220000000  0.4509090000000  0.5789350000000 1.0
C      1  0.4226860000000  0.4517600000000  0.5147700000000 1.0
C      1  0.4614200000000  0.5476200000000  0.4323480000000 1.0
C      1  0.5565000000000  0.5526730000000  0.4494570000000 1.0
C      1  0.5652000000000  0.5484480000000  0.5359180000000 1.0
C      1  0.4881760000000  0.5563820000000  0.5754170000000 1.0
C      1  0.4279760000000  0.5427560000000  0.4978660000000 1.0
C      1  0.5847390000000  0.5095640000000  0.5350290000000 1.0
C      1  0.4919950000000  0.5151010000000  0.5940870000000 1.0
C      1  0.4064400000000  0.5170100000000  0.5195690000000 1.0
C      1  0.4561170000000  0.5098480000000  0.4243020000000 1.0
C      1  0.5632990000000  0.5187220000000  0.4316010000000 1.0
C      1  0.5807860000000  0.4816690000000  0.5336050000000 1.0
C      1  0.4888370000000  0.4870110000000  0.5925210000000 1.0
C      1  0.4092480000000  0.4885200000000  0.5205990000000 1.0
C      1  0.4589390000000  0.4822660000000  0.4236470000000 1.0
C      1  0.5651590000000  0.4910110000000  0.4257060000000 1.0
C      1  0.5945190000000  0.5220070000000  0.5091790000000 1.0
C      1  0.5219810000000  0.5227370000000  0.5904700000000 1.0
C      1  0.4238770000000  0.5306810000000  0.5453790000000 1.0
C      1  0.4277210000000  0.5217940000000  0.4387010000000 1.0
C      1  0.5387180000000  0.5318620000000  0.4137230000000 1.0
C      1  0.5905960000000  0.4688330000000  0.5066340000000 1.0
C      1  0.5186250000000  0.4720810000000  0.5934600000000 1.0
C      1  0.4173980000000  0.4775680000000  0.5474070000000 1.0
C      1  0.4383360000000  0.4679300000000  0.4414670000000 1.0
C      1  0.5418470000000  0.4823670000000  0.4064320000000 1.0
C      1  0.5269290000000  0.4357880000000  0.5018310000000 1.0
C      1  0.4940320000000  0.4267090000000  0.5500720000000 1.0
C      1  0.4647820000000  0.4196100000000  0.5187230000000 1.0
C      1  0.4798890000000  0.4303400000000  0.4767970000000 1.0
C      1  0.5257320000000  0.4360920000000  0.4576360000000 1.0
C      1  0.5307930000000  0.5722110000000  0.5119490000000 1.0
C      1  0.4988400000000  0.5622020000000  0.5363610000000 1.0
C      1  0.4710670000000  0.5669710000000  0.5082510000000 1.0
C      1  0.4823070000000  0.5673650000000  0.4600960000000 1.0
C      1  0.5315670000000  0.5735420000000  0.4726710000000 1.0
C      1  0.5290560000000  0.5006920000000  0.4391450000000 1.0
C      1  0.4455290000000  0.5003860000000  0.5310640000000 1.0
C      1  0.5614980000000  0.5005770000000  0.5041210000000 1.0
C      1  0.5076650000000  0.5006760000000  0.5603990000000 1.0
C      1  0.4657120000000  0.4987210000000  0.4614270000000 1.0
C      1  0.4990930000000  0.4465900000000  0.5075430000000 1.0
C      1  0.5000370000000  0.5518800000000  0.4981100000000 1.0
C      1  0.5006760000000  0.5835340000000  0.5105160000000 1.0
C      1  0.4789190000000  0.4100370000000  0.4952220000000 1.0
END
