TITL C-2622968-4806-663 -0.00432774306866901 125000 -858.161968922941 0 0 166 (C1) n - 1
REM
REM in /nfs/bkarasulu/CARBON/AIRSS/Generating-Clusters/AIREBO/with-SteepDescent/Higher-Symm/SD-CG/HFTN-CG
REM
REM
REM
REM
REM
REM ./C.cell (b20cbc046b6831c77cfcea5457e17084)
REM
REM compiler GCC version 9.2.1 20190827 (Red Hat 9.2.1-1)
REM options -cpp -mtune=generic -march=x86-64 -g -O0 -fpre-include=/usr/include/finclude/math-vector-fortran.h
REM seed -648440748 -128916127 1275578323 -180893760 -1295952358 2014310823 -1849404815 -508857561 -743928027 -1148935203 1280995106 -228437026 -208356480 822419135 -520849925 -1569603255 -796048153 1426908620 -4876229 -1276826441 308394327 1800368015 485690384 -1532481305 266561970 192565805 702423742 418865862 358767355 1564373070 -775552479 -67319220 -140072184
REM
CELL 1.54180   50.00000   50.00000   50.00000   90.00000   90.00000   90.00000
LATT -1
SFAC C  
C      1  0.4621960000000  0.4052370000000  0.4528630000000 1.0
C      1  0.3974270000000  0.4363610000000  0.4546290000000 1.0
C      1  0.4485800000000  0.4719530000000  0.4019100000000 1.0
C      1  0.4718530000000  0.5933440000000  0.5516400000000 1.0
C      1  0.5517930000000  0.3932850000000  0.5507740000000 1.0
C      1  0.5441000000000  0.5918480000000  0.4389050000000 1.0
C      1  0.3940270000000  0.5377610000000  0.5404180000000 1.0
C      1  0.5933840000000  0.4390470000000  0.5420640000000 1.0
C      1  0.5906740000000  0.5661830000000  0.4633630000000 1.0
C      1  0.4329390000000  0.5466440000000  0.5997760000000 1.0
C      1  0.5559210000000  0.4771060000000  0.5944620000000 1.0
C      1  0.5336540000000  0.5221160000000  0.4052950000000 1.0
C      1  0.5064050000000  0.5591770000000  0.5283780000000 1.0
C      1  0.5579980000000  0.5257760000000  0.5031760000000 1.0
C      1  0.5233310000000  0.5029180000000  0.5670240000000 1.0
C      1  0.5041270000000  0.4319550000000  0.4761610000000 1.0
C      1  0.5027650000000  0.5694650000000  0.4694180000000 1.0
C      1  0.4917070000000  0.4433660000000  0.5293460000000 1.0
C      1  0.5577160000000  0.4720900000000  0.5061260000000 1.0
C      1  0.4550090000000  0.5246100000000  0.4949440000000 1.0
C      1  0.4424790000000  0.4832960000000  0.5138830000000 1.0
C      1  0.5311010000000  0.4973500000000  0.4532000000000 1.0
C      1  0.4738300000000  0.5110750000000  0.4312220000000 1.0
C      1  0.4741270000000  0.4908670000000  0.5619140000000 1.0
C      1  0.4584980000000  0.5549340000000  0.4793330000000 1.0
C      1  0.5577390000000  0.4762140000000  0.4533120000000 1.0
C      1  0.4735980000000  0.4390690000000  0.5578900000000 1.0
C      1  0.4534550000000  0.4281480000000  0.5252040000000 1.0
C      1  0.5565790000000  0.5568440000000  0.5169200000000 1.0
C      1  0.5574770000000  0.4426750000000  0.4887750000000 1.0
C      1  0.5459390000000  0.5232110000000  0.5531380000000 1.0
C      1  0.4489640000000  0.4756530000000  0.5466100000000 1.0
C      1  0.4596530000000  0.5398420000000  0.4425500000000 1.0
C      1  0.4752060000000  0.5661170000000  0.4525450000000 1.0
C      1  0.5096900000000  0.4585440000000  0.4556240000000 1.0
C      1  0.5230510000000  0.5481980000000  0.5559310000000 1.0
C      1  0.4486640000000  0.5702240000000  0.5541060000000 1.0
C      1  0.5834840000000  0.5424220000000  0.4625430000000 1.0
C      1  0.5423040000000  0.4486920000000  0.5826800000000 1.0
C      1  0.4517200000000  0.4327630000000  0.4431090000000 1.0
C      1  0.5526020000000  0.5780800000000  0.4616690000000 1.0
C      1  0.5502050000000  0.4145290000000  0.5353460000000 1.0
C      1  0.5858480000000  0.4633970000000  0.5507330000000 1.0
C      1  0.4224520000000  0.5505180000000  0.5451210000000 1.0
C      1  0.4246910000000  0.4488360000000  0.4545210000000 1.0
C      1  0.5363890000000  0.5491430000000  0.4165180000000 1.0
C      1  0.4390510000000  0.4586350000000  0.4269950000000 1.0
C      1  0.4427160000000  0.5433150000000  0.5714800000000 1.0
C      1  0.4985360000000  0.5246870000000  0.5575990000000 1.0
C      1  0.5265750000000  0.5565260000000  0.5009220000000 1.0
C      1  0.5547600000000  0.5045510000000  0.5292390000000 1.0
C      1  0.4813720000000  0.4750740000000  0.4465290000000 1.0
C      1  0.5025090000000  0.5286960000000  0.4369710000000 1.0
C      1  0.5051520000000  0.4685750000000  0.5600510000000 1.0
C      1  0.5258150000000  0.4370480000000  0.4998340000000 1.0
C      1  0.4710960000000  0.5610110000000  0.5103230000000 1.0
C      1  0.4736860000000  0.4401310000000  0.5003860000000 1.0
C      1  0.5605250000000  0.4928150000000  0.4808210000000 1.0
C      1  0.4508320000000  0.4963620000000  0.4773600000000 1.0
C      1  0.4406650000000  0.5122590000000  0.5300690000000 1.0
C      1  0.4728800000000  0.4730620000000  0.5026080000000 1.0
C      1  0.4777540000000  0.5103260000000  0.4649870000000 1.0
C      1  0.4884930000000  0.4833200000000  0.4787120000000 1.0
C      1  0.4855750000000  0.5331720000000  0.4991520000000 1.0
C      1  0.5243950000000  0.4710170000000  0.4994350000000 1.0
C      1  0.5240360000000  0.5226590000000  0.4992550000000 1.0
C      1  0.4720240000000  0.5038870000000  0.5311410000000 1.0
C      1  0.5237980000000  0.4914560000000  0.5240460000000 1.0
C      1  0.5174840000000  0.4968250000000  0.4807440000000 1.0
C      1  0.5018610000000  0.5174350000000  0.5245210000000 1.0
C      1  0.4932070000000  0.4773350000000  0.5295300000000 1.0
C      1  0.4966180000000  0.5371190000000  0.4693850000000 1.0
C      1  0.5613810000000  0.5117020000000  0.4316630000000 1.0
C      1  0.5175370000000  0.4311550000000  0.5663850000000 1.0
C      1  0.4292550000000  0.5692470000000  0.5022580000000 1.0
C      1  0.5745580000000  0.4967620000000  0.5852520000000 1.0
C      1  0.4438350000000  0.5040090000000  0.5840400000000 1.0
C      1  0.4236750000000  0.5056580000000  0.4314900000000 1.0
C      1  0.5217290000000  0.5780640000000  0.4212570000000 1.0
C      1  0.4912120000000  0.4284330000000  0.4386770000000 1.0
C      1  0.4901820000000  0.5625700000000  0.5729460000000 1.0
C      1  0.4307630000000  0.4358200000000  0.4935070000000 1.0
C      1  0.5762970000000  0.5836920000000  0.4854350000000 1.0
C      1  0.5777790000000  0.4246150000000  0.5188800000000 1.0
C      1  0.4950740000000  0.4629480000000  0.4186840000000 1.0
C      1  0.4775770000000  0.4063790000000  0.5018920000000 1.0
C      1  0.4224100000000  0.5061280000000  0.4646930000000 1.0
C      1  0.4951000000000  0.5329200000000  0.5904180000000 1.0
C      1  0.4928830000000  0.4686600000000  0.5891410000000 1.0
C      1  0.4873260000000  0.5415740000000  0.4092780000000 1.0
C      1  0.4778730000000  0.5933040000000  0.5028750000000 1.0
C      1  0.5334660000000  0.4044940000000  0.4936830000000 1.0
C      1  0.5289080000000  0.5903880000000  0.5031030000000 1.0
C      1  0.4149430000000  0.4961070000000  0.5453610000000 1.0
C      1  0.5868870000000  0.5117270000000  0.5377840000000 1.0
C      1  0.5911570000000  0.4970160000000  0.4667850000000 1.0
C      1  0.4751480000000  0.4872330000000  0.4069850000000 1.0
C      1  0.4866500000000  0.4035070000000  0.4692470000000 1.0
C      1  0.4156900000000  0.4902830000000  0.4940430000000 1.0
C      1  0.4842120000000  0.5007930000000  0.5929100000000 1.0
C      1  0.5310410000000  0.4918870000000  0.5960700000000 1.0
C      1  0.5249850000000  0.5005720000000  0.4198010000000 1.0
C      1  0.4905360000000  0.5893110000000  0.5308170000000 1.0
C      1  0.5072060000000  0.3897960000000  0.4998840000000 1.0
C      1  0.5027940000000  0.5950220000000  0.4858410000000 1.0
C      1  0.3932240000000  0.5117500000000  0.5316770000000 1.0
C      1  0.5873310000000  0.4853320000000  0.5163540000000 1.0
C      1  0.5893430000000  0.5172230000000  0.4930750000000 1.0
C      1  0.4936560000000  0.4122010000000  0.5543060000000 1.0
C      1  0.4251930000000  0.5596270000000  0.4742800000000 1.0
C      1  0.5579340000000  0.4794870000000  0.4213460000000 1.0
C      1  0.4889970000000  0.5829210000000  0.4290980000000 1.0
C      1  0.5248670000000  0.4308880000000  0.4429170000000 1.0
C      1  0.5186630000000  0.5812580000000  0.5613690000000 1.0
C      1  0.4249520000000  0.4403930000000  0.5232890000000 1.0
C      1  0.5874960000000  0.5655330000000  0.5112420000000 1.0
C      1  0.5881790000000  0.4358670000000  0.4885200000000 1.0
C      1  0.5613810000000  0.5221440000000  0.5834140000000 1.0
C      1  0.4510760000000  0.4776810000000  0.5916850000000 1.0
C      1  0.4398490000000  0.5288390000000  0.4189420000000 1.0
C      1  0.5638310000000  0.3988470000000  0.5016240000000 1.0
C      1  0.4181300000000  0.5046920000000  0.5749480000000 1.0
C      1  0.5032430000000  0.5615110000000  0.3985880000000 1.0
C      1  0.5525120000000  0.6031640000000  0.4927750000000 1.0
C      1  0.4461080000000  0.4113090000000  0.4899250000000 1.0
C      1  0.4453790000000  0.5910850000000  0.5045450000000 1.0
C      1  0.3985410000000  0.4976970000000  0.4170680000000 1.0
C      1  0.5882450000000  0.5105960000000  0.4395740000000 1.0
C      1  0.5899900000000  0.4904340000000  0.5621490000000 1.0
C      1  0.5127910000000  0.4450170000000  0.5961050000000 1.0
C      1  0.4877320000000  0.5600100000000  0.6060520000000 1.0
C      1  0.4849420000000  0.4332560000000  0.4105840000000 1.0
C      1  0.4747880000000  0.4409040000000  0.4658260000000 1.0
C      1  0.4336470000000  0.4664210000000  0.4789130000000 1.0
C      1  0.4505760000000  0.4873770000000  0.4386200000000 1.0
C      1  0.4762080000000  0.5545950000000  0.5433370000000 1.0
C      1  0.5234980000000  0.4319380000000  0.5333720000000 1.0
C      1  0.5325050000000  0.5549120000000  0.4674580000000 1.0
C      1  0.4364840000000  0.5421400000000  0.5167510000000 1.0
C      1  0.5580080000000  0.4725040000000  0.5401320000000 1.0
C      1  0.5585280000000  0.5247360000000  0.4691950000000 1.0
C      1  0.4655320000000  0.5227290000000  0.5656760000000 1.0
C      1  0.5361180000000  0.4721270000000  0.5602210000000 1.0
C      1  0.5356690000000  0.5299270000000  0.4445620000000 1.0
C      1  0.5396810000000  0.5789570000000  0.5365690000000 1.0
C      1  0.5903740000000  0.5454220000000  0.5348440000000 1.0
C      1  0.5423350000000  0.5470240000000  0.5847530000000 1.0
C      1  0.5415220000000  0.4226470000000  0.4660720000000 1.0
C      1  0.4713020000000  0.5915150000000  0.4100020000000 1.0
C      1  0.4716770000000  0.4054860000000  0.5353590000000 1.0
C      1  0.5847100000000  0.4636410000000  0.4680760000000 1.0
C      1  0.4313040000000  0.5360490000000  0.4570960000000 1.0
C      1  0.4193430000000  0.4629620000000  0.5391030000000 1.0
C      1  0.5266900000000  0.4675530000000  0.4275070000000 1.0
C      1  0.4593400000000  0.5457490000000  0.4031550000000 1.0
C      1  0.4688360000000  0.4487020000000  0.5906400000000 1.0
C      1  0.5001500000000  0.3704090000000  0.4792850000000 1.0
C      1  0.5045520000000  0.6215520000000  0.4707680000000 1.0
C      1  0.4952140000000  0.5055230000000  0.3943570000000 1.0
C      1  0.5099140000000  0.4957030000000  0.6128310000000 1.0
C      1  0.6115970000000  0.5030740000000  0.5078690000000 1.0
C      1  0.3899910000000  0.5007800000000  0.5070230000000 1.0
C      1  0.5693100000000  0.5479030000000  0.5537040000000 1.0
C      1  0.6058180000000  0.4395960000000  0.4622290000000 1.0
C      1  0.4545890000000  0.5732260000000  0.3971810000000 1.0
C      1  0.4445160000000  0.4525660000000  0.5692320000000 1.0
END
