TITL C-2622967-6265-295 -0.00323349578198639 125000 -351.153543093389 0 0 60 (C1) n - 1
REM
REM in /nfs/bkarasulu/CARBON/AIRSS/Generating-Clusters/AIREBO/with-SteepDescent/Higher-Symm/SD-CG/HFTN-CG
REM
REM
REM
REM
REM
REM ./C.cell (b20cbc046b6831c77cfcea5457e17084)
REM
REM compiler GCC version 9.2.1 20190827 (Red Hat 9.2.1-1)
REM options -cpp -mtune=generic -march=x86-64 -g -O0 -fpre-include=/usr/include/finclude/math-vector-fortran.h
REM seed -555348996 1897945594 -1303958146 239466458 -1670467718 -1727289405 1395183370 -1955916505 609268326 388514789 105545614 1630871200 -1026295393 -246648790 1714180263 -234224189 -673910719 -10102696 626950077 -1645671155 -511155176 1771374280 1803905959 -1085191693 -1538712699 1005403752 -510608584 -1503685609 -157812313 1562260808 304587995 -201951228 944584002
REM
CELL 1.54180   50.00000   50.00000   50.00000   90.00000   90.00000   90.00000
LATT -1
SFAC C  
C      1  0.5084180000000  0.4442210000000  0.4831130000000 1.0
C      1  0.5147870000000  0.5190070000000  0.5519110000000 1.0
C      1  0.5196070000000  0.5231080000000  0.4477630000000 1.0
C      1  0.4828770000000  0.4415360000000  0.4930110000000 1.0
C      1  0.4909190000000  0.5148270000000  0.4462690000000 1.0
C      1  0.4877510000000  0.5317940000000  0.5448370000000 1.0
C      1  0.4835610000000  0.5498640000000  0.5164600000000 1.0
C      1  0.4865820000000  0.4814110000000  0.4517170000000 1.0
C      1  0.4863450000000  0.4746860000000  0.5490310000000 1.0
C      1  0.5110380000000  0.5575240000000  0.5068990000000 1.0
C      1  0.5137610000000  0.4851260000000  0.5556420000000 1.0
C      1  0.5125940000000  0.4677960000000  0.4626670000000 1.0
C      1  0.5304050000000  0.5175780000000  0.4752890000000 1.0
C      1  0.5367150000000  0.4790120000000  0.5041580000000 1.0
C      1  0.5364550000000  0.5209300000000  0.5258500000000 1.0
C      1  0.4712760000000  0.5127370000000  0.5248440000000 1.0
C      1  0.4677800000000  0.4681070000000  0.5003860000000 1.0
C      1  0.4754950000000  0.5130650000000  0.4747580000000 1.0
C      1  0.4801540000000  0.4841470000000  0.5228160000000 1.0
C      1  0.4648840000000  0.5284540000000  0.4977540000000 1.0
C      1  0.4631040000000  0.4848210000000  0.4751910000000 1.0
C      1  0.5234660000000  0.4886940000000  0.4818380000000 1.0
C      1  0.5262400000000  0.5335000000000  0.5009540000000 1.0
C      1  0.5297600000000  0.4909420000000  0.5280130000000 1.0
C      1  0.4400290000000  0.4875640000000  0.5537450000000 1.0
C      1  0.4426460000000  0.5586130000000  0.4843570000000 1.0
C      1  0.4372350000000  0.4597970000000  0.4583200000000 1.0
C      1  0.5603480000000  0.4821410000000  0.4466440000000 1.0
C      1  0.5594920000000  0.5530400000000  0.5197950000000 1.0
C      1  0.5581760000000  0.4627870000000  0.5346570000000 1.0
C      1  0.5581630000000  0.5023960000000  0.4266380000000 1.0
C      1  0.5542280000000  0.4439150000000  0.5102310000000 1.0
C      1  0.5610470000000  0.5424820000000  0.5485820000000 1.0
C      1  0.4420400000000  0.5173370000000  0.5570440000000 1.0
C      1  0.4373660000000  0.4449440000000  0.4832260000000 1.0
C      1  0.4429190000000  0.5388620000000  0.4606070000000 1.0
C      1  0.5408110000000  0.4659920000000  0.5570020000000 1.0
C      1  0.5375220000000  0.5701000000000  0.5124470000000 1.0
C      1  0.5392780000000  0.4627890000000  0.4461960000000 1.0
C      1  0.4618740000000  0.4605530000000  0.4423900000000 1.0
C      1  0.4614580000000  0.5689880000000  0.5009850000000 1.0
C      1  0.4621520000000  0.4719350000000  0.5634780000000 1.0
C      1  0.4639530000000  0.5334300000000  0.4424620000000 1.0
C      1  0.4592090000000  0.4263680000000  0.4858490000000 1.0
C      1  0.4629630000000  0.5328020000000  0.5646210000000 1.0
C      1  0.5387410000000  0.5380110000000  0.5638530000000 1.0
C      1  0.5317660000000  0.4348720000000  0.4959990000000 1.0
C      1  0.5380430000000  0.5214300000000  0.4279900000000 1.0
C      1  0.5613840000000  0.5171440000000  0.4786870000000 1.0
C      1  0.5680580000000  0.4721480000000  0.4972130000000 1.0
C      1  0.5691720000000  0.5155330000000  0.5293820000000 1.0
C      1  0.4381360000000  0.5134630000000  0.5234130000000 1.0
C      1  0.4365490000000  0.4630580000000  0.5080030000000 1.0
C      1  0.4245800000000  0.5153440000000  0.4680400000000 1.0
C      1  0.4278820000000  0.4811950000000  0.5265810000000 1.0
C      1  0.4308000000000  0.5294650000000  0.4973410000000 1.0
C      1  0.4312850000000  0.4892880000000  0.4638390000000 1.0
C      1  0.5701120000000  0.4907770000000  0.4721120000000 1.0
C      1  0.5703440000000  0.5319560000000  0.5002220000000 1.0
C      1  0.5762650000000  0.4865910000000  0.5268800000000 1.0
END
