TITL C-2622959-7779-507 0.00161033616946935 125000 -816.619546604033 0 0 146 (C1) n - 1
REM
REM in /nfs/bkarasulu/CARBON/AIRSS/Generating-Clusters/AIREBO/with-SteepDescent/Higher-Symm/SD-CG/HFTN-CG
REM
REM
REM
REM
REM
REM ./C.cell (b20cbc046b6831c77cfcea5457e17084)
REM
REM compiler GCC version 9.2.1 20190827 (Red Hat 9.2.1-1)
REM options -cpp -mtune=generic -march=x86-64 -g -O0 -fpre-include=/usr/include/finclude/math-vector-fortran.h
REM seed -868439087 350402134 -1375528539 -744888294 1875824786 802401912 752175494 100401853 -1571961102 1832990570 -1682824922 -516739565 64297067 -218130405 2049920618 -777795538 386761120 -1537207151 1645821770 -1838457250 578724416 80623165 1234072270 1928957962 -804151244 -2131707422 -1392605423 821933924 1287350181 -675328122 1672085725 -797325237 1984613881
REM
CELL 1.54180   50.00000   50.00000   50.00000   90.00000   90.00000   90.00000
LATT -1
SFAC C  
C      1  0.5099430000000  0.4019320000000  0.5414690000000 1.0
C      1  0.5089310000000  0.5809690000000  0.4400790000000 1.0
C      1  0.5128290000000  0.4037010000000  0.4531090000000 1.0
C      1  0.5123330000000  0.5992530000000  0.5566490000000 1.0
C      1  0.5266940000000  0.4988620000000  0.6138570000000 1.0
C      1  0.5357100000000  0.4782950000000  0.3970920000000 1.0
C      1  0.5304100000000  0.5089800000000  0.4071200000000 1.0
C      1  0.5245830000000  0.4773030000000  0.5932420000000 1.0
C      1  0.5447380000000  0.5153260000000  0.5131100000000 1.0
C      1  0.5483010000000  0.4862940000000  0.4670310000000 1.0
C      1  0.5473380000000  0.5147260000000  0.4801280000000 1.0
C      1  0.5530450000000  0.4895760000000  0.5303750000000 1.0
C      1  0.4544760000000  0.5877050000000  0.5468450000000 1.0
C      1  0.4399640000000  0.4155950000000  0.4635540000000 1.0
C      1  0.4348890000000  0.5865310000000  0.4633700000000 1.0
C      1  0.4393370000000  0.4127200000000  0.5420440000000 1.0
C      1  0.5036370000000  0.4840530000000  0.4040970000000 1.0
C      1  0.5109040000000  0.5141130000000  0.5878910000000 1.0
C      1  0.4947620000000  0.4855880000000  0.5786940000000 1.0
C      1  0.5008900000000  0.5126810000000  0.4198940000000 1.0
C      1  0.4766180000000  0.4798700000000  0.4900930000000 1.0
C      1  0.4710490000000  0.5209320000000  0.5164950000000 1.0
C      1  0.4850860000000  0.4900600000000  0.5191750000000 1.0
C      1  0.4707720000000  0.5126420000000  0.4830620000000 1.0
C      1  0.5245190000000  0.5784510000000  0.4830640000000 1.0
C      1  0.5232200000000  0.4345080000000  0.5228250000000 1.0
C      1  0.5275910000000  0.5603260000000  0.5287750000000 1.0
C      1  0.5363470000000  0.4314680000000  0.4833920000000 1.0
C      1  0.5990150000000  0.4951770000000  0.5166580000000 1.0
C      1  0.5979560000000  0.5093770000000  0.4641010000000 1.0
C      1  0.6011100000000  0.4842230000000  0.4742110000000 1.0
C      1  0.5919600000000  0.5211120000000  0.5239780000000 1.0
C      1  0.5773960000000  0.5301960000000  0.4763000000000 1.0
C      1  0.5760270000000  0.4731040000000  0.5129840000000 1.0
C      1  0.5696190000000  0.5346910000000  0.5071710000000 1.0
C      1  0.5731590000000  0.4662710000000  0.4797660000000 1.0
C      1  0.4994550000000  0.5305840000000  0.4865610000000 1.0
C      1  0.5047750000000  0.4624230000000  0.5167300000000 1.0
C      1  0.5088840000000  0.5365120000000  0.5168900000000 1.0
C      1  0.5157260000000  0.4543810000000  0.4855530000000 1.0
C      1  0.5479450000000  0.4566340000000  0.4103570000000 1.0
C      1  0.5319540000000  0.5247000000000  0.5679850000000 1.0
C      1  0.5431110000000  0.4601020000000  0.5805720000000 1.0
C      1  0.5376230000000  0.5296590000000  0.4311140000000 1.0
C      1  0.4339920000000  0.4815120000000  0.5194760000000 1.0
C      1  0.4236810000000  0.5160850000000  0.4853930000000 1.0
C      1  0.4330610000000  0.4833790000000  0.4849350000000 1.0
C      1  0.4269490000000  0.5115940000000  0.5182400000000 1.0
C      1  0.4862840000000  0.4130480000000  0.4502550000000 1.0
C      1  0.4828450000000  0.6011830000000  0.5448840000000 1.0
C      1  0.4846100000000  0.4093230000000  0.5507790000000 1.0
C      1  0.4804530000000  0.5822270000000  0.4420200000000 1.0
C      1  0.5635780000000  0.5736110000000  0.5444500000000 1.0
C      1  0.5537850000000  0.4260210000000  0.4560110000000 1.0
C      1  0.5624810000000  0.5779150000000  0.4614340000000 1.0
C      1  0.5518350000000  0.4292520000000  0.5366110000000 1.0
C      1  0.5069110000000  0.5909990000000  0.4991260000000 1.0
C      1  0.5090600000000  0.4080170000000  0.5088230000000 1.0
C      1  0.5158920000000  0.5903260000000  0.5252250000000 1.0
C      1  0.5214540000000  0.4036450000000  0.4805660000000 1.0
C      1  0.4490170000000  0.4438530000000  0.5517070000000 1.0
C      1  0.4485010000000  0.5562820000000  0.4523410000000 1.0
C      1  0.4585340000000  0.4438350000000  0.4547930000000 1.0
C      1  0.4552550000000  0.5567440000000  0.5483960000000 1.0
C      1  0.5303710000000  0.5561510000000  0.5722670000000 1.0
C      1  0.5285740000000  0.4398970000000  0.4222820000000 1.0
C      1  0.5503690000000  0.5588780000000  0.4204080000000 1.0
C      1  0.5296850000000  0.4372890000000  0.5688340000000 1.0
C      1  0.5790030000000  0.5555680000000  0.5590280000000 1.0
C      1  0.5726600000000  0.4463750000000  0.4521830000000 1.0
C      1  0.5787470000000  0.5556750000000  0.4577760000000 1.0
C      1  0.5693830000000  0.4545990000000  0.5403940000000 1.0
C      1  0.4513930000000  0.4675610000000  0.6058490000000 1.0
C      1  0.4478260000000  0.5391430000000  0.4057050000000 1.0
C      1  0.4507850000000  0.4690560000000  0.3988790000000 1.0
C      1  0.4559340000000  0.5451050000000  0.5903330000000 1.0
C      1  0.4195690000000  0.5097810000000  0.4462670000000 1.0
C      1  0.4164770000000  0.4919400000000  0.5610010000000 1.0
C      1  0.4188690000000  0.5171820000000  0.5569520000000 1.0
C      1  0.4224890000000  0.4842420000000  0.4452810000000 1.0
C      1  0.4553470000000  0.5157550000000  0.4295390000000 1.0
C      1  0.4503210000000  0.4884780000000  0.5819170000000 1.0
C      1  0.4572610000000  0.5169730000000  0.5731940000000 1.0
C      1  0.4572560000000  0.4858980000000  0.4259300000000 1.0
C      1  0.4794870000000  0.4388740000000  0.5637440000000 1.0
C      1  0.4653110000000  0.5597940000000  0.4265030000000 1.0
C      1  0.4823170000000  0.4412070000000  0.4351380000000 1.0
C      1  0.4826670000000  0.5468010000000  0.5590970000000 1.0
C      1  0.5231990000000  0.5290160000000  0.4622690000000 1.0
C      1  0.5236650000000  0.4784530000000  0.5380290000000 1.0
C      1  0.5214840000000  0.5128410000000  0.5378060000000 1.0
C      1  0.5182830000000  0.4733660000000  0.4616490000000 1.0
C      1  0.4513700000000  0.4450230000000  0.4880100000000 1.0
C      1  0.4477530000000  0.5631310000000  0.5161070000000 1.0
C      1  0.4457330000000  0.4433910000000  0.5178660000000 1.0
C      1  0.4473010000000  0.5568210000000  0.4863180000000 1.0
C      1  0.5346170000000  0.4158690000000  0.4369420000000 1.0
C      1  0.5414050000000  0.5818380000000  0.5594110000000 1.0
C      1  0.5326500000000  0.4112170000000  0.5550280000000 1.0
C      1  0.5428570000000  0.5807660000000  0.4377510000000 1.0
C      1  0.4907250000000  0.5168120000000  0.5508380000000 1.0
C      1  0.4859750000000  0.4839770000000  0.4597390000000 1.0
C      1  0.5021860000000  0.5077650000000  0.4491160000000 1.0
C      1  0.4753120000000  0.4891720000000  0.5509180000000 1.0
C      1  0.4528920000000  0.4761680000000  0.4582230000000 1.0
C      1  0.4481370000000  0.5247450000000  0.5413640000000 1.0
C      1  0.4443550000000  0.4750970000000  0.5512250000000 1.0
C      1  0.4466830000000  0.5235750000000  0.4614840000000 1.0
C      1  0.4805180000000  0.4660820000000  0.4120300000000 1.0
C      1  0.4850310000000  0.5295290000000  0.5882880000000 1.0
C      1  0.4746640000000  0.4618740000000  0.5845730000000 1.0
C      1  0.4799860000000  0.5318090000000  0.4139520000000 1.0
C      1  0.5092910000000  0.4528640000000  0.5552540000000 1.0
C      1  0.5172990000000  0.5621280000000  0.4618930000000 1.0
C      1  0.5098500000000  0.4552520000000  0.4364910000000 1.0
C      1  0.5054700000000  0.5657330000000  0.5540500000000 1.0
C      1  0.4648350000000  0.5994000000000  0.5184980000000 1.0
C      1  0.4678490000000  0.4086330000000  0.4713000000000 1.0
C      1  0.4658230000000  0.5895890000000  0.4659870000000 1.0
C      1  0.4643230000000  0.4047620000000  0.5308580000000 1.0
C      1  0.4018830000000  0.5410550000000  0.4854880000000 1.0
C      1  0.3954780000000  0.4556160000000  0.5067180000000 1.0
C      1  0.4068350000000  0.5366390000000  0.5150130000000 1.0
C      1  0.4075290000000  0.4613740000000  0.4813550000000 1.0
C      1  0.5863290000000  0.5240140000000  0.5530330000000 1.0
C      1  0.5658960000000  0.4884020000000  0.4400930000000 1.0
C      1  0.5834230000000  0.5098310000000  0.4391780000000 1.0
C      1  0.5679610000000  0.4985050000000  0.5581510000000 1.0
C      1  0.4153810000000  0.4558170000000  0.5259300000000 1.0
C      1  0.4168680000000  0.5624540000000  0.4752510000000 1.0
C      1  0.4230870000000  0.4394650000000  0.4724230000000 1.0
C      1  0.4180500000000  0.5588010000000  0.5273520000000 1.0
C      1  0.4783240000000  0.4440890000000  0.5247450000000 1.0
C      1  0.4784530000000  0.5515490000000  0.4778630000000 1.0
C      1  0.4846100000000  0.4470960000000  0.4858100000000 1.0
C      1  0.4803490000000  0.5536330000000  0.5175510000000 1.0
C      1  0.5700000000000  0.5355110000000  0.4343860000000 1.0
C      1  0.5638160000000  0.4698120000000  0.5634240000000 1.0
C      1  0.5621390000000  0.5324740000000  0.5748520000000 1.0
C      1  0.5688250000000  0.4628450000000  0.4288290000000 1.0
C      1  0.5733270000000  0.4238840000000  0.5151070000000 1.0
C      1  0.5517900000000  0.5790070000000  0.4876590000000 1.0
C      1  0.5658700000000  0.4366170000000  0.4924200000000 1.0
C      1  0.5579910000000  0.5636420000000  0.5138490000000 1.0
C      1  0.4780350000000  0.5801230000000  0.4963120000000 1.0
C      1  0.4772890000000  0.4183680000000  0.5025110000000 1.0
END
