TITL C-2622962-9663-382 0.000709289211333332 125000 -493.856603823319 0 0 82 (C1) n - 1
REM
REM in /nfs/bkarasulu/CARBON/AIRSS/Generating-Clusters/AIREBO/with-SteepDescent/Higher-Symm/SD-CG/HFTN-CG
REM
REM
REM
REM
REM
REM ./C.cell (b20cbc046b6831c77cfcea5457e17084)
REM
REM compiler GCC version 9.2.1 20190827 (Red Hat 9.2.1-1)
REM options -cpp -mtune=generic -march=x86-64 -g -O0 -fpre-include=/usr/include/finclude/math-vector-fortran.h
REM seed -244932197 -1187462734 1681352657 895988939 -595978657 -861035527 941745446 -1872730980 1458174477 -1740072030 1997203943 -10158172 -830612651 -1962070950 567021785 1159242792 1807051648 1989456840 -1328723740 437234337 -1840628420 -1531158343 -2044159765 -1604656210 -1746464923 1870617614 -200599442 2085401016 -1153596421 -9283042 1071402973 -1574580780 -1864429225
REM
CELL 1.54180   50.00000   50.00000   50.00000   90.00000   90.00000   90.00000
LATT -1
SFAC C  
C      1  0.4821770000000  0.4657380000000  0.4318910000000 1.0
C      1  0.5605700000000  0.4673620000000  0.4660660000000 1.0
C      1  0.5499820000000  0.4477370000000  0.5458660000000 1.0
C      1  0.4667310000000  0.4529130000000  0.5675880000000 1.0
C      1  0.4256250000000  0.4604320000000  0.4937340000000 1.0
C      1  0.4886490000000  0.5540980000000  0.4331890000000 1.0
C      1  0.5631140000000  0.5567800000000  0.4637580000000 1.0
C      1  0.5561090000000  0.5368170000000  0.5492520000000 1.0
C      1  0.4703450000000  0.5355290000000  0.5562910000000 1.0
C      1  0.4345400000000  0.5489400000000  0.4819240000000 1.0
C      1  0.5562190000000  0.4772010000000  0.5201020000000 1.0
C      1  0.4992740000000  0.4736850000000  0.5579730000000 1.0
C      1  0.4445010000000  0.4630710000000  0.5169110000000 1.0
C      1  0.4661140000000  0.4673140000000  0.4575760000000 1.0
C      1  0.5316250000000  0.4690380000000  0.4564630000000 1.0
C      1  0.5553470000000  0.5356830000000  0.5189480000000 1.0
C      1  0.5006470000000  0.5301460000000  0.5554060000000 1.0
C      1  0.4476060000000  0.5217210000000  0.5076970000000 1.0
C      1  0.4735410000000  0.5204350000000  0.4509620000000 1.0
C      1  0.5367140000000  0.5287510000000  0.4543020000000 1.0
C      1  0.4979800000000  0.4426030000000  0.5601460000000 1.0
C      1  0.4530440000000  0.4354040000000  0.5258890000000 1.0
C      1  0.4600630000000  0.4389900000000  0.4690280000000 1.0
C      1  0.5168110000000  0.4417640000000  0.4542300000000 1.0
C      1  0.5535890000000  0.4451800000000  0.5126980000000 1.0
C      1  0.5134270000000  0.5581670000000  0.5508990000000 1.0
C      1  0.4514780000000  0.5532470000000  0.5092240000000 1.0
C      1  0.4720500000000  0.5647820000000  0.4543810000000 1.0
C      1  0.5332480000000  0.5617690000000  0.4524320000000 1.0
C      1  0.5529390000000  0.5647020000000  0.5092090000000 1.0
C      1  0.4866870000000  0.5736690000000  0.4769880000000 1.0
C      1  0.5165200000000  0.5689740000000  0.4780910000000 1.0
C      1  0.5216090000000  0.5724910000000  0.5116840000000 1.0
C      1  0.4947780000000  0.5747950000000  0.5303240000000 1.0
C      1  0.4757210000000  0.5728870000000  0.5030330000000 1.0
C      1  0.4808220000000  0.4271500000000  0.4847370000000 1.0
C      1  0.5087730000000  0.4297820000000  0.4780100000000 1.0
C      1  0.5240930000000  0.4361750000000  0.5032800000000 1.0
C      1  0.5021330000000  0.4369140000000  0.5282760000000 1.0
C      1  0.4766940000000  0.4272710000000  0.5132820000000 1.0
C      1  0.4467410000000  0.5136410000000  0.4509580000000 1.0
C      1  0.5248380000000  0.5154800000000  0.4300910000000 1.0
C      1  0.5736290000000  0.5209810000000  0.4998260000000 1.0
C      1  0.5203030000000  0.5147510000000  0.5733310000000 1.0
C      1  0.4350260000000  0.5104410000000  0.5329240000000 1.0
C      1  0.4410430000000  0.4855720000000  0.4565460000000 1.0
C      1  0.5263060000000  0.4851380000000  0.4305780000000 1.0
C      1  0.5781860000000  0.4917450000000  0.5042180000000 1.0
C      1  0.5217810000000  0.4857080000000  0.5687980000000 1.0
C      1  0.4367140000000  0.4815040000000  0.5400340000000 1.0
C      1  0.5663830000000  0.4461850000000  0.4829330000000 1.0
C      1  0.5296240000000  0.4331100000000  0.5584630000000 1.0
C      1  0.4510990000000  0.4326370000000  0.5539790000000 1.0
C      1  0.4331230000000  0.4376390000000  0.4782280000000 1.0
C      1  0.4984480000000  0.4422310000000  0.4324470000000 1.0
C      1  0.5675410000000  0.5711620000000  0.4869890000000 1.0
C      1  0.5398810000000  0.5590490000000  0.5576050000000 1.0
C      1  0.4659620000000  0.5583600000000  0.5383570000000 1.0
C      1  0.4438770000000  0.5630660000000  0.4602240000000 1.0
C      1  0.5127350000000  0.5673380000000  0.4297560000000 1.0
C      1  0.5496880000000  0.5130040000000  0.5619700000000 1.0
C      1  0.4537580000000  0.5127750000000  0.5576020000000 1.0
C      1  0.4299860000000  0.5158160000000  0.4802650000000 1.0
C      1  0.4917790000000  0.5223470000000  0.4257870000000 1.0
C      1  0.5661660000000  0.5245680000000  0.4683890000000 1.0
C      1  0.5493150000000  0.4802480000000  0.5523040000000 1.0
C      1  0.4547120000000  0.4791530000000  0.5654870000000 1.0
C      1  0.4221770000000  0.4832880000000  0.4789970000000 1.0
C      1  0.4964080000000  0.4885810000000  0.4247040000000 1.0
C      1  0.5725950000000  0.4914800000000  0.4733830000000 1.0
C      1  0.4933270000000  0.4833900000000  0.5297200000000 1.0
C      1  0.4703770000000  0.4770410000000  0.5087210000000 1.0
C      1  0.4833900000000  0.4798890000000  0.4797930000000 1.0
C      1  0.5160280000000  0.4846020000000  0.4778100000000 1.0
C      1  0.5324390000000  0.4906980000000  0.5045010000000 1.0
C      1  0.4998690000000  0.5148940000000  0.5283250000000 1.0
C      1  0.4755320000000  0.5094710000000  0.5053520000000 1.0
C      1  0.4875650000000  0.5122490000000  0.4754750000000 1.0
C      1  0.5180580000000  0.5186520000000  0.4765820000000 1.0
C      1  0.5272840000000  0.5179180000000  0.5154100000000 1.0
C      1  0.5223110000000  0.5426150000000  0.4964900000000 1.0
C      1  0.5162580000000  0.4656430000000  0.5165310000000 1.0
END
