TITL C-2622953-3516-482 -0.00110834053210262 125000 -1104.81126725893 0 0 199 (C1) n - 1
REM
REM in /nfs/bkarasulu/CARBON/AIRSS/Generating-Clusters/AIREBO/with-SteepDescent/Higher-Symm/SD-CG/HFTN-CG
REM
REM
REM
REM
REM
REM ./C.cell (b20cbc046b6831c77cfcea5457e17084)
REM
REM compiler GCC version 9.2.1 20190827 (Red Hat 9.2.1-1)
REM options -cpp -mtune=generic -march=x86-64 -g -O0 -fpre-include=/usr/include/finclude/math-vector-fortran.h
REM seed -1673101764 -1237983641 -2072740558 -1691655943 -1045802210 1881460349 1043864410 632498619 958607405 1043652451 1012888705 394142239 335970147 1105999978 -115772055 690554769 306699701 306830711 -1213070759 457894550 -459676390 1857905254 -204630969 1621625947 -1048671107 -604427682 -1235949243 -892891823 1494264842 753059428 1008771715 1983935428 -1414953022
REM
CELL 1.54180   50.00000   50.00000   50.00000   90.00000   90.00000   90.00000
LATT -1
SFAC C  
C      1  0.4670140000000  0.5218490000000  0.4329990000000 1.0
C      1  0.4633960000000  0.4980310000000  0.4502190000000 1.0
C      1  0.4801100000000  0.4692920000000  0.4430250000000 1.0
C      1  0.5132880000000  0.4658590000000  0.4487650000000 1.0
C      1  0.5342590000000  0.4920270000000  0.4431130000000 1.0
C      1  0.5243690000000  0.5242200000000  0.4470570000000 1.0
C      1  0.4982230000000  0.5344500000000  0.4372130000000 1.0
C      1  0.5257360000000  0.5352990000000  0.5538020000000 1.0
C      1  0.4859390000000  0.5522880000000  0.5400610000000 1.0
C      1  0.4727070000000  0.5233560000000  0.5420820000000 1.0
C      1  0.4585510000000  0.4952970000000  0.5468950000000 1.0
C      1  0.4764500000000  0.4703680000000  0.5360910000000 1.0
C      1  0.5152840000000  0.4583990000000  0.5390100000000 1.0
C      1  0.5569170000000  0.4938680000000  0.5419250000000 1.0
C      1  0.4353600000000  0.6010930000000  0.5317910000000 1.0
C      1  0.3974990000000  0.5059590000000  0.5526510000000 1.0
C      1  0.4335380000000  0.4165260000000  0.5449770000000 1.0
C      1  0.5218150000000  0.3740190000000  0.5307630000000 1.0
C      1  0.5946680000000  0.4657180000000  0.5481130000000 1.0
C      1  0.5973810000000  0.5420560000000  0.5370560000000 1.0
C      1  0.5005960000000  0.6248090000000  0.5312140000000 1.0
C      1  0.4291090000000  0.4632700000000  0.5720310000000 1.0
C      1  0.4837370000000  0.4027750000000  0.5732690000000 1.0
C      1  0.5492920000000  0.4261140000000  0.5693390000000 1.0
C      1  0.5841760000000  0.4984940000000  0.5705680000000 1.0
C      1  0.5532460000000  0.5678320000000  0.5746950000000 1.0
C      1  0.4814480000000  0.5856650000000  0.5694530000000 1.0
C      1  0.4224980000000  0.5435000000000  0.5704660000000 1.0
C      1  0.4886600000000  0.6111230000000  0.4826430000000 1.0
C      1  0.4099800000000  0.5752560000000  0.4921170000000 1.0
C      1  0.3909160000000  0.4596810000000  0.4988930000000 1.0
C      1  0.4525210000000  0.3965750000000  0.5060930000000 1.0
C      1  0.5513550000000  0.3970660000000  0.4957170000000 1.0
C      1  0.6110560000000  0.4736510000000  0.5031940000000 1.0
C      1  0.5825010000000  0.5748840000000  0.5077210000000 1.0
C      1  0.4848470000000  0.3909390000000  0.4971040000000 1.0
C      1  0.5718460000000  0.4239750000000  0.4913680000000 1.0
C      1  0.6015200000000  0.5037470000000  0.4998600000000 1.0
C      1  0.5503010000000  0.5828520000000  0.5005860000000 1.0
C      1  0.4671480000000  0.5951930000000  0.4959530000000 1.0
C      1  0.3954780000000  0.5245730000000  0.5028850000000 1.0
C      1  0.4145620000000  0.4393240000000  0.5062160000000 1.0
C      1  0.5989120000000  0.5423890000000  0.4642390000000 1.0
C      1  0.5309760000000  0.5969000000000  0.4546430000000 1.0
C      1  0.4412560000000  0.5806610000000  0.4523790000000 1.0
C      1  0.3943190000000  0.5031320000000  0.4693800000000 1.0
C      1  0.4386100000000  0.4249720000000  0.4616210000000 1.0
C      1  0.5188850000000  0.4083370000000  0.4597590000000 1.0
C      1  0.5960330000000  0.4576230000000  0.4568680000000 1.0
C      1  0.4215920000000  0.4467100000000  0.4554070000000 1.0
C      1  0.4858830000000  0.4030810000000  0.4672100000000 1.0
C      1  0.5814140000000  0.4268710000000  0.4588040000000 1.0
C      1  0.6039280000000  0.5117270000000  0.4686030000000 1.0
C      1  0.5538250000000  0.5855850000000  0.4668780000000 1.0
C      1  0.4657070000000  0.5920340000000  0.4432100000000 1.0
C      1  0.3951760000000  0.5372860000000  0.4713410000000 1.0
C      1  0.4607260000000  0.4949540000000  0.4021540000000 1.0
C      1  0.4856630000000  0.4820100000000  0.4119730000000 1.0
C      1  0.5105980000000  0.4670300000000  0.4031700000000 1.0
C      1  0.5341780000000  0.4826240000000  0.4105380000000 1.0
C      1  0.5370950000000  0.5060950000000  0.3905380000000 1.0
C      1  0.4943690000000  0.5316330000000  0.4055800000000 1.0
C      1  0.4643870000000  0.5272590000000  0.3994670000000 1.0
C      1  0.4700470000000  0.4990460000000  0.6150840000000 1.0
C      1  0.4793310000000  0.4735260000000  0.6226710000000 1.0
C      1  0.5041820000000  0.4661870000000  0.6114960000000 1.0
C      1  0.5254400000000  0.4829440000000  0.6189050000000 1.0
C      1  0.5266530000000  0.5071770000000  0.6048550000000 1.0
C      1  0.5074350000000  0.5270460000000  0.6064520000000 1.0
C      1  0.4852170000000  0.5215940000000  0.6228530000000 1.0
C      1  0.4650640000000  0.4184630000000  0.4536940000000 1.0
C      1  0.5478940000000  0.4185110000000  0.4589800000000 1.0
C      1  0.5948780000000  0.4884030000000  0.4528620000000 1.0
C      1  0.5723330000000  0.5622900000000  0.4568960000000 1.0
C      1  0.4970100000000  0.5995280000000  0.4542730000000 1.0
C      1  0.4182700000000  0.5581580000000  0.4635390000000 1.0
C      1  0.4159470000000  0.4800880000000  0.4590680000000 1.0
C      1  0.5082420000000  0.4085280000000  0.5925450000000 1.0
C      1  0.5697090000000  0.4492490000000  0.5772010000000 1.0
C      1  0.5753700000000  0.5203420000000  0.5887400000000 1.0
C      1  0.5307040000000  0.5801860000000  0.5874910000000 1.0
C      1  0.4566630000000  0.5760390000000  0.5870400000000 1.0
C      1  0.4150400000000  0.5126710000000  0.5751860000000 1.0
C      1  0.4528740000000  0.4438090000000  0.5834740000000 1.0
C      1  0.5590530000000  0.4447560000000  0.4404580000000 1.0
C      1  0.5676220000000  0.4957680000000  0.4377130000000 1.0
C      1  0.5442610000000  0.5517840000000  0.4479930000000 1.0
C      1  0.4966030000000  0.5669420000000  0.4470980000000 1.0
C      1  0.4422550000000  0.5398320000000  0.4478590000000 1.0
C      1  0.4412090000000  0.4770180000000  0.4398860000000 1.0
C      1  0.4762940000000  0.4371800000000  0.4320380000000 1.0
C      1  0.5068950000000  0.5720660000000  0.5268000000000 1.0
C      1  0.4381170000000  0.5582960000000  0.5325610000000 1.0
C      1  0.4261470000000  0.4967120000000  0.5364390000000 1.0
C      1  0.4737250000000  0.4377080000000  0.5379840000000 1.0
C      1  0.5231420000000  0.4269800000000  0.5392150000000 1.0
C      1  0.5685160000000  0.4652830000000  0.5322630000000 1.0
C      1  0.5546910000000  0.5437290000000  0.5380470000000 1.0
C      1  0.4482060000000  0.3956250000000  0.5342990000000 1.0
C      1  0.5451560000000  0.3869960000000  0.5265770000000 1.0
C      1  0.6197390000000  0.4693620000000  0.5298570000000 1.0
C      1  0.5878420000000  0.5679660000000  0.5348850000000 1.0
C      1  0.5071370000000  0.6260410000000  0.5047170000000 1.0
C      1  0.4135130000000  0.5782780000000  0.5237280000000 1.0
C      1  0.4005500000000  0.4764670000000  0.5268470000000 1.0
C      1  0.4619600000000  0.6010320000000  0.5248180000000 1.0
C      1  0.3929090000000  0.5316070000000  0.5324050000000 1.0
C      1  0.4093780000000  0.4309940000000  0.5361640000000 1.0
C      1  0.4951440000000  0.3885830000000  0.5278190000000 1.0
C      1  0.5723480000000  0.4168130000000  0.5231490000000 1.0
C      1  0.6113570000000  0.5167470000000  0.5275780000000 1.0
C      1  0.5513880000000  0.5949050000000  0.5323730000000 1.0
C      1  0.4409340000000  0.5828110000000  0.4843680000000 1.0
C      1  0.3874290000000  0.4929860000000  0.4999830000000 1.0
C      1  0.4352900000000  0.4176150000000  0.4917030000000 1.0
C      1  0.5173730000000  0.3993240000000  0.4915240000000 1.0
C      1  0.5947260000000  0.4493610000000  0.4884110000000 1.0
C      1  0.5911000000000  0.5530740000000  0.4906960000000 1.0
C      1  0.5226500000000  0.6013790000000  0.4936400000000 1.0
C      1  0.4611620000000  0.5685840000000  0.5481500000000 1.0
C      1  0.4260480000000  0.5305330000000  0.5399420000000 1.0
C      1  0.4438390000000  0.4489750000000  0.5449230000000 1.0
C      1  0.4941020000000  0.4177960000000  0.5452890000000 1.0
C      1  0.5544930000000  0.4401390000000  0.5387860000000 1.0
C      1  0.5760780000000  0.5198050000000  0.5458400000000 1.0
C      1  0.5349420000000  0.5689100000000  0.5347240000000 1.0
C      1  0.5641490000000  0.5085900000000  0.4676870000000 1.0
C      1  0.5202250000000  0.5592510000000  0.4703230000000 1.0
C      1  0.4696840000000  0.5544050000000  0.4617230000000 1.0
C      1  0.4257970000000  0.5134640000000  0.4617310000000 1.0
C      1  0.4565730000000  0.4623950000000  0.4665930000000 1.0
C      1  0.5021260000000  0.4344660000000  0.4489320000000 1.0
C      1  0.5591700000000  0.4571800000000  0.4721210000000 1.0
C      1  0.4778500000000  0.5272300000000  0.4733780000000 1.0
C      1  0.4584220000000  0.5048290000000  0.4823540000000 1.0
C      1  0.4861080000000  0.4772780000000  0.4755410000000 1.0
C      1  0.5119970000000  0.4469950000000  0.4770670000000 1.0
C      1  0.5384830000000  0.4811070000000  0.4750430000000 1.0
C      1  0.5389840000000  0.5248600000000  0.4769380000000 1.0
C      1  0.5064220000000  0.5240140000000  0.4827470000000 1.0
C      1  0.4419060000000  0.5532400000000  0.5011340000000 1.0
C      1  0.4354000000000  0.4952830000000  0.5037510000000 1.0
C      1  0.4511610000000  0.4469110000000  0.4924150000000 1.0
C      1  0.5336900000000  0.4216330000000  0.5102150000000 1.0
C      1  0.5712900000000  0.4705630000000  0.5009520000000 1.0
C      1  0.5677430000000  0.5377430000000  0.5072180000000 1.0
C      1  0.5052580000000  0.5743000000000  0.4959560000000 1.0
C      1  0.5041920000000  0.4580990000000  0.5797460000000 1.0
C      1  0.5282180000000  0.4762530000000  0.5638620000000 1.0
C      1  0.5366460000000  0.5057140000000  0.5782310000000 1.0
C      1  0.5027880000000  0.5408580000000  0.5784830000000 1.0
C      1  0.4709710000000  0.5295860000000  0.5742300000000 1.0
C      1  0.4627050000000  0.5004960000000  0.5861880000000 1.0
C      1  0.4795470000000  0.4784140000000  0.5679230000000 1.0
C      1  0.4335360000000  0.4924910000000  0.5805380000000 1.0
C      1  0.4787920000000  0.4354820000000  0.5791460000000 1.0
C      1  0.5231150000000  0.4300270000000  0.5831580000000 1.0
C      1  0.5614470000000  0.4754770000000  0.5701790000000 1.0
C      1  0.5506600000000  0.5366960000000  0.5768950000000 1.0
C      1  0.5054090000000  0.5717400000000  0.5813720000000 1.0
C      1  0.4489830000000  0.5502610000000  0.5816780000000 1.0
C      1  0.5378350000000  0.5512780000000  0.4983300000000 1.0
C      1  0.4737580000000  0.5618550000000  0.4929300000000 1.0
C      1  0.4267920000000  0.5264340000000  0.4931470000000 1.0
C      1  0.4366010000000  0.4636500000000  0.5161590000000 1.0
C      1  0.4767520000000  0.4421540000000  0.5080030000000 1.0
C      1  0.5381900000000  0.4466070000000  0.4948740000000 1.0
C      1  0.5675470000000  0.5043620000000  0.5012530000000 1.0
C      1  0.4910120000000  0.5377860000000  0.5096400000000 1.0
C      1  0.4704310000000  0.5125270000000  0.5120580000000 1.0
C      1  0.4829100000000  0.4855860000000  0.5074610000000 1.0
C      1  0.5028020000000  0.4598880000000  0.5074020000000 1.0
C      1  0.5304140000000  0.4781060000000  0.5050810000000 1.0
C      1  0.5384570000000  0.5029710000000  0.5188210000000 1.0
C      1  0.5219420000000  0.5306990000000  0.5202720000000 1.0
C      1  0.4805760000000  0.4409250000000  0.4024800000000 1.0
C      1  0.5422710000000  0.4350360000000  0.4125070000000 1.0
C      1  0.5724750000000  0.4957520000000  0.4049850000000 1.0
C      1  0.5403230000000  0.5462850000000  0.4177680000000 1.0
C      1  0.4857300000000  0.5695300000000  0.4149810000000 1.0
C      1  0.4303620000000  0.5394960000000  0.4159980000000 1.0
C      1  0.4349350000000  0.4749910000000  0.4080510000000 1.0
C      1  0.4883120000000  0.5968920000000  0.5407470000000 1.0
C      1  0.4016750000000  0.5600890000000  0.5488080000000 1.0
C      1  0.4049080000000  0.4560380000000  0.5505640000000 1.0
C      1  0.4705790000000  0.3860400000000  0.5484550000000 1.0
C      1  0.5584720000000  0.4019520000000  0.5481210000000 1.0
C      1  0.6110150000000  0.4951860000000  0.5503610000000 1.0
C      1  0.5683940000000  0.5794630000000  0.5536180000000 1.0
C      1  0.5605180000000  0.4649600000000  0.4131480000000 1.0
C      1  0.5544310000000  0.5233640000000  0.4112870000000 1.0
C      1  0.5157360000000  0.5551780000000  0.4078350000000 1.0
C      1  0.4603130000000  0.5563530000000  0.4149310000000 1.0
C      1  0.4318220000000  0.5090350000000  0.4120440000000 1.0
C      1  0.4582110000000  0.4552100000000  0.3930100000000 1.0
C      1  0.5144850000000  0.4383260000000  0.4014650000000 1.0
C      1  0.5040780000000  0.5054190000000  0.3955050000000 1.0
C      1  0.5107120000000  0.4957190000000  0.4751890000000 1.0
C      1  0.5155430000000  0.5039340000000  0.3645340000000 1.0
END
