TITL C-2622954-8726-825 -0.00303790414922152 125000 -666.255533900957 0 0 120 (C1) n - 1
REM
REM in /nfs/bkarasulu/CARBON/AIRSS/Generating-Clusters/AIREBO/with-SteepDescent/Higher-Symm/SD-CG/HFTN-CG
REM
REM
REM
REM
REM
REM ./C.cell (b20cbc046b6831c77cfcea5457e17084)
REM
REM compiler GCC version 9.2.1 20190827 (Red Hat 9.2.1-1)
REM options -cpp -mtune=generic -march=x86-64 -g -O0 -fpre-include=/usr/include/finclude/math-vector-fortran.h
REM seed -351454630 834669384 176668545 -560103805 1436137537 -2059595493 -1138713190 -94192105 -1490594452 373303348 1393313811 -603158838 -1856269951 717417185 -439547771 793617745 -320557192 -528460312 -656304465 -2062444745 -1186165143 -1850785269 -2141869057 -888079782 -1754005765 383501549 956582061 -1310002001 -514879725 924322580 1560373844 -84072201 1610918785
REM
CELL 1.54180   50.00000   50.00000   50.00000   90.00000   90.00000   90.00000
LATT -1
SFAC C  
C      1  0.4683420000000  0.4406800000000  0.5647460000000 1.0
C      1  0.4580760000000  0.5253150000000  0.4608380000000 1.0
C      1  0.5165540000000  0.5120990000000  0.4193710000000 1.0
C      1  0.5665720000000  0.5665540000000  0.5398400000000 1.0
C      1  0.4021350000000  0.5276590000000  0.4976840000000 1.0
C      1  0.4968300000000  0.5286990000000  0.5334670000000 1.0
C      1  0.4463640000000  0.5167610000000  0.5099370000000 1.0
C      1  0.4228520000000  0.5458020000000  0.4777270000000 1.0
C      1  0.4250230000000  0.4474940000000  0.4986610000000 1.0
C      1  0.5395220000000  0.5596880000000  0.5589990000000 1.0
C      1  0.5306100000000  0.4671520000000  0.4840840000000 1.0
C      1  0.5441330000000  0.5154750000000  0.5477090000000 1.0
C      1  0.4341590000000  0.4196050000000  0.5258350000000 1.0
C      1  0.5637390000000  0.5024770000000  0.4858860000000 1.0
C      1  0.5324590000000  0.4572880000000  0.5708610000000 1.0
C      1  0.5250070000000  0.5282980000000  0.4599670000000 1.0
C      1  0.4042170000000  0.4662330000000  0.5171510000000 1.0
C      1  0.5167300000000  0.4844060000000  0.4252090000000 1.0
C      1  0.5810920000000  0.5032850000000  0.4589700000000 1.0
C      1  0.4497290000000  0.5469340000000  0.4359600000000 1.0
C      1  0.4829590000000  0.4590380000000  0.4919490000000 1.0
C      1  0.4600200000000  0.4595600000000  0.5170420000000 1.0
C      1  0.4208040000000  0.5465970000000  0.5171130000000 1.0
C      1  0.4676710000000  0.5211720000000  0.4223580000000 1.0
C      1  0.4549460000000  0.4730080000000  0.5456980000000 1.0
C      1  0.5308260000000  0.4858920000000  0.5876400000000 1.0
C      1  0.4395600000000  0.4422470000000  0.5466920000000 1.0
C      1  0.5495750000000  0.4563730000000  0.4600980000000 1.0
C      1  0.4774010000000  0.4354160000000  0.4295870000000 1.0
C      1  0.4269790000000  0.4667160000000  0.4640750000000 1.0
C      1  0.4398980000000  0.5087600000000  0.4375480000000 1.0
C      1  0.4658280000000  0.4597660000000  0.5920630000000 1.0
C      1  0.5377500000000  0.4282000000000  0.4744750000000 1.0
C      1  0.5470610000000  0.4696650000000  0.5360090000000 1.0
C      1  0.5568860000000  0.4807640000000  0.5663990000000 1.0
C      1  0.5148920000000  0.5660070000000  0.5085400000000 1.0
C      1  0.5817100000000  0.4884870000000  0.5103110000000 1.0
C      1  0.5343550000000  0.4972960000000  0.4864740000000 1.0
C      1  0.5614410000000  0.5727270000000  0.4791800000000 1.0
C      1  0.4268010000000  0.5195620000000  0.5341990000000 1.0
C      1  0.5155000000000  0.5110290000000  0.5111880000000 1.0
C      1  0.5085070000000  0.5517230000000  0.5553500000000 1.0
C      1  0.4302330000000  0.4942840000000  0.5526210000000 1.0
C      1  0.4746380000000  0.5323970000000  0.5080590000000 1.0
C      1  0.5558960000000  0.5691550000000  0.5125370000000 1.0
C      1  0.5033060000000  0.4381570000000  0.4434150000000 1.0
C      1  0.4459720000000  0.4124720000000  0.5022140000000 1.0
C      1  0.5271790000000  0.4107150000000  0.5288940000000 1.0
C      1  0.4561250000000  0.5019160000000  0.5732940000000 1.0
C      1  0.5501310000000  0.5507820000000  0.4250050000000 1.0
C      1  0.5006260000000  0.4513140000000  0.5657390000000 1.0
C      1  0.4927750000000  0.5569230000000  0.4646620000000 1.0
C      1  0.4374890000000  0.4790410000000  0.5006240000000 1.0
C      1  0.4666630000000  0.4346040000000  0.4585840000000 1.0
C      1  0.4662510000000  0.5699730000000  0.4815400000000 1.0
C      1  0.5325970000000  0.4266430000000  0.5561890000000 1.0
C      1  0.5334940000000  0.5398890000000  0.5114090000000 1.0
C      1  0.4989230000000  0.4115620000000  0.5245910000000 1.0
C      1  0.5372980000000  0.5846050000000  0.4605370000000 1.0
C      1  0.5140340000000  0.4474980000000  0.5359230000000 1.0
C      1  0.5786830000000  0.5276410000000  0.5032000000000 1.0
C      1  0.5686280000000  0.5421720000000  0.5634500000000 1.0
C      1  0.4913220000000  0.4263280000000  0.4884810000000 1.0
C      1  0.5343120000000  0.4519820000000  0.5107090000000 1.0
C      1  0.4497200000000  0.5291220000000  0.5538810000000 1.0
C      1  0.5038030000000  0.5549170000000  0.4355350000000 1.0
C      1  0.4638480000000  0.5325460000000  0.5835430000000 1.0
C      1  0.5022170000000  0.4974610000000  0.5854340000000 1.0
C      1  0.4644320000000  0.4942740000000  0.4950740000000 1.0
C      1  0.5881630000000  0.5584570000000  0.4914670000000 1.0
C      1  0.5051760000000  0.5080940000000  0.4727610000000 1.0
C      1  0.5859820000000  0.5225240000000  0.4316440000000 1.0
C      1  0.5434370000000  0.4748020000000  0.4347010000000 1.0
C      1  0.4311010000000  0.4444490000000  0.4442100000000 1.0
C      1  0.5051640000000  0.4621010000000  0.4675290000000 1.0
C      1  0.4407060000000  0.5612750000000  0.4621890000000 1.0
C      1  0.5216170000000  0.5981940000000  0.4859670000000 1.0
C      1  0.4919290000000  0.4763500000000  0.4401190000000 1.0
C      1  0.5287530000000  0.4937700000000  0.5363900000000 1.0
C      1  0.5263860000000  0.5811880000000  0.5361330000000 1.0
C      1  0.5405160000000  0.5234070000000  0.4340760000000 1.0
C      1  0.5773820000000  0.4552620000000  0.4754420000000 1.0
C      1  0.4380670000000  0.4297880000000  0.4742550000000 1.0
C      1  0.4533570000000  0.4542880000000  0.4266070000000 1.0
C      1  0.4955460000000  0.4957580000000  0.5421120000000 1.0
C      1  0.5938610000000  0.4780650000000  0.4737980000000 1.0
C      1  0.4098880000000  0.4871720000000  0.4676510000000 1.0
C      1  0.4629200000000  0.5498640000000  0.5347780000000 1.0
C      1  0.5724650000000  0.4445160000000  0.5014190000000 1.0
C      1  0.5424410000000  0.5157140000000  0.5778470000000 1.0
C      1  0.5295140000000  0.5679360000000  0.4339870000000 1.0
C      1  0.4880220000000  0.5553700000000  0.5824220000000 1.0
C      1  0.5781940000000  0.5467880000000  0.4221220000000 1.0
C      1  0.4961710000000  0.5308950000000  0.4210690000000 1.0
C      1  0.5385240000000  0.5978860000000  0.5095290000000 1.0
C      1  0.5529670000000  0.5407980000000  0.4852550000000 1.0
C      1  0.6029300000000  0.5048850000000  0.4928410000000 1.0
C      1  0.4468730000000  0.5610880000000  0.5081330000000 1.0
C      1  0.5244630000000  0.5577430000000  0.4769650000000 1.0
C      1  0.4781510000000  0.4913030000000  0.4668160000000 1.0
C      1  0.4112350000000  0.5036490000000  0.4460470000000 1.0
C      1  0.4074250000000  0.4948210000000  0.4982950000000 1.0
C      1  0.5613670000000  0.4994840000000  0.4340820000000 1.0
C      1  0.4935240000000  0.5861460000000  0.4914170000000 1.0
C      1  0.4159400000000  0.4663980000000  0.5438250000000 1.0
C      1  0.5475980000000  0.4225450000000  0.5048770000000 1.0
C      1  0.4797630000000  0.5677740000000  0.5518980000000 1.0
C      1  0.4804500000000  0.4786360000000  0.5673180000000 1.0
C      1  0.4740810000000  0.4079600000000  0.5042830000000 1.0
C      1  0.5111390000000  0.4226860000000  0.4681060000000 1.0
C      1  0.4811500000000  0.4392420000000  0.5332590000000 1.0
C      1  0.4578080000000  0.4642030000000  0.4696540000000 1.0
C      1  0.4351810000000  0.5170990000000  0.4804420000000 1.0
C      1  0.5680930000000  0.5272790000000  0.5328850000000 1.0
C      1  0.5743430000000  0.5097010000000  0.5728330000000 1.0
C      1  0.5723290000000  0.4650820000000  0.5198070000000 1.0
C      1  0.4960700000000  0.5226740000000  0.5844530000000 1.0
C      1  0.4625340000000  0.4870360000000  0.4267780000000 1.0
C      1  0.4822840000000  0.5305410000000  0.4778980000000 1.0
C      1  0.4909070000000  0.4870330000000  0.5095760000000 1.0
END
