TITL C-2622964-2985-736 0.000442690572538044 125000 -646.15365091577 0 0 116 (C1) n - 1
REM
REM in /nfs/bkarasulu/CARBON/AIRSS/Generating-Clusters/AIREBO/with-SteepDescent/Higher-Symm/SD-CG/HFTN-CG
REM
REM
REM
REM
REM
REM ./C.cell (b20cbc046b6831c77cfcea5457e17084)
REM
REM compiler GCC version 9.2.1 20190827 (Red Hat 9.2.1-1)
REM options -cpp -mtune=generic -march=x86-64 -g -O0 -fpre-include=/usr/include/finclude/math-vector-fortran.h
REM seed 609216055 327596137 2102994734 -1825396481 -1489166731 647762731 -1661943929 -1934186628 725624733 -389216068 576294857 1895303595 1868143479 864904099 644785546 -543088095 -1571775670 -2127130181 1370005985 -1286788190 613623715 -858223587 18277761 -884677572 267652983 -921290433 -677909407 -1402358182 1046243951 -448690185 -1359815508 266598723 -513868745
REM
CELL 1.54180   50.00000   50.00000   50.00000   90.00000   90.00000   90.00000
LATT -1
SFAC C  
C      1  0.4777040000000  0.4235160000000  0.4825240000000 1.0
C      1  0.4900450000000  0.4359160000000  0.5351650000000 1.0
C      1  0.5259420000000  0.4297290000000  0.4948930000000 1.0
C      1  0.4366320000000  0.4858120000000  0.4929750000000 1.0
C      1  0.5251840000000  0.4891240000000  0.5688330000000 1.0
C      1  0.5429840000000  0.4914760000000  0.4444360000000 1.0
C      1  0.5065150000000  0.4440560000000  0.4345310000000 1.0
C      1  0.4421680000000  0.4423210000000  0.5232440000000 1.0
C      1  0.5474790000000  0.4430570000000  0.5431220000000 1.0
C      1  0.5634780000000  0.4875420000000  0.5276020000000 1.0
C      1  0.4887650000000  0.4908440000000  0.4318050000000 1.0
C      1  0.4513940000000  0.4888390000000  0.5388170000000 1.0
C      1  0.5185750000000  0.5522990000000  0.5707370000000 1.0
C      1  0.5540640000000  0.5551950000000  0.4458850000000 1.0
C      1  0.4245570000000  0.5587040000000  0.4817280000000 1.0
C      1  0.5517680000000  0.4812940000000  0.4980670000000 1.0
C      1  0.4675490000000  0.4724290000000  0.4509590000000 1.0
C      1  0.4751660000000  0.4720670000000  0.5538300000000 1.0
C      1  0.5165870000000  0.4028330000000  0.5073180000000 1.0
C      1  0.4984990000000  0.4036380000000  0.4821860000000 1.0
C      1  0.4797140000000  0.4078170000000  0.5190290000000 1.0
C      1  0.4509660000000  0.5679410000000  0.4392300000000 1.0
C      1  0.4683970000000  0.5662330000000  0.5696350000000 1.0
C      1  0.5807330000000  0.5634940000000  0.4882560000000 1.0
C      1  0.4047060000000  0.5347940000000  0.4774740000000 1.0
C      1  0.5266280000000  0.5279490000000  0.5887690000000 1.0
C      1  0.5628760000000  0.5289830000000  0.4307490000000 1.0
C      1  0.4637370000000  0.5918040000000  0.4560020000000 1.0
C      1  0.4797970000000  0.5902330000000  0.5516310000000 1.0
C      1  0.5598190000000  0.5871300000000  0.4934120000000 1.0
C      1  0.4837860000000  0.5063520000000  0.4035220000000 1.0
C      1  0.4284900000000  0.4980220000000  0.5609040000000 1.0
C      1  0.5890930000000  0.5092850000000  0.5350140000000 1.0
C      1  0.5529740000000  0.5524350000000  0.5504460000000 1.0
C      1  0.5181000000000  0.5557240000000  0.4247620000000 1.0
C      1  0.4278370000000  0.5478870000000  0.5230860000000 1.0
C      1  0.5188640000000  0.4533120000000  0.5305160000000 1.0
C      1  0.5117720000000  0.4541250000000  0.4666340000000 1.0
C      1  0.4723230000000  0.4454620000000  0.5077620000000 1.0
C      1  0.4280620000000  0.4670100000000  0.5271660000000 1.0
C      1  0.5647790000000  0.4636970000000  0.5518210000000 1.0
C      1  0.5072530000000  0.4660610000000  0.4176230000000 1.0
C      1  0.4477520000000  0.4538560000000  0.4573860000000 1.0
C      1  0.4892200000000  0.4549770000000  0.5702940000000 1.0
C      1  0.5627710000000  0.4636500000000  0.4794530000000 1.0
C      1  0.5135340000000  0.4823130000000  0.4534830000000 1.0
C      1  0.4619170000000  0.4770140000000  0.5087190000000 1.0
C      1  0.5317030000000  0.4810830000000  0.5378420000000 1.0
C      1  0.5225720000000  0.5358540000000  0.4056480000000 1.0
C      1  0.4087720000000  0.5262880000000  0.5269500000000 1.0
C      1  0.5683520000000  0.5356990000000  0.5673750000000 1.0
C      1  0.4773640000000  0.5978560000000  0.5251370000000 1.0
C      1  0.5435320000000  0.5861110000000  0.5162930000000 1.0
C      1  0.4899760000000  0.5966550000000  0.4638240000000 1.0
C      1  0.4514410000000  0.4044370000000  0.5146960000000 1.0
C      1  0.5295950000000  0.4005720000000  0.5325720000000 1.0
C      1  0.5121230000000  0.4032150000000  0.4557370000000 1.0
C      1  0.4129990000000  0.4929940000000  0.5118790000000 1.0
C      1  0.5577250000000  0.4893600000000  0.5669970000000 1.0
C      1  0.5255350000000  0.4905180000000  0.4162720000000 1.0
C      1  0.3957500000000  0.5181620000000  0.4988960000000 1.0
C      1  0.5519310000000  0.5159880000000  0.5814640000000 1.0
C      1  0.5429580000000  0.5165410000000  0.4134020000000 1.0
C      1  0.4497250000000  0.5124000000000  0.4824770000000 1.0
C      1  0.5087930000000  0.5104680000000  0.5504200000000 1.0
C      1  0.5338110000000  0.5142070000000  0.4656230000000 1.0
C      1  0.5005520000000  0.5732090000000  0.5711490000000 1.0
C      1  0.5657560000000  0.5748090000000  0.4621860000000 1.0
C      1  0.4340000000000  0.5790480000000  0.4647450000000 1.0
C      1  0.5332560000000  0.5286240000000  0.5105380000000 1.0
C      1  0.4934310000000  0.5415840000000  0.4631200000000 1.0
C      1  0.4735070000000  0.5398600000000  0.5187290000000 1.0
C      1  0.5233750000000  0.5453190000000  0.4567010000000 1.0
C      1  0.4499720000000  0.5428080000000  0.4977820000000 1.0
C      1  0.5238630000000  0.5380840000000  0.5402960000000 1.0
C      1  0.5568470000000  0.4348040000000  0.4837180000000 1.0
C      1  0.4543720000000  0.4245370000000  0.4614570000000 1.0
C      1  0.4851090000000  0.4240040000000  0.5647690000000 1.0
C      1  0.4549770000000  0.5397860000000  0.4538840000000 1.0
C      1  0.4828950000000  0.5400840000000  0.5573520000000 1.0
C      1  0.5646130000000  0.5364840000000  0.4873380000000 1.0
C      1  0.4278860000000  0.4651820000000  0.4717310000000 1.0
C      1  0.5091600000000  0.4674110000000  0.5839630000000 1.0
C      1  0.5658340000000  0.4738820000000  0.4544990000000 1.0
C      1  0.4422560000000  0.4061940000000  0.4874240000000 1.0
C      1  0.5109950000000  0.4043840000000  0.5546900000000 1.0
C      1  0.5316300000000  0.4267880000000  0.4628070000000 1.0
C      1  0.5002210000000  0.5250400000000  0.3922510000000 1.0
C      1  0.4093680000000  0.5132630000000  0.5542030000000 1.0
C      1  0.5923860000000  0.5251810000000  0.5565180000000 1.0
C      1  0.4977680000000  0.5562030000000  0.5309450000000 1.0
C      1  0.5348030000000  0.5530530000000  0.4877760000000 1.0
C      1  0.4708430000000  0.5587770000000  0.4773690000000 1.0
C      1  0.4904350000000  0.4927270000000  0.5312040000000 1.0
C      1  0.5272880000000  0.5012350000000  0.4935310000000 1.0
C      1  0.4769590000000  0.4937900000000  0.4758770000000 1.0
C      1  0.4686980000000  0.4127700000000  0.4359060000000 1.0
C      1  0.4546400000000  0.4145210000000  0.5637610000000 1.0
C      1  0.5685250000000  0.4177430000000  0.5084230000000 1.0
C      1  0.5150100000000  0.5776450000000  0.5122530000000 1.0
C      1  0.5106990000000  0.5755880000000  0.4794730000000 1.0
C      1  0.4834480000000  0.5797640000000  0.4993730000000 1.0
C      1  0.5532340000000  0.4173150000000  0.5327770000000 1.0
C      1  0.4969880000000  0.4169770000000  0.4349310000000 1.0
C      1  0.4396790000000  0.4171920000000  0.5392920000000 1.0
C      1  0.4691250000000  0.5167590000000  0.5381860000000 1.0
C      1  0.5643350000000  0.5185360000000  0.5136230000000 1.0
C      1  0.4792280000000  0.5164500000000  0.4520390000000 1.0
C      1  0.4282330000000  0.5703260000000  0.5366510000000 1.0
C      1  0.5550180000000  0.5787030000000  0.5408490000000 1.0
C      1  0.5077360000000  0.5805170000000  0.4197800000000 1.0
C      1  0.5661070000000  0.5199760000000  0.4601330000000 1.0
C      1  0.4281140000000  0.5245560000000  0.4615350000000 1.0
C      1  0.4973150000000  0.5200570000000  0.5799980000000 1.0
C      1  0.5040600000000  0.4552550000000  0.4999630000000 1.0
C      1  0.4989770000000  0.4885290000000  0.4991980000000 1.0
END
