TITL C-2622967-6265-838 -0.00328466204810959 125000 -976.470871293774 0 0 176 (C1) n - 1
REM
REM in /nfs/bkarasulu/CARBON/AIRSS/Generating-Clusters/AIREBO/with-SteepDescent/Higher-Symm/SD-CG/HFTN-CG
REM
REM
REM
REM
REM
REM ./C.cell (b20cbc046b6831c77cfcea5457e17084)
REM
REM compiler GCC version 9.2.1 20190827 (Red Hat 9.2.1-1)
REM options -cpp -mtune=generic -march=x86-64 -g -O0 -fpre-include=/usr/include/finclude/math-vector-fortran.h
REM seed -967337092 518523049 -1458046440 944333936 -198117529 -2953629 1526970171 -994276431 851954252 1486644471 967238554 -690553336 234798200 -1863373101 1620126496 -161335847 -751165494 397381685 -336790619 -247892560 1034394051 -1054755830 -1605003482 -1490021516 -1725729899 626691079 1746526884 -1959981158 901133229 -1405606359 473141733 695165282 -488248211
REM
CELL 1.54180   50.00000   50.00000   50.00000   90.00000   90.00000   90.00000
LATT -1
SFAC C  
C      1  0.4228590000000  0.4745130000000  0.4178880000000 1.0
C      1  0.4685120000000  0.5848260000000  0.4038900000000 1.0
C      1  0.5363730000000  0.5551910000000  0.3976390000000 1.0
C      1  0.5670690000000  0.4880040000000  0.3936470000000 1.0
C      1  0.4993550000000  0.4123520000000  0.4200630000000 1.0
C      1  0.4388920000000  0.4588830000000  0.5889300000000 1.0
C      1  0.4405530000000  0.5591410000000  0.5846990000000 1.0
C      1  0.5155790000000  0.5675350000000  0.5821520000000 1.0
C      1  0.5658110000000  0.5063640000000  0.5935800000000 1.0
C      1  0.5200490000000  0.4359540000000  0.5952140000000 1.0
C      1  0.4852400000000  0.4776390000000  0.6093420000000 1.0
C      1  0.4714200000000  0.5041170000000  0.6108440000000 1.0
C      1  0.4923170000000  0.5249200000000  0.6123120000000 1.0
C      1  0.5177950000000  0.5112130000000  0.6105620000000 1.0
C      1  0.5144550000000  0.4824910000000  0.6078990000000 1.0
C      1  0.4843470000000  0.4803400000000  0.3915150000000 1.0
C      1  0.4778670000000  0.5087870000000  0.3972900000000 1.0
C      1  0.5025260000000  0.5259980000000  0.3925410000000 1.0
C      1  0.5246180000000  0.5068460000000  0.3909160000000 1.0
C      1  0.5135290000000  0.4797970000000  0.3876750000000 1.0
C      1  0.5232800000000  0.5623660000000  0.4435760000000 1.0
C      1  0.5647620000000  0.4956000000000  0.4399790000000 1.0
C      1  0.5311970000000  0.4446330000000  0.4384920000000 1.0
C      1  0.4478610000000  0.4580030000000  0.4338800000000 1.0
C      1  0.4450880000000  0.5339660000000  0.4482900000000 1.0
C      1  0.5019530000000  0.5695890000000  0.5353280000000 1.0
C      1  0.5621410000000  0.5162990000000  0.5400620000000 1.0
C      1  0.5451440000000  0.4451330000000  0.5612550000000 1.0
C      1  0.4586660000000  0.4554550000000  0.5539170000000 1.0
C      1  0.4282280000000  0.5307300000000  0.5819590000000 1.0
C      1  0.4032480000000  0.5595690000000  0.4637510000000 1.0
C      1  0.5398030000000  0.6014640000000  0.4768360000000 1.0
C      1  0.6153450000000  0.4932150000000  0.4517290000000 1.0
C      1  0.5131710000000  0.4004380000000  0.4640590000000 1.0
C      1  0.4138130000000  0.4449430000000  0.4703760000000 1.0
C      1  0.4101730000000  0.5562210000000  0.5431330000000 1.0
C      1  0.5272050000000  0.6078120000000  0.5538470000000 1.0
C      1  0.6133670000000  0.5146030000000  0.5384440000000 1.0
C      1  0.5122650000000  0.4153660000000  0.5734530000000 1.0
C      1  0.4207750000000  0.4442610000000  0.5480240000000 1.0
C      1  0.4933610000000  0.6043820000000  0.4731180000000 1.0
C      1  0.6112090000000  0.5622190000000  0.4708290000000 1.0
C      1  0.5929610000000  0.4333400000000  0.4754880000000 1.0
C      1  0.4566830000000  0.4127320000000  0.4533880000000 1.0
C      1  0.3881830000000  0.5024130000000  0.4816560000000 1.0
C      1  0.4524700000000  0.6203130000000  0.5185040000000 1.0
C      1  0.5959530000000  0.5600390000000  0.5291040000000 1.0
C      1  0.5872450000000  0.4173980000000  0.5317510000000 1.0
C      1  0.4665220000000  0.3893190000000  0.5248820000000 1.0
C      1  0.3784540000000  0.4883600000000  0.5312050000000 1.0
C      1  0.4418100000000  0.4061120000000  0.5085360000000 1.0
C      1  0.3895420000000  0.5176330000000  0.5253100000000 1.0
C      1  0.4829620000000  0.6107200000000  0.5200260000000 1.0
C      1  0.5895640000000  0.5317920000000  0.5112910000000 1.0
C      1  0.5639830000000  0.4295230000000  0.5149860000000 1.0
C      1  0.4339230000000  0.4022180000000  0.4764420000000 1.0
C      1  0.3883770000000  0.5246110000000  0.4978500000000 1.0
C      1  0.5009240000000  0.6162540000000  0.4985660000000 1.0
C      1  0.5981510000000  0.5321090000000  0.4797190000000 1.0
C      1  0.5629450000000  0.4346150000000  0.4846660000000 1.0
C      1  0.5073900000000  0.5511380000000  0.4149490000000 1.0
C      1  0.5506140000000  0.5102450000000  0.4125940000000 1.0
C      1  0.5312260000000  0.4585190000000  0.4073600000000 1.0
C      1  0.4713480000000  0.4549730000000  0.4101810000000 1.0
C      1  0.4547460000000  0.5183880000000  0.4196040000000 1.0
C      1  0.4907340000000  0.5519580000000  0.5917000000000 1.0
C      1  0.5411700000000  0.5249710000000  0.5936130000000 1.0
C      1  0.5345750000000  0.4654270000000  0.5864100000000 1.0
C      1  0.4705110000000  0.4575710000000  0.5861570000000 1.0
C      1  0.4447820000000  0.5080740000000  0.5900510000000 1.0
C      1  0.5167180000000  0.4860370000000  0.4591410000000 1.0
C      1  0.5042010000000  0.4662270000000  0.4802490000000 1.0
C      1  0.4733130000000  0.4984970000000  0.4696980000000 1.0
C      1  0.4825350000000  0.5277560000000  0.4618950000000 1.0
C      1  0.5150800000000  0.5200220000000  0.4627710000000 1.0
C      1  0.5226670000000  0.4848870000000  0.5350070000000 1.0
C      1  0.4910290000000  0.4759700000000  0.5380930000000 1.0
C      1  0.4679570000000  0.4990290000000  0.5401000000000 1.0
C      1  0.4780660000000  0.5266050000000  0.5288910000000 1.0
C      1  0.5307110000000  0.5172920000000  0.5419930000000 1.0
C      1  0.4701000000000  0.5546700000000  0.4452440000000 1.0
C      1  0.5536460000000  0.5528060000000  0.4398000000000 1.0
C      1  0.5467200000000  0.4716050000000  0.4522190000000 1.0
C      1  0.5016030000000  0.4441100000000  0.4542670000000 1.0
C      1  0.4442730000000  0.4882120000000  0.4596300000000 1.0
C      1  0.4618240000000  0.5516050000000  0.5422550000000 1.0
C      1  0.5472540000000  0.5562510000000  0.5490900000000 1.0
C      1  0.5736870000000  0.4855830000000  0.5481660000000 1.0
C      1  0.4962400000000  0.4290180000000  0.5513570000000 1.0
C      1  0.4391020000000  0.4815010000000  0.5441640000000 1.0
C      1  0.5275190000000  0.4008800000000  0.5191170000000 1.0
C      1  0.4201960000000  0.4284650000000  0.5176970000000 1.0
C      1  0.3972040000000  0.5671050000000  0.5213000000000 1.0
C      1  0.5372740000000  0.6046860000000  0.5266990000000 1.0
C      1  0.6116080000000  0.5062720000000  0.5069200000000 1.0
C      1  0.5295680000000  0.3938210000000  0.4926750000000 1.0
C      1  0.4125060000000  0.4226690000000  0.4875390000000 1.0
C      1  0.4032340000000  0.5513040000000  0.4935140000000 1.0
C      1  0.5292870000000  0.6160390000000  0.5021430000000 1.0
C      1  0.6148710000000  0.5053980000000  0.4751090000000 1.0
C      1  0.5583700000000  0.5432670000000  0.5196920000000 1.0
C      1  0.5714530000000  0.4582200000000  0.5316210000000 1.0
C      1  0.4690050000000  0.4248390000000  0.5072300000000 1.0
C      1  0.4210240000000  0.5056560000000  0.5305470000000 1.0
C      1  0.4724500000000  0.5774560000000  0.5228840000000 1.0
C      1  0.5711290000000  0.5431430000000  0.4621270000000 1.0
C      1  0.5555640000000  0.4650730000000  0.4807630000000 1.0
C      1  0.4796670000000  0.4349990000000  0.4785960000000 1.0
C      1  0.4274350000000  0.4959360000000  0.4845380000000 1.0
C      1  0.4831310000000  0.5658220000000  0.4720840000000 1.0
C      1  0.5558520000000  0.5419530000000  0.4131550000000 1.0
C      1  0.5598310000000  0.4637000000000  0.3958780000000 1.0
C      1  0.4774820000000  0.4313960000000  0.4339330000000 1.0
C      1  0.4358350000000  0.4960620000000  0.4325720000000 1.0
C      1  0.4793460000000  0.5669870000000  0.4191480000000 1.0
C      1  0.5376150000000  0.5514000000000  0.5752890000000 1.0
C      1  0.5625450000000  0.4831210000000  0.5782740000000 1.0
C      1  0.4699730000000  0.4106460000000  0.5445930000000 1.0
C      1  0.4316580000000  0.4829080000000  0.5766170000000 1.0
C      1  0.4654910000000  0.5573060000000  0.5722710000000 1.0
C      1  0.5107100000000  0.5856090000000  0.5614020000000 1.0
C      1  0.5924510000000  0.5207180000000  0.5510140000000 1.0
C      1  0.5411800000000  0.4183550000000  0.5663160000000 1.0
C      1  0.4477550000000  0.4262460000000  0.5465840000000 1.0
C      1  0.4109030000000  0.5552950000000  0.5715040000000 1.0
C      1  0.5162530000000  0.5925440000000  0.4576700000000 1.0
C      1  0.5946260000000  0.4875630000000  0.4349260000000 1.0
C      1  0.5219340000000  0.4139320000000  0.4371200000000 1.0
C      1  0.4321900000000  0.4360940000000  0.4497360000000 1.0
C      1  0.4171640000000  0.5484020000000  0.4461210000000 1.0
C      1  0.4523550000000  0.5940950000000  0.5010590000000 1.0
C      1  0.5763470000000  0.5692880000000  0.5071970000000 1.0
C      1  0.6005380000000  0.4439980000000  0.5211040000000 1.0
C      1  0.4772030000000  0.3946360000000  0.4948700000000 1.0
C      1  0.4031070000000  0.4826590000000  0.5130150000000 1.0
C      1  0.4657030000000  0.5930750000000  0.4760200000000 1.0
C      1  0.5829220000000  0.5687750000000  0.4805540000000 1.0
C      1  0.6104580000000  0.4431050000000  0.4947370000000 1.0
C      1  0.4833460000000  0.3968780000000  0.4673470000000 1.0
C      1  0.4039100000000  0.4722430000000  0.4811450000000 1.0
C      1  0.4432110000000  0.5231440000000  0.4787950000000 1.0
C      1  0.5141340000000  0.5518960000000  0.4746160000000 1.0
C      1  0.5422310000000  0.5114520000000  0.4941990000000 1.0
C      1  0.5309770000000  0.4552900000000  0.4969090000000 1.0
C      1  0.4776900000000  0.4676380000000  0.5015000000000 1.0
C      1  0.4684890000000  0.5248460000000  0.4992050000000 1.0
C      1  0.5095100000000  0.5377440000000  0.5273660000000 1.0
C      1  0.5173450000000  0.4981230000000  0.5073360000000 1.0
C      1  0.5375880000000  0.4556450000000  0.5298380000000 1.0
C      1  0.4888370000000  0.4981940000000  0.4984310000000 1.0
C      1  0.4754270000000  0.4978870000000  0.4369020000000 1.0
C      1  0.4925420000000  0.5249510000000  0.4307570000000 1.0
C      1  0.5228660000000  0.5124870000000  0.4304760000000 1.0
C      1  0.5169630000000  0.4798870000000  0.4272440000000 1.0
C      1  0.4879810000000  0.4731230000000  0.4303900000000 1.0
C      1  0.4711610000000  0.5073740000000  0.5711050000000 1.0
C      1  0.4926840000000  0.5272860000000  0.5726190000000 1.0
C      1  0.5201410000000  0.5157100000000  0.5709420000000 1.0
C      1  0.5166070000000  0.4845320000000  0.5675880000000 1.0
C      1  0.4860020000000  0.4796630000000  0.5697170000000 1.0
C      1  0.5152480000000  0.4302730000000  0.5262040000000 1.0
C      1  0.4339530000000  0.4581900000000  0.5199390000000 1.0
C      1  0.4327750000000  0.5375550000000  0.5314390000000 1.0
C      1  0.5324180000000  0.5733550000000  0.5241120000000 1.0
C      1  0.5838570000000  0.4925910000000  0.5164660000000 1.0
C      1  0.5384240000000  0.4204570000000  0.4750160000000 1.0
C      1  0.4604860000000  0.4590170000000  0.4655320000000 1.0
C      1  0.4344960000000  0.5458220000000  0.5002690000000 1.0
C      1  0.5280590000000  0.5772460000000  0.4925000000000 1.0
C      1  0.5650500000000  0.5126550000000  0.4686250000000 1.0
C      1  0.4460400000000  0.4694250000000  0.4946170000000 1.0
C      1  0.4663850000000  0.5569830000000  0.4964230000000 1.0
C      1  0.5659910000000  0.4902980000000  0.4930390000000 1.0
C      1  0.5297640000000  0.5386620000000  0.5017750000000 1.0
C      1  0.5102370000000  0.4287690000000  0.4921330000000 1.0
C      1  0.4785820000000  0.4462200000000  0.5279190000000 1.0
END
