TITL C-2622967-6265-233 0.000201655637925125 125000 -651.132138181175 0 0 120 (C1) n - 1
REM
REM in /nfs/bkarasulu/CARBON/AIRSS/Generating-Clusters/AIREBO/with-SteepDescent/Higher-Symm/SD-CG/HFTN-CG
REM
REM
REM
REM
REM
REM ./C.cell (b20cbc046b6831c77cfcea5457e17084)
REM
REM compiler GCC version 9.2.1 20190827 (Red Hat 9.2.1-1)
REM options -cpp -mtune=generic -march=x86-64 -g -O0 -fpre-include=/usr/include/finclude/math-vector-fortran.h
REM seed 1462727081 568599227 1512981888 1889670992 2041492139 1285380937 519220682 -2105975551 1073324542 1402067849 -1873254276 657042741 -884943207 1717026663 -851704867 1553503418 676312611 62929021 1240072076 767851451 805325444 -828280300 102546261 -477116876 -1333075727 1421264798 75837180 -2045646199 -990969194 -1562377401 668723960 1575207868 -1698487289
REM
CELL 1.54180   50.00000   50.00000   50.00000   90.00000   90.00000   90.00000
LATT -1
SFAC C  
C      1  0.5285270000000  0.4946470000000  0.5558320000000 1.0
C      1  0.5321430000000  0.4135120000000  0.4866970000000 1.0
C      1  0.5173600000000  0.5011880000000  0.4402040000000 1.0
C      1  0.5282650000000  0.5538930000000  0.4654370000000 1.0
C      1  0.5275030000000  0.5487430000000  0.5348760000000 1.0
C      1  0.4647900000000  0.5299100000000  0.5553170000000 1.0
C      1  0.4791210000000  0.5542270000000  0.4971910000000 1.0
C      1  0.4807350000000  0.5229870000000  0.4566950000000 1.0
C      1  0.4687590000000  0.4628530000000  0.4648990000000 1.0
C      1  0.4805450000000  0.4508400000000  0.5506320000000 1.0
C      1  0.5521280000000  0.4193440000000  0.4642520000000 1.0
C      1  0.5491510000000  0.5016090000000  0.4281530000000 1.0
C      1  0.5586770000000  0.5659270000000  0.4747290000000 1.0
C      1  0.5643270000000  0.5390510000000  0.5665670000000 1.0
C      1  0.5428510000000  0.4639480000000  0.5525830000000 1.0
C      1  0.4372660000000  0.5641980000000  0.4704330000000 1.0
C      1  0.4444610000000  0.4913530000000  0.4255920000000 1.0
C      1  0.4489320000000  0.4155070000000  0.4794560000000 1.0
C      1  0.4512120000000  0.4592880000000  0.5597610000000 1.0
C      1  0.4449390000000  0.5558450000000  0.5638130000000 1.0
C      1  0.5616160000000  0.4694890000000  0.4917850000000 1.0
C      1  0.5587850000000  0.4853090000000  0.4551750000000 1.0
C      1  0.5745810000000  0.5359440000000  0.4786830000000 1.0
C      1  0.5796610000000  0.5384490000000  0.5362200000000 1.0
C      1  0.5705930000000  0.4789950000000  0.5506850000000 1.0
C      1  0.4180240000000  0.5525310000000  0.4914600000000 1.0
C      1  0.4259670000000  0.5025570000000  0.4684030000000 1.0
C      1  0.4224130000000  0.4553170000000  0.4802440000000 1.0
C      1  0.4354370000000  0.4703830000000  0.5247310000000 1.0
C      1  0.4149040000000  0.5283680000000  0.5362570000000 1.0
C      1  0.4565700000000  0.4909270000000  0.5354780000000 1.0
C      1  0.4514780000000  0.4570720000000  0.5013350000000 1.0
C      1  0.4385470000000  0.4720690000000  0.4601040000000 1.0
C      1  0.4452700000000  0.5253530000000  0.4750000000000 1.0
C      1  0.4334490000000  0.5466040000000  0.5185070000000 1.0
C      1  0.5615630000000  0.5098520000000  0.5395870000000 1.0
C      1  0.5609670000000  0.5449640000000  0.5085080000000 1.0
C      1  0.5520140000000  0.5169910000000  0.4645830000000 1.0
C      1  0.5361030000000  0.4657350000000  0.4712650000000 1.0
C      1  0.5388150000000  0.4663420000000  0.5128650000000 1.0
C      1  0.4234550000000  0.4256720000000  0.4713140000000 1.0
C      1  0.4214700000000  0.5033270000000  0.4369290000000 1.0
C      1  0.3944700000000  0.5718030000000  0.4964450000000 1.0
C      1  0.4185680000000  0.5370170000000  0.5622430000000 1.0
C      1  0.4286860000000  0.4473290000000  0.5468380000000 1.0
C      1  0.5986190000000  0.5420230000000  0.4582050000000 1.0
C      1  0.5853370000000  0.4713670000000  0.4498330000000 1.0
C      1  0.5725770000000  0.4422070000000  0.4770280000000 1.0
C      1  0.5860070000000  0.4760290000000  0.5771960000000 1.0
C      1  0.5932490000000  0.5654550000000  0.5402480000000 1.0
C      1  0.4096720000000  0.4824790000000  0.5165300000000 1.0
C      1  0.4007780000000  0.4721450000000  0.4921740000000 1.0
C      1  0.3886510000000  0.4938780000000  0.4789210000000 1.0
C      1  0.4057760000000  0.5219360000000  0.4876720000000 1.0
C      1  0.4057140000000  0.5097380000000  0.5179190000000 1.0
C      1  0.6136550000000  0.4993020000000  0.5342670000000 1.0
C      1  0.6033080000000  0.5229650000000  0.5202010000000 1.0
C      1  0.5899060000000  0.5130420000000  0.4964830000000 1.0
C      1  0.5818000000000  0.4872170000000  0.5025450000000 1.0
C      1  0.5917730000000  0.4804790000000  0.5280850000000 1.0
C      1  0.4548230000000  0.4257360000000  0.5071840000000 1.0
C      1  0.4430690000000  0.4617690000000  0.4279230000000 1.0
C      1  0.4472180000000  0.5435810000000  0.4503230000000 1.0
C      1  0.4416800000000  0.5714250000000  0.5358530000000 1.0
C      1  0.4505380000000  0.4877690000000  0.5676940000000 1.0
C      1  0.5624850000000  0.5780550000000  0.5062630000000 1.0
C      1  0.5557060000000  0.5329060000000  0.4351280000000 1.0
C      1  0.5475870000000  0.4479410000000  0.4467440000000 1.0
C      1  0.5429640000000  0.4414960000000  0.5282910000000 1.0
C      1  0.5606700000000  0.5099450000000  0.5736700000000 1.0
C      1  0.5130160000000  0.5604840000000  0.4375060000000 1.0
C      1  0.5136430000000  0.5860630000000  0.5350390000000 1.0
C      1  0.5058970000000  0.4955470000000  0.5887930000000 1.0
C      1  0.5112670000000  0.4041060000000  0.5115450000000 1.0
C      1  0.5108210000000  0.4709510000000  0.4260850000000 1.0
C      1  0.4895940000000  0.4449670000000  0.4234700000000 1.0
C      1  0.4930630000000  0.4090610000000  0.5339110000000 1.0
C      1  0.4885680000000  0.5229810000000  0.5786130000000 1.0
C      1  0.4872050000000  0.5770120000000  0.5190200000000 1.0
C      1  0.4951110000000  0.5425400000000  0.4193440000000 1.0
C      1  0.5029570000000  0.5635620000000  0.5532200000000 1.0
C      1  0.4898170000000  0.4878660000000  0.5605740000000 1.0
C      1  0.5011670000000  0.4238460000000  0.4856520000000 1.0
C      1  0.4850000000000  0.4781750000000  0.4445970000000 1.0
C      1  0.4889420000000  0.5556500000000  0.4586080000000 1.0
C      1  0.5005710000000  0.4293880000000  0.5507620000000 1.0
C      1  0.5174400000000  0.5253410000000  0.5656030000000 1.0
C      1  0.5108860000000  0.5607740000000  0.5007840000000 1.0
C      1  0.5091120000000  0.5199990000000  0.4127850000000 1.0
C      1  0.5048880000000  0.4388510000000  0.4490390000000 1.0
C      1  0.4679630000000  0.5388570000000  0.4294540000000 1.0
C      1  0.4608700000000  0.5893300000000  0.5279150000000 1.0
C      1  0.4619590000000  0.5040390000000  0.5855470000000 1.0
C      1  0.4660260000000  0.4093930000000  0.5265100000000 1.0
C      1  0.4626560000000  0.4452700000000  0.4169390000000 1.0
C      1  0.5384120000000  0.4572430000000  0.4228840000000 1.0
C      1  0.5417600000000  0.4163750000000  0.5180450000000 1.0
C      1  0.5365790000000  0.4986940000000  0.5883690000000 1.0
C      1  0.5390210000000  0.5784300000000  0.5229520000000 1.0
C      1  0.5443250000000  0.5569530000000  0.4290820000000 1.0
C      1  0.5198010000000  0.4865770000000  0.5253670000000 1.0
C      1  0.5056370000000  0.4561270000000  0.4783680000000 1.0
C      1  0.5192710000000  0.5116230000000  0.4726400000000 1.0
C      1  0.5318590000000  0.5348510000000  0.4940960000000 1.0
C      1  0.5325200000000  0.5172860000000  0.5232150000000 1.0
C      1  0.4551590000000  0.5213710000000  0.5256590000000 1.0
C      1  0.4674650000000  0.5263140000000  0.4967520000000 1.0
C      1  0.4881280000000  0.5044340000000  0.4842730000000 1.0
C      1  0.4810390000000  0.4727120000000  0.4950410000000 1.0
C      1  0.4870500000000  0.4776770000000  0.5282440000000 1.0
C      1  0.5300170000000  0.5817370000000  0.4841350000000 1.0
C      1  0.5375100000000  0.5474870000000  0.5651060000000 1.0
C      1  0.5236510000000  0.4377650000000  0.5626920000000 1.0
C      1  0.5222310000000  0.4172590000000  0.4481940000000 1.0
C      1  0.5300760000000  0.5021030000000  0.4023360000000 1.0
C      1  0.4732590000000  0.4313040000000  0.4722380000000 1.0
C      1  0.4839150000000  0.4646130000000  0.5815390000000 1.0
C      1  0.4788520000000  0.5588210000000  0.5639470000000 1.0
C      1  0.4663810000000  0.5699340000000  0.4734110000000 1.0
C      1  0.4689830000000  0.5001040000000  0.4359540000000 1.0
END
