TITL C-2622966-9038-320 0.000636892925103532 125000 -523.311002089276 0 0 98 (C1) n - 1
REM
REM in /nfs/bkarasulu/CARBON/AIRSS/Generating-Clusters/AIREBO/with-SteepDescent/Higher-Symm/SD-CG/HFTN-CG
REM
REM
REM
REM
REM
REM ./C.cell (b20cbc046b6831c77cfcea5457e17084)
REM
REM compiler GCC version 9.2.1 20190827 (Red Hat 9.2.1-1)
REM options -cpp -mtune=generic -march=x86-64 -g -O0 -fpre-include=/usr/include/finclude/math-vector-fortran.h
REM seed 303400002 -891898347 -344315215 -1942863807 1824627275 1575901981 388567774 -718329861 573140750 -2084785208 -1584636360 701271606 -468326029 -746387264 852245646 1044567425 -1404477217 70608620 1143723912 1757385436 263955501 -2043503735 957263508 2052084413 1182694397 774714752 -1952575783 -123651998 2021725176 -1951041797 -1718596031 3017111 -1737631577
REM
CELL 1.54180   50.00000   50.00000   50.00000   90.00000   90.00000   90.00000
LATT -1
SFAC C  
C      1  0.4172060000000  0.4805580000000  0.4803840000000 1.0
C      1  0.4237220000000  0.4760580000000  0.5137960000000 1.0
C      1  0.5789080000000  0.5154430000000  0.4460890000000 1.0
C      1  0.5727100000000  0.5264380000000  0.5619570000000 1.0
C      1  0.4713780000000  0.4884350000000  0.5210350000000 1.0
C      1  0.4794650000000  0.4915520000000  0.4875840000000 1.0
C      1  0.4890110000000  0.4565310000000  0.4268960000000 1.0
C      1  0.4967430000000  0.4540350000000  0.5714490000000 1.0
C      1  0.5532720000000  0.4645980000000  0.5130930000000 1.0
C      1  0.5486260000000  0.4669520000000  0.4817120000000 1.0
C      1  0.4954470000000  0.5201400000000  0.5186720000000 1.0
C      1  0.4979760000000  0.5199410000000  0.4847630000000 1.0
C      1  0.5384020000000  0.5650580000000  0.4940050000000 1.0
C      1  0.5390110000000  0.5665700000000  0.5284120000000 1.0
C      1  0.5272340000000  0.5561740000000  0.4395720000000 1.0
C      1  0.5317690000000  0.5503280000000  0.5573980000000 1.0
C      1  0.5368830000000  0.5698340000000  0.4603550000000 1.0
C      1  0.5559190000000  0.5892440000000  0.5349910000000 1.0
C      1  0.5349040000000  0.4404030000000  0.4447730000000 1.0
C      1  0.5407310000000  0.4371680000000  0.5535340000000 1.0
C      1  0.4377020000000  0.4581670000000  0.4247820000000 1.0
C      1  0.4468360000000  0.4561640000000  0.5644160000000 1.0
C      1  0.5347360000000  0.4931360000000  0.4447290000000 1.0
C      1  0.5399610000000  0.4887560000000  0.5589360000000 1.0
C      1  0.5380670000000  0.4219030000000  0.4655590000000 1.0
C      1  0.5348940000000  0.4153460000000  0.5338050000000 1.0
C      1  0.5344720000000  0.5121600000000  0.5164320000000 1.0
C      1  0.5419430000000  0.5167310000000  0.4864560000000 1.0
C      1  0.5520180000000  0.4587980000000  0.5651680000000 1.0
C      1  0.5482050000000  0.4627890000000  0.4373670000000 1.0
C      1  0.5842880000000  0.5268570000000  0.4742240000000 1.0
C      1  0.5773690000000  0.5271710000000  0.5352300000000 1.0
C      1  0.4392390000000  0.4491110000000  0.5076960000000 1.0
C      1  0.4463020000000  0.4541410000000  0.4752100000000 1.0
C      1  0.4597360000000  0.4243750000000  0.4849370000000 1.0
C      1  0.4575830000000  0.4243610000000  0.5158580000000 1.0
C      1  0.4679160000000  0.5311240000000  0.5277050000000 1.0
C      1  0.4673810000000  0.5292780000000  0.4732260000000 1.0
C      1  0.5222150000000  0.4929840000000  0.5876380000000 1.0
C      1  0.5225180000000  0.4883510000000  0.4133480000000 1.0
C      1  0.5063150000000  0.5486750000000  0.5139040000000 1.0
C      1  0.5093770000000  0.5524610000000  0.4833160000000 1.0
C      1  0.4107050000000  0.5087430000000  0.4910730000000 1.0
C      1  0.3937500000000  0.4917810000000  0.5105590000000 1.0
C      1  0.5459840000000  0.5275940000000  0.5694980000000 1.0
C      1  0.5325590000000  0.5293330000000  0.4279490000000 1.0
C      1  0.5608870000000  0.5430000000000  0.4855640000000 1.0
C      1  0.5543980000000  0.5378960000000  0.5185490000000 1.0
C      1  0.5189620000000  0.4950820000000  0.4747970000000 1.0
C      1  0.5112030000000  0.4909120000000  0.5231960000000 1.0
C      1  0.4351990000000  0.5074700000000  0.4399200000000 1.0
C      1  0.4372970000000  0.5163860000000  0.5544070000000 1.0
C      1  0.4346410000000  0.5459480000000  0.5438050000000 1.0
C      1  0.4323320000000  0.5313900000000  0.4541180000000 1.0
C      1  0.4577750000000  0.5596950000000  0.5120440000000 1.0
C      1  0.4588330000000  0.5599000000000  0.4850610000000 1.0
C      1  0.5563460000000  0.4927420000000  0.5319220000000 1.0
C      1  0.5603810000000  0.4955850000000  0.4676380000000 1.0
C      1  0.4799570000000  0.4965400000000  0.4538960000000 1.0
C      1  0.4901940000000  0.4944230000000  0.5487500000000 1.0
C      1  0.4355260000000  0.5277400000000  0.4857120000000 1.0
C      1  0.4363140000000  0.5262440000000  0.5161430000000 1.0
C      1  0.5017130000000  0.5439470000000  0.5617880000000 1.0
C      1  0.4960350000000  0.5446820000000  0.4323260000000 1.0
C      1  0.5056000000000  0.5711750000000  0.5327550000000 1.0
C      1  0.4925790000000  0.5740290000000  0.4690950000000 1.0
C      1  0.5857550000000  0.4698760000000  0.5173840000000 1.0
C      1  0.5812250000000  0.4660040000000  0.4846530000000 1.0
C      1  0.4479350000000  0.5579150000000  0.4535400000000 1.0
C      1  0.4573500000000  0.5666450000000  0.5425740000000 1.0
C      1  0.5877570000000  0.5016950000000  0.5219690000000 1.0
C      1  0.5862740000000  0.4985170000000  0.4895470000000 1.0
C      1  0.4423160000000  0.4962130000000  0.5272710000000 1.0
C      1  0.4399990000000  0.4803950000000  0.4577090000000 1.0
C      1  0.4717920000000  0.4940850000000  0.5857130000000 1.0
C      1  0.4723160000000  0.4936370000000  0.4027180000000 1.0
C      1  0.4835410000000  0.5711020000000  0.5523890000000 1.0
C      1  0.4772390000000  0.5653520000000  0.4482380000000 1.0
C      1  0.4556610000000  0.5098270000000  0.4185980000000 1.0
C      1  0.4585740000000  0.5160030000000  0.5757950000000 1.0
C      1  0.4960350000000  0.4788590000000  0.4097840000000 1.0
C      1  0.4983140000000  0.4782810000000  0.5904490000000 1.0
C      1  0.5070640000000  0.5125840000000  0.4410790000000 1.0
C      1  0.5165940000000  0.5134820000000  0.5590400000000 1.0
C      1  0.5041390000000  0.4463180000000  0.4488370000000 1.0
C      1  0.5094310000000  0.4433800000000  0.5465940000000 1.0
C      1  0.4878130000000  0.4370490000000  0.4750450000000 1.0
C      1  0.4869210000000  0.4262330000000  0.5289710000000 1.0
C      1  0.5164560000000  0.4291320000000  0.4881860000000 1.0
C      1  0.5146430000000  0.4184250000000  0.5158170000000 1.0
C      1  0.4734160000000  0.5329330000000  0.5575690000000 1.0
C      1  0.4700920000000  0.5267590000000  0.4418300000000 1.0
C      1  0.4637230000000  0.4739500000000  0.4342840000000 1.0
C      1  0.4703770000000  0.4707750000000  0.5631940000000 1.0
C      1  0.4799340000000  0.4566400000000  0.5230780000000 1.0
C      1  0.4740790000000  0.4609550000000  0.4922310000000 1.0
C      1  0.5195410000000  0.4609620000000  0.4753840000000 1.0
C      1  0.5261410000000  0.4654860000000  0.5295570000000 1.0
END
