TITL C-2622962-9663-397 0.000333953242996491 125000 -330.998548887683 0 0 60 (C1) n - 1
REM
REM in /nfs/bkarasulu/CARBON/AIRSS/Generating-Clusters/AIREBO/with-SteepDescent/Higher-Symm/SD-CG/HFTN-CG
REM
REM
REM
REM
REM
REM ./C.cell (b20cbc046b6831c77cfcea5457e17084)
REM
REM compiler GCC version 9.2.1 20190827 (Red Hat 9.2.1-1)
REM options -cpp -mtune=generic -march=x86-64 -g -O0 -fpre-include=/usr/include/finclude/math-vector-fortran.h
REM seed -1478305158 -574148581 2015258367 -2082832333 1639197629 -1553991428 -903751123 479653040 -333306179 1547573843 1524635722 1457872196 -1362205154 -1355736320 -677008427 -247412361 -1481530652 1900412053 -868719559 1666148514 1462204764 872545519 314168288 -1850484720 -662714210 -190398777 -1810624360 1771153110 -456668781 -2014215532 1268037865 1789652046 -1784518882
REM
CELL 1.54180   50.00000   50.00000   50.00000   90.00000   90.00000   90.00000
LATT -1
SFAC C  
C      1  0.4980760000000  0.4175670000000  0.5027730000000 1.0
C      1  0.5413490000000  0.4621460000000  0.5067200000000 1.0
C      1  0.5533770000000  0.5100910000000  0.5209470000000 1.0
C      1  0.5363690000000  0.5571440000000  0.5037430000000 1.0
C      1  0.4705110000000  0.5572650000000  0.5094140000000 1.0
C      1  0.4308250000000  0.5364410000000  0.5182030000000 1.0
C      1  0.4610010000000  0.4531540000000  0.5068000000000 1.0
C      1  0.5434780000000  0.4842000000000  0.5319960000000 1.0
C      1  0.5450880000000  0.5385680000000  0.5295550000000 1.0
C      1  0.4882950000000  0.5837850000000  0.5061760000000 1.0
C      1  0.4523750000000  0.5495560000000  0.5310490000000 1.0
C      1  0.4464030000000  0.4338270000000  0.5296010000000 1.0
C      1  0.4848690000000  0.4347550000000  0.5188150000000 1.0
C      1  0.5400990000000  0.4444880000000  0.5347600000000 1.0
C      1  0.4353530000000  0.4321300000000  0.4991600000000 1.0
C      1  0.5087740000000  0.3964070000000  0.4819660000000 1.0
C      1  0.5429800000000  0.4424500000000  0.4842390000000 1.0
C      1  0.5761860000000  0.5068730000000  0.4979100000000 1.0
C      1  0.5505550000000  0.5654750000000  0.4772120000000 1.0
C      1  0.4890110000000  0.5692020000000  0.4768870000000 1.0
C      1  0.4277270000000  0.5438800000000  0.4858480000000 1.0
C      1  0.4738860000000  0.5631350000000  0.5487400000000 1.0
C      1  0.4628760000000  0.4290200000000  0.5517070000000 1.0
C      1  0.4916400000000  0.4379440000000  0.5481330000000 1.0
C      1  0.5163970000000  0.4496540000000  0.5535640000000 1.0
C      1  0.5289400000000  0.4774510000000  0.5541970000000 1.0
C      1  0.5228070000000  0.5616400000000  0.5335750000000 1.0
C      1  0.4974870000000  0.5727830000000  0.5343250000000 1.0
C      1  0.4532520000000  0.5279600000000  0.4696640000000 1.0
C      1  0.4676120000000  0.4521720000000  0.4673900000000 1.0
C      1  0.5004190000000  0.4503840000000  0.4613650000000 1.0
C      1  0.5252950000000  0.4729510000000  0.4654880000000 1.0
C      1  0.5428960000000  0.4996570000000  0.4604410000000 1.0
C      1  0.5276880000000  0.5258860000000  0.4537700000000 1.0
C      1  0.4669870000000  0.5402850000000  0.4463260000000 1.0
C      1  0.4475360000000  0.4341040000000  0.4716280000000 1.0
C      1  0.5169960000000  0.4291790000000  0.4784530000000 1.0
C      1  0.5538090000000  0.4554240000000  0.4594650000000 1.0
C      1  0.5701840000000  0.5019530000000  0.4737850000000 1.0
C      1  0.5453230000000  0.5527080000000  0.4562490000000 1.0
C      1  0.4768900000000  0.5664890000000  0.4515600000000 1.0
C      1  0.4349510000000  0.5133110000000  0.4943020000000 1.0
C      1  0.5101980000000  0.5250970000000  0.4294740000000 1.0
C      1  0.4818830000000  0.5239440000000  0.4291550000000 1.0
C      1  0.4704430000000  0.5060520000000  0.4108170000000 1.0
C      1  0.4736440000000  0.4986340000000  0.3846770000000 1.0
C      1  0.4976730000000  0.4967110000000  0.3712750000000 1.0
C      1  0.5209300000000  0.5066830000000  0.3822490000000 1.0
C      1  0.5226220000000  0.5225000000000  0.4045080000000 1.0
C      1  0.5386320000000  0.5188430000000  0.4915860000000 1.0
C      1  0.5169480000000  0.5409650000000  0.4822880000000 1.0
C      1  0.4871060000000  0.5382060000000  0.4908610000000 1.0
C      1  0.4739610000000  0.5095370000000  0.4872360000000 1.0
C      1  0.4655250000000  0.4788800000000  0.4879360000000 1.0
C      1  0.4960070000000  0.4641800000000  0.4912740000000 1.0
C      1  0.5262080000000  0.4894420000000  0.4952260000000 1.0
C      1  0.4968470000000  0.4944740000000  0.5066890000000 1.0
C      1  0.4859640000000  0.5063760000000  0.5610080000000 1.0
C      1  0.4827700000000  0.5110700000000  0.5865910000000 1.0
C      1  0.4905260000000  0.4995410000000  0.5359120000000 1.0
END
