TITL C-2622962-9663-680 -333.494127613143 125000 -624.501248739766 0 0 119 (C1) n - 1
REM
REM in /nfs/bkarasulu/CARBON/AIRSS/Generating-Clusters/AIREBO/with-SteepDescent/Higher-Symm/SD-CG/HFTN-CG
REM
REM
REM
REM
REM
REM ./C.cell (b20cbc046b6831c77cfcea5457e17084)
REM
REM compiler GCC version 9.2.1 20190827 (Red Hat 9.2.1-1)
REM options -cpp -mtune=generic -march=x86-64 -g -O0 -fpre-include=/usr/include/finclude/math-vector-fortran.h
REM seed 824715723 -510947781 -1283195636 -1623695542 -1854155757 -1985426430 -1099856918 1711397841 -1397028523 871518728 -1122488619 -1926838991 441809481 -655959407 1099972018 -235211467 1476753017 -1665995717 -1083816457 -1947916659 2091422507 -742858434 -989159007 1355758049 626258494 760028975 792124462 -124296012 608044248 921148343 983465853 2056661822 471274835
REM
CELL 1.54180   50.00000   50.00000   50.00000   90.00000   90.00000   90.00000
LATT -1
SFAC C  
C      1  0.4222100000000  0.4726410000000  0.4513480000000 1.0
C      1  0.4561800000000  0.5377490000000  0.4675010000000 1.0
C      1  0.5499990000000  0.4744780000000  0.5295190000000 1.0
C      1  0.4786310000000  0.5713580000000  0.4897770000000 1.0
C      1  0.5041110000000  0.4494200000000  0.5844280000000 1.0
C      1  0.4519930000000  0.5149370000000  0.4923630000000 1.0
C      1  0.5663790000000  0.4455380000000  0.5373740000000 1.0
C      1  0.5561400000000  0.4784690000000  0.4800630000000 1.0
C      1  0.4348450000000  0.4487560000000  0.4445800000000 1.0
C      1  0.5601340000000  0.5096410000000  0.4554770000000 1.0
C      1  0.4200640000000  0.5239350000000  0.5811020000000 1.0
C      1  0.4423230000000  0.5104380000000  0.5732020000000 1.0
C      1  0.5345060000000  0.4661660000000  0.4250100000000 1.0
C      1  0.4991520000000  0.5480040000000  0.4099660000000 1.0
C      1  0.4936890000000  0.5506910000000  0.5258550000000 1.0
C      1  0.4802840000000  0.5856980000000  0.4614120000000 1.0
C      1  0.4159970000000  0.5003810000000  0.5287420000000 1.0
C      1  0.4620110000000  0.4886870000000  0.4215410000000 1.0
C      1  0.5793680000000  0.5353170000000  0.4638070000000 1.0
C      1  0.4360930000000  0.5667540000000  0.5184400000000 1.0
C      1  0.4868430000000  0.5816520000000  0.5179620000000 1.0
C      1  0.4379660000000  0.4667670000000  0.5643580000000 1.0
C      1  0.4932380000000  0.5373840000000  0.4512100000000 1.0
C      1  0.4530650000000  0.4430550000000  0.5238040000000 1.0
C      1  0.5271300000000  0.5659200000000  0.4906580000000 1.0
C      1  0.5082980000000  0.4718730000000  0.4161760000000 1.0
C      1  0.4769330000000  0.4245670000000  0.4975740000000 1.0
C      1  0.5295240000000  0.4779170000000  0.4627550000000 1.0
C      1  0.5605620000000  0.5083760000000  0.4895380000000 1.0
C      1  0.5349780000000  0.4491880000000  0.4493740000000 1.0
C      1  0.4240960000000  0.4617550000000  0.4894080000000 1.0
C      1  0.4197220000000  0.5371440000000  0.4977940000000 1.0
C      1  0.5838440000000  0.4738670000000  0.5325750000000 1.0
C      1  0.4617360000000  0.4478420000000  0.6054910000000 1.0
C      1  0.4527300000000  0.5679760000000  0.4522700000000 1.0
C      1  0.5298900000000  0.5692010000000  0.5417090000000 1.0
C      1  0.4996360000000  0.5482790000000  0.4811550000000 1.0
C      1  0.5966620000000  0.4902350000000  0.5119890000000 1.0
C      1  0.5296820000000  0.5062330000000  0.5036230000000 1.0
C      1  0.5768710000000  0.4437080000000  0.5052800000000 1.0
C      1  0.5833680000000  0.4802720000000  0.4402800000000 1.0
C      1  0.5652890000000  0.4255040000000  0.4880050000000 1.0
C      1  0.4855950000000  0.5268010000000  0.5860410000000 1.0
C      1  0.4846240000000  0.4815240000000  0.5707130000000 1.0
C      1  0.5786650000000  0.5439090000000  0.4895840000000 1.0
C      1  0.5021030000000  0.4419880000000  0.4827740000000 1.0
C      1  0.4503410000000  0.5260200000000  0.4298280000000 1.0
C      1  0.5829520000000  0.4716390000000  0.4657230000000 1.0
C      1  0.4815750000000  0.4641180000000  0.4322220000000 1.0
C      1  0.5295810000000  0.4382000000000  0.5002240000000 1.0
C      1  0.5582620000000  0.5025870000000  0.5441820000000 1.0
C      1  0.4727750000000  0.4893190000000  0.4937300000000 1.0
C      1  0.5652860000000  0.5271970000000  0.5665780000000 1.0
C      1  0.5569920000000  0.5575420000000  0.5307730000000 1.0
C      1  0.5368740000000  0.4274280000000  0.4694280000000 1.0
C      1  0.5433090000000  0.4476200000000  0.5595100000000 1.0
C      1  0.5177460000000  0.5558230000000  0.5632930000000 1.0
C      1  0.4730960000000  0.6018390000000  0.5305110000000 1.0
C      1  0.5211610000000  0.5090490000000  0.4708240000000 1.0
C      1  0.4669310000000  0.5062010000000  0.5856700000000 1.0
C      1  0.4233230000000  0.5594150000000  0.4719750000000 1.0
C      1  0.5297420000000  0.4722520000000  0.5022940000000 1.0
C      1  0.5372020000000  0.5318810000000  0.4513610000000 1.0
C      1  0.4729290000000  0.5129410000000  0.4513620000000 1.0
C      1  0.4506330000000  0.5613600000000  0.4913600000000 1.0
C      1  0.4415050000000  0.4396360000000  0.5522890000000 1.0
C      1  0.5073240000000  0.4117450000000  0.4686690000000 1.0
C      1  0.4861710000000  0.4117670000000  0.4452290000000 1.0
C      1  0.5406860000000  0.4960070000000  0.5689690000000 1.0
C      1  0.4841480000000  0.4376260000000  0.5280660000000 1.0
C      1  0.5044130000000  0.4071930000000  0.5022610000000 1.0
C      1  0.4074790000000  0.4861330000000  0.4789500000000 1.0
C      1  0.4587780000000  0.4742870000000  0.5208460000000 1.0
C      1  0.4609850000000  0.4378370000000  0.4727080000000 1.0
C      1  0.5175930000000  0.4346190000000  0.5497560000000 1.0
C      1  0.4761970000000  0.5066680000000  0.4065120000000 1.0
C      1  0.4754200000000  0.5569290000000  0.4326190000000 1.0
C      1  0.5113530000000  0.4818620000000  0.5917470000000 1.0
C      1  0.5004390000000  0.4636940000000  0.5172770000000 1.0
C      1  0.4936550000000  0.5158620000000  0.4896150000000 1.0
C      1  0.5387740000000  0.5362100000000  0.5814920000000 1.0
C      1  0.4435560000000  0.4925050000000  0.5451860000000 1.0
C      1  0.5157220000000  0.5249340000000  0.4289500000000 1.0
C      1  0.5390140000000  0.4679380000000  0.5777060000000 1.0
C      1  0.5437800000000  0.5620430000000  0.4475040000000 1.0
C      1  0.5288200000000  0.5796490000000  0.4624130000000 1.0
C      1  0.4386450000000  0.4355130000000  0.4986190000000 1.0
C      1  0.4528190000000  0.4672310000000  0.4795780000000 1.0
C      1  0.4670220000000  0.4381800000000  0.4415220000000 1.0
C      1  0.5136210000000  0.5165840000000  0.5697170000000 1.0
C      1  0.5288160000000  0.5381030000000  0.5067710000000 1.0
C      1  0.4102080000000  0.5093630000000  0.5034190000000 1.0
C      1  0.5912650000000  0.4658010000000  0.4941430000000 1.0
C      1  0.4841070000000  0.4856180000000  0.4555900000000 1.0
C      1  0.5221120000000  0.4198680000000  0.5243210000000 1.0
C      1  0.4763970000000  0.5013470000000  0.5443200000000 1.0
C      1  0.5021090000000  0.4759880000000  0.4827910000000 1.0
C      1  0.4893980000000  0.5479690000000  0.5649260000000 1.0
C      1  0.5041530000000  0.4657340000000  0.5481050000000 1.0
C      1  0.4345420000000  0.4975650000000  0.4366430000000 1.0
C      1  0.5053350000000  0.5939930000000  0.4552450000000 1.0
C      1  0.4704250000000  0.5328550000000  0.5410020000000 1.0
C      1  0.5000690000000  0.5018000000000  0.5199010000000 1.0
C      1  0.4858050000000  0.4334160000000  0.5617630000000 1.0
C      1  0.5385340000000  0.5107980000000  0.4080580000000 1.0
C      1  0.5798570000000  0.5354690000000  0.5381730000000 1.0
C      1  0.5243580000000  0.5118250000000  0.6016340000000 1.0
C      1  0.5178090000000  0.5813700000000  0.5185670000000 1.0
C      1  0.4670380000000  0.5380020000000  0.4049900000000 1.0
C      1  0.5553250000000  0.4908420000000  0.4275400000000 1.0
C      1  0.5596490000000  0.5625900000000  0.5000620000000 1.0
C      1  0.4303510000000  0.5073100000000  0.4690150000000 1.0
C      1  0.5056280000000  0.5009430000000  0.4070590000000 1.0
C      1  0.4258130000000  0.5338400000000  0.4509870000000 1.0
C      1  0.5408960000000  0.5280220000000  0.5351760000000 1.0
C      1  0.5095700000000  0.5250100000000  0.5392310000000 1.0
C      1  0.4652000000000  0.4544880000000  0.5776890000000 1.0
C      1  0.4455960000000  0.5341330000000  0.5197000000000 1.0
C      1  0.5838460000000  0.5188540000000  0.5105250000000 1.0
END
