TITL C-2622960-5345-846 -0.12600298014585 125000 -823.600041965556 0 0 156 (C1) n - 1
REM
REM in /nfs/bkarasulu/CARBON/AIRSS/Generating-Clusters/AIREBO/with-SteepDescent/Higher-Symm/SD-CG/HFTN-CG
REM
REM
REM
REM
REM
REM ./C.cell (b20cbc046b6831c77cfcea5457e17084)
REM
REM compiler GCC version 9.2.1 20190827 (Red Hat 9.2.1-1)
REM options -cpp -mtune=generic -march=x86-64 -g -O0 -fpre-include=/usr/include/finclude/math-vector-fortran.h
REM seed 23386921 159237922 -641724651 1629084302 247591983 944586578 942492680 -571462743 -8646047 344912242 -664309144 79506963 -833384771 1667081158 311137009 1264085255 -105790123 1255487238 -442937339 1647969680 -446521893 -1054360058 -1076502561 -1385677041 461456068 741428178 1159575901 781937366 1648540218 -864448149 -866602603 -1545980250 1703193806
REM
CELL 1.54180   50.00000   50.00000   50.00000   90.00000   90.00000   90.00000
LATT -1
SFAC C  
C      1  0.5914990000000  0.5280970000000  0.4570060000000 1.0
C      1  0.5906820000000  0.4533270000000  0.4758430000000 1.0
C      1  0.5890110000000  0.4617680000000  0.5312380000000 1.0
C      1  0.5983140000000  0.5110210000000  0.5466040000000 1.0
C      1  0.5809090000000  0.5493040000000  0.5044340000000 1.0
C      1  0.5050650000000  0.5821190000000  0.4384090000000 1.0
C      1  0.5106320000000  0.4562980000000  0.4084720000000 1.0
C      1  0.5010490000000  0.3908630000000  0.4995160000000 1.0
C      1  0.5342230000000  0.4647190000000  0.6182950000000 1.0
C      1  0.5015940000000  0.5796110000000  0.5631290000000 1.0
C      1  0.4383860000000  0.5837260000000  0.5193410000000 1.0
C      1  0.4522310000000  0.5179020000000  0.4253950000000 1.0
C      1  0.4391300000000  0.4397000000000  0.4454030000000 1.0
C      1  0.4456940000000  0.4338340000000  0.5243520000000 1.0
C      1  0.4582620000000  0.5175150000000  0.5713160000000 1.0
C      1  0.4823540000000  0.4757380000000  0.4631100000000 1.0
C      1  0.4882630000000  0.4665890000000  0.5084520000000 1.0
C      1  0.4964300000000  0.5004980000000  0.5400240000000 1.0
C      1  0.4762480000000  0.5446730000000  0.5158160000000 1.0
C      1  0.4887790000000  0.5191890000000  0.4730160000000 1.0
C      1  0.5306250000000  0.5454000000000  0.4131960000000 1.0
C      1  0.5213950000000  0.4231320000000  0.4409570000000 1.0
C      1  0.5259990000000  0.4206810000000  0.5482000000000 1.0
C      1  0.5293970000000  0.5103800000000  0.5857850000000 1.0
C      1  0.5226970000000  0.5915240000000  0.5083570000000 1.0
C      1  0.5982610000000  0.4433670000000  0.5041300000000 1.0
C      1  0.6043700000000  0.4836980000000  0.5496150000000 1.0
C      1  0.5978970000000  0.5381980000000  0.5319370000000 1.0
C      1  0.5885990000000  0.5515320000000  0.4731240000000 1.0
C      1  0.6038700000000  0.4995200000000  0.4515830000000 1.0
C      1  0.4833450000000  0.5110690000000  0.4174200000000 1.0
C      1  0.4902320000000  0.4246800000000  0.4512890000000 1.0
C      1  0.4956410000000  0.4359400000000  0.5558290000000 1.0
C      1  0.5024120000000  0.5306220000000  0.5813010000000 1.0
C      1  0.4941090000000  0.5880440000000  0.4902690000000 1.0
C      1  0.5619560000000  0.5018600000000  0.4210760000000 1.0
C      1  0.5643810000000  0.4225490000000  0.5015710000000 1.0
C      1  0.5623100000000  0.4605660000000  0.5636940000000 1.0
C      1  0.5623090000000  0.5434940000000  0.5657720000000 1.0
C      1  0.5570200000000  0.5880170000000  0.4559610000000 1.0
C      1  0.4766470000000  0.4448100000000  0.4331570000000 1.0
C      1  0.4921370000000  0.4178710000000  0.5275710000000 1.0
C      1  0.4913570000000  0.4995370000000  0.5901770000000 1.0
C      1  0.4856080000000  0.5977220000000  0.5210880000000 1.0
C      1  0.4817820000000  0.5440880000000  0.4262870000000 1.0
C      1  0.4485440000000  0.4531570000000  0.4159310000000 1.0
C      1  0.4632740000000  0.4135030000000  0.5110850000000 1.0
C      1  0.4613130000000  0.4855520000000  0.5825050000000 1.0
C      1  0.4602210000000  0.5901220000000  0.5388780000000 1.0
C      1  0.4483890000000  0.5487300000000  0.4307190000000 1.0
C      1  0.5097280000000  0.4683760000000  0.4821360000000 1.0
C      1  0.5130270000000  0.4726350000000  0.5295220000000 1.0
C      1  0.5199830000000  0.5184470000000  0.5388270000000 1.0
C      1  0.5006610000000  0.5436700000000  0.4934140000000 1.0
C      1  0.5156110000000  0.5125470000000  0.4571930000000 1.0
C      1  0.4289760000000  0.4735300000000  0.5307090000000 1.0
C      1  0.4347890000000  0.5232060000000  0.5395480000000 1.0
C      1  0.4295590000000  0.5343960000000  0.4939760000000 1.0
C      1  0.4321760000000  0.5066430000000  0.4576240000000 1.0
C      1  0.4314440000000  0.4743430000000  0.4810750000000 1.0
C      1  0.4454870000000  0.5906410000000  0.4721040000000 1.0
C      1  0.4419290000000  0.4854950000000  0.3933760000000 1.0
C      1  0.4495950000000  0.4010200000000  0.4677340000000 1.0
C      1  0.4497850000000  0.4379940000000  0.5719080000000 1.0
C      1  0.4683800000000  0.5723300000000  0.5639220000000 1.0
C      1  0.5457870000000  0.5689400000000  0.5012270000000 1.0
C      1  0.5590690000000  0.5301820000000  0.4025720000000 1.0
C      1  0.5434080000000  0.4303440000000  0.4635180000000 1.0
C      1  0.5602720000000  0.4211080000000  0.5501020000000 1.0
C      1  0.5531890000000  0.5251590000000  0.5911580000000 1.0
C      1  0.5463390000000  0.4988710000000  0.5312390000000 1.0
C      1  0.5265490000000  0.5350470000000  0.5101020000000 1.0
C      1  0.5430420000000  0.5277580000000  0.4632160000000 1.0
C      1  0.5568740000000  0.4782840000000  0.4636620000000 1.0
C      1  0.5334780000000  0.4602450000000  0.5050970000000 1.0
C      1  0.5354290000000  0.5878330000000  0.4770410000000 1.0
C      1  0.5318860000000  0.5117600000000  0.4116970000000 1.0
C      1  0.5326260000000  0.3981730000000  0.4611300000000 1.0
C      1  0.5419700000000  0.4366040000000  0.5735240000000 1.0
C      1  0.5453170000000  0.5637750000000  0.5867130000000 1.0
C      1  0.5084860000000  0.5663660000000  0.4683640000000 1.0
C      1  0.5107710000000  0.5021470000000  0.4294090000000 1.0
C      1  0.5090410000000  0.4162250000000  0.4783260000000 1.0
C      1  0.5206680000000  0.4586520000000  0.5595670000000 1.0
C      1  0.5216820000000  0.5556660000000  0.5683090000000 1.0
C      1  0.4654520000000  0.5037710000000  0.4534420000000 1.0
C      1  0.4567770000000  0.4545850000000  0.4705170000000 1.0
C      1  0.4608430000000  0.4640910000000  0.5284420000000 1.0
C      1  0.4686500000000  0.5200880000000  0.5390210000000 1.0
C      1  0.4509630000000  0.5572890000000  0.5019630000000 1.0
C      1  0.4211560000000  0.5404120000000  0.5231820000000 1.0
C      1  0.4234850000000  0.5318870000000  0.4655850000000 1.0
C      1  0.4173140000000  0.4821320000000  0.4537230000000 1.0
C      1  0.4169950000000  0.4638090000000  0.5065810000000 1.0
C      1  0.4204180000000  0.4972190000000  0.5484280000000 1.0
C      1  0.4313870000000  0.4971170000000  0.5767950000000 1.0
C      1  0.4153980000000  0.5659250000000  0.5289740000000 1.0
C      1  0.4273920000000  0.5527000000000  0.4470910000000 1.0
C      1  0.4209910000000  0.4632870000000  0.4334140000000 1.0
C      1  0.4181480000000  0.4358930000000  0.5081300000000 1.0
C      1  0.5458950000000  0.5755110000000  0.4338950000000 1.0
C      1  0.5554370000000  0.4494230000000  0.4183090000000 1.0
C      1  0.5445440000000  0.3957850000000  0.5084850000000 1.0
C      1  0.5436240000000  0.4732150000000  0.5892300000000 1.0
C      1  0.5379520000000  0.5831840000000  0.5442850000000 1.0
C      1  0.5316640000000  0.4264760000000  0.5015460000000 1.0
C      1  0.5349840000000  0.4894220000000  0.5617420000000 1.0
C      1  0.5358750000000  0.5530990000000  0.5373780000000 1.0
C      1  0.5293190000000  0.5503320000000  0.4467770000000 1.0
C      1  0.5684860000000  0.4729310000000  0.4331160000000 1.0
C      1  0.4699640000000  0.5710490000000  0.4778810000000 1.0
C      1  0.4656680000000  0.4816360000000  0.4156680000000 1.0
C      1  0.4699490000000  0.4243430000000  0.4790100000000 1.0
C      1  0.4712530000000  0.4597910000000  0.5607120000000 1.0
C      1  0.4854300000000  0.5438100000000  0.5566830000000 1.0
C      1  0.4332310000000  0.5086590000000  0.4028020000000 1.0
C      1  0.4332390000000  0.4107280000000  0.4508770000000 1.0
C      1  0.4379980000000  0.4251880000000  0.5535120000000 1.0
C      1  0.4545890000000  0.5474560000000  0.5815670000000 1.0
C      1  0.4330550000000  0.5993180000000  0.4925040000000 1.0
C      1  0.5651290000000  0.5093990000000  0.4526510000000 1.0
C      1  0.5575720000000  0.4506190000000  0.4831040000000 1.0
C      1  0.5552710000000  0.4660670000000  0.5305770000000 1.0
C      1  0.5692650000000  0.5164300000000  0.5491990000000 1.0
C      1  0.5515690000000  0.5397390000000  0.4901410000000 1.0
C      1  0.5688920000000  0.5539360000000  0.5356110000000 1.0
C      1  0.5822810000000  0.5774630000000  0.4632270000000 1.0
C      1  0.5945910000000  0.4710580000000  0.4529190000000 1.0
C      1  0.5768200000000  0.4316510000000  0.5277910000000 1.0
C      1  0.5917580000000  0.4678980000000  0.5705120000000 1.0
C      1  0.4922430000000  0.5669630000000  0.5327250000000 1.0
C      1  0.4812020000000  0.5487970000000  0.4581090000000 1.0
C      1  0.4936670000000  0.4742100000000  0.4310760000000 1.0
C      1  0.4932200000000  0.4363860000000  0.5006770000000 1.0
C      1  0.4960260000000  0.4815070000000  0.5643860000000 1.0
C      1  0.5300140000000  0.4400380000000  0.4178320000000 1.0
C      1  0.5176770000000  0.3967690000000  0.5283430000000 1.0
C      1  0.5166420000000  0.4888170000000  0.6078530000000 1.0
C      1  0.5130420000000  0.6005590000000  0.5389250000000 1.0
C      1  0.5042240000000  0.5620190000000  0.4179500000000 1.0
C      1  0.4346960000000  0.5015090000000  0.5012650000000 1.0
C      1  0.4927110000000  0.4993230000000  0.5003500000000 1.0
C      1  0.6102310000000  0.4999640000000  0.4960660000000 1.0
C      1  0.5574300000000  0.4954140000000  0.4904300000000 1.0
C      1  0.5828500000000  0.4987690000000  0.4987760000000 1.0
C      1  0.3558000000000  0.5054870000000  0.5032740000000 1.0
C      1  0.6893400000000  0.5006070000000  0.5031710000000 1.0
C      1  0.4622460000000  0.4957770000000  0.5161240000000 1.0
C      1  0.3812680000000  0.5032500000000  0.5107210000000 1.0
C      1  0.3309640000000  0.5063170000000  0.4936900000000 1.0
C      1  0.5266300000000  0.5017040000000  0.5034090000000 1.0
C      1  0.3052950000000  0.5068400000000  0.4865860000000 1.0
C      1  0.2808320000000  0.5071130000000  0.4771760000000 1.0
C      1  0.4063870000000  0.5036470000000  0.5182770000000 1.0
C      1  0.6367100000000  0.5009920000000  0.4992780000000 1.0
C      1  0.6633290000000  0.5011460000000  0.5000020000000 1.0
END
