TITL C-2622968-4806-832 0.0010968271437041 125000 -589.678603918128 0 0 109 (C1) n - 1
REM
REM in /nfs/bkarasulu/CARBON/AIRSS/Generating-Clusters/AIREBO/with-SteepDescent/Higher-Symm/SD-CG/HFTN-CG
REM
REM
REM
REM
REM
REM ./C.cell (b20cbc046b6831c77cfcea5457e17084)
REM
REM compiler GCC version 9.2.1 20190827 (Red Hat 9.2.1-1)
REM options -cpp -mtune=generic -march=x86-64 -g -O0 -fpre-include=/usr/include/finclude/math-vector-fortran.h
REM seed 112087920 2103644621 -110080278 1082987228 -1529365022 -709772546 -1864727443 -1250197223 -1679597837 566460583 -1053170875 1811074899 -904380204 1348083005 2030918982 -1955321452 418166569 -183148407 475269092 -1288304282 945660711 -1626555064 453664178 209566337 -1497170084 384178317 -318869407 -2016837395 -722987034 -791243605 561195812 918660493 1890067836
REM
CELL 1.54180   50.00000   50.00000   50.00000   90.00000   90.00000   90.00000
LATT -1
SFAC C  
C      1  0.4588350000000  0.4884910000000  0.5328480000000 1.0
C      1  0.5652400000000  0.4663720000000  0.5834110000000 1.0
C      1  0.4931600000000  0.5151630000000  0.5967410000000 1.0
C      1  0.5411930000000  0.5202770000000  0.4459800000000 1.0
C      1  0.4805670000000  0.5061780000000  0.5442820000000 1.0
C      1  0.5106020000000  0.4606990000000  0.5398290000000 1.0
C      1  0.4906500000000  0.5782990000000  0.5413410000000 1.0
C      1  0.5028000000000  0.4881350000000  0.6123420000000 1.0
C      1  0.4296240000000  0.5163850000000  0.5040460000000 1.0
C      1  0.5456240000000  0.5245890000000  0.5231870000000 1.0
C      1  0.4986830000000  0.5620860000000  0.4965580000000 1.0
C      1  0.4435500000000  0.5658320000000  0.5137350000000 1.0
C      1  0.4608980000000  0.5181560000000  0.5854610000000 1.0
C      1  0.4136170000000  0.4942530000000  0.4837830000000 1.0
C      1  0.4882030000000  0.5064910000000  0.5050740000000 1.0
C      1  0.4780310000000  0.4891120000000  0.5810490000000 1.0
C      1  0.4694030000000  0.4462730000000  0.4723730000000 1.0
C      1  0.5156960000000  0.5380810000000  0.4822900000000 1.0
C      1  0.4645970000000  0.5571920000000  0.5369900000000 1.0
C      1  0.4481050000000  0.5743640000000  0.5605840000000 1.0
C      1  0.4390950000000  0.4683290000000  0.5683620000000 1.0
C      1  0.5096980000000  0.4093940000000  0.4776620000000 1.0
C      1  0.5094090000000  0.5062400000000  0.5388230000000 1.0
C      1  0.5440700000000  0.5258830000000  0.4934740000000 1.0
C      1  0.4194060000000  0.5195130000000  0.4625890000000 1.0
C      1  0.4901510000000  0.4497510000000  0.5180300000000 1.0
C      1  0.5024540000000  0.5209350000000  0.4204400000000 1.0
C      1  0.5712080000000  0.5017450000000  0.4421890000000 1.0
C      1  0.5082840000000  0.5273130000000  0.4513870000000 1.0
C      1  0.5440520000000  0.5868830000000  0.4934020000000 1.0
C      1  0.5290060000000  0.5073390000000  0.5631410000000 1.0
C      1  0.4770750000000  0.4216330000000  0.5165120000000 1.0
C      1  0.4219600000000  0.5139140000000  0.4362180000000 1.0
C      1  0.5735720000000  0.5361280000000  0.4800170000000 1.0
C      1  0.4354560000000  0.5398280000000  0.4721760000000 1.0
C      1  0.4740490000000  0.5914910000000  0.5187770000000 1.0
C      1  0.5044500000000  0.4659500000000  0.6001590000000 1.0
C      1  0.4895730000000  0.5485660000000  0.4149140000000 1.0
C      1  0.5602190000000  0.5538910000000  0.5316120000000 1.0
C      1  0.5758410000000  0.5086130000000  0.5439550000000 1.0
C      1  0.4392640000000  0.5241240000000  0.5582070000000 1.0
C      1  0.4720490000000  0.5331210000000  0.5573920000000 1.0
C      1  0.4440230000000  0.4857770000000  0.4799120000000 1.0
C      1  0.4483320000000  0.4651880000000  0.4631650000000 1.0
C      1  0.5206690000000  0.4375470000000  0.4815700000000 1.0
C      1  0.5075850000000  0.4088640000000  0.4463360000000 1.0
C      1  0.5122000000000  0.4848530000000  0.5159030000000 1.0
C      1  0.4310600000000  0.5376440000000  0.5279240000000 1.0
C      1  0.4837900000000  0.5162490000000  0.4727950000000 1.0
C      1  0.4483470000000  0.5131710000000  0.4197060000000 1.0
C      1  0.4436430000000  0.4620630000000  0.4359320000000 1.0
C      1  0.5207540000000  0.5055220000000  0.4821490000000 1.0
C      1  0.4962890000000  0.4851990000000  0.4723030000000 1.0
C      1  0.5440460000000  0.5749870000000  0.5215210000000 1.0
C      1  0.4970310000000  0.4791790000000  0.4387770000000 1.0
C      1  0.5400330000000  0.4435430000000  0.5405450000000 1.0
C      1  0.4411740000000  0.4472680000000  0.5040710000000 1.0
C      1  0.4321610000000  0.4939970000000  0.5510770000000 1.0
C      1  0.5199740000000  0.5366240000000  0.5373680000000 1.0
C      1  0.4584060000000  0.5287500000000  0.4906850000000 1.0
C      1  0.4567990000000  0.5421780000000  0.4138970000000 1.0
C      1  0.5586700000000  0.5620390000000  0.4861370000000 1.0
C      1  0.5006150000000  0.5513290000000  0.5603460000000 1.0
C      1  0.4952280000000  0.4568160000000  0.4886830000000 1.0
C      1  0.5254570000000  0.5057420000000  0.4122740000000 1.0
C      1  0.5421220000000  0.4781010000000  0.5012080000000 1.0
C      1  0.4854200000000  0.4420180000000  0.4461400000000 1.0
C      1  0.5675600000000  0.4580360000000  0.4779070000000 1.0
C      1  0.5465220000000  0.4830650000000  0.5627190000000 1.0
C      1  0.5139400000000  0.5303090000000  0.5810420000000 1.0
C      1  0.5179690000000  0.5842980000000  0.4800290000000 1.0
C      1  0.5843930000000  0.4785560000000  0.5331400000000 1.0
C      1  0.5632450000000  0.4987970000000  0.4713200000000 1.0
C      1  0.5760470000000  0.4789660000000  0.5033300000000 1.0
C      1  0.5355200000000  0.4885530000000  0.4350990000000 1.0
C      1  0.4795850000000  0.5002130000000  0.4240910000000 1.0
C      1  0.4713670000000  0.4530890000000  0.4226600000000 1.0
C      1  0.4917740000000  0.4603790000000  0.5690950000000 1.0
C      1  0.5470920000000  0.5327560000000  0.5733450000000 1.0
C      1  0.5354900000000  0.4794620000000  0.4678690000000 1.0
C      1  0.5127200000000  0.4627080000000  0.4155260000000 1.0
C      1  0.5684340000000  0.5347690000000  0.5542640000000 1.0
C      1  0.5006800000000  0.5705180000000  0.4368370000000 1.0
C      1  0.5032830000000  0.4288270000000  0.5718520000000 1.0
C      1  0.4697220000000  0.5572530000000  0.4413580000000 1.0
C      1  0.4796100000000  0.4082090000000  0.4664930000000 1.0
C      1  0.5481270000000  0.4941250000000  0.5305930000000 1.0
C      1  0.5220000000000  0.5710620000000  0.4539550000000 1.0
C      1  0.5676880000000  0.4681790000000  0.4470070000000 1.0
C      1  0.5518860000000  0.4285690000000  0.5151790000000 1.0
C      1  0.5150650000000  0.5660650000000  0.5260880000000 1.0
C      1  0.4181810000000  0.4665850000000  0.5032760000000 1.0
C      1  0.4583780000000  0.4217180000000  0.4893870000000 1.0
C      1  0.4203430000000  0.4907340000000  0.5224790000000 1.0
C      1  0.5835440000000  0.5084590000000  0.4912560000000 1.0
C      1  0.4610920000000  0.4568140000000  0.5265040000000 1.0
C      1  0.4607890000000  0.4542290000000  0.5577680000000 1.0
C      1  0.5442510000000  0.4567560000000  0.4267850000000 1.0
C      1  0.5247740000000  0.4296570000000  0.4341750000000 1.0
C      1  0.4801060000000  0.5387960000000  0.5129500000000 1.0
C      1  0.5659730000000  0.4592660000000  0.5501240000000 1.0
C      1  0.5442030000000  0.5519150000000  0.4580680000000 1.0
C      1  0.4672390000000  0.5736440000000  0.4906150000000 1.0
C      1  0.5491910000000  0.4388110000000  0.4899220000000 1.0
C      1  0.4547150000000  0.4814930000000  0.4122490000000 1.0
C      1  0.4532980000000  0.5631810000000  0.4649030000000 1.0
C      1  0.5155810000000  0.4553560000000  0.4544600000000 1.0
C      1  0.5253940000000  0.4235720000000  0.5608230000000 1.0
C      1  0.4599830000000  0.4905910000000  0.5016940000000 1.0
END
