TITL C-2622957-9142-243 -0.000663019980584508 125000 -813.328205364595 0 0 151 (C1) n - 1
REM
REM in /nfs/bkarasulu/CARBON/AIRSS/Generating-Clusters/AIREBO/with-SteepDescent/Higher-Symm/SD-CG/HFTN-CG
REM
REM
REM
REM
REM
REM ./C.cell (b20cbc046b6831c77cfcea5457e17084)
REM
REM compiler GCC version 9.2.1 20190827 (Red Hat 9.2.1-1)
REM options -cpp -mtune=generic -march=x86-64 -g -O0 -fpre-include=/usr/include/finclude/math-vector-fortran.h
REM seed 1416777369 144411661 -704809940 -5148570 -1575589915 1285701035 1466049215 -1503483516 -72412315 -1750855879 208430530 -1101050971 1509473355 93369270 -570458871 1700919661 138285650 1378577587 -1240071603 493974514 760760838 152867676 413604911 -84940724 581106756 1833369362 611692241 -1339290185 512660867 -7781878 711084728 1074088386 -1879601663
REM
CELL 1.54180   50.00000   50.00000   50.00000   90.00000   90.00000   90.00000
LATT -1
SFAC C  
C      1  0.5613120000000  0.4702820000000  0.4038000000000 1.0
C      1  0.5429980000000  0.5627160000000  0.4222050000000 1.0
C      1  0.4328530000000  0.5190520000000  0.4140540000000 1.0
C      1  0.4649640000000  0.4322720000000  0.4164470000000 1.0
C      1  0.4323200000000  0.4645940000000  0.5792150000000 1.0
C      1  0.4717880000000  0.5714740000000  0.5854690000000 1.0
C      1  0.5602030000000  0.5256640000000  0.5927280000000 1.0
C      1  0.5376020000000  0.4401370000000  0.5663040000000 1.0
C      1  0.5363180000000  0.4405880000000  0.4291340000000 1.0
C      1  0.5642030000000  0.5382740000000  0.4322920000000 1.0
C      1  0.4613390000000  0.5567940000000  0.4321440000000 1.0
C      1  0.4393170000000  0.4520110000000  0.4252440000000 1.0
C      1  0.4577550000000  0.4421910000000  0.5728680000000 1.0
C      1  0.4433220000000  0.5646460000000  0.5750450000000 1.0
C      1  0.5385430000000  0.5612350000000  0.5731980000000 1.0
C      1  0.5606690000000  0.4649260000000  0.5631650000000 1.0
C      1  0.5688020000000  0.4906880000000  0.4259270000000 1.0
C      1  0.5178190000000  0.5678130000000  0.4401880000000 1.0
C      1  0.4262130000000  0.5059710000000  0.4374010000000 1.0
C      1  0.4866650000000  0.4307330000000  0.4377520000000 1.0
C      1  0.4199530000000  0.4925160000000  0.5685590000000 1.0
C      1  0.4912150000000  0.5647400000000  0.5632700000000 1.0
C      1  0.5604480000000  0.5067080000000  0.5691040000000 1.0
C      1  0.5077740000000  0.4276500000000  0.5578800000000 1.0
C      1  0.4671720000000  0.5062480000000  0.4741350000000 1.0
C      1  0.4810560000000  0.4648130000000  0.4798620000000 1.0
C      1  0.5406820000000  0.4791820000000  0.4696340000000 1.0
C      1  0.5158810000000  0.5377840000000  0.4859170000000 1.0
C      1  0.5430760000000  0.5274070000000  0.5309670000000 1.0
C      1  0.5258030000000  0.4696540000000  0.5164430000000 1.0
C      1  0.4656720000000  0.4874180000000  0.5302340000000 1.0
C      1  0.4838420000000  0.5363110000000  0.5274670000000 1.0
C      1  0.4235060000000  0.4307020000000  0.5284850000000 1.0
C      1  0.5709320000000  0.4274010000000  0.5248710000000 1.0
C      1  0.5724140000000  0.5716320000000  0.5290450000000 1.0
C      1  0.4281810000000  0.5896680000000  0.5259360000000 1.0
C      1  0.5798900000000  0.4384290000000  0.4671520000000 1.0
C      1  0.4277610000000  0.4081020000000  0.4714910000000 1.0
C      1  0.4200870000000  0.5694140000000  0.4719560000000 1.0
C      1  0.5739480000000  0.5796890000000  0.4720240000000 1.0
C      1  0.4348250000000  0.4799870000000  0.5424520000000 1.0
C      1  0.5199330000000  0.4363130000000  0.5283800000000 1.0
C      1  0.5715100000000  0.5097690000000  0.5370990000000 1.0
C      1  0.4748960000000  0.5658570000000  0.5352740000000 1.0
C      1  0.5716120000000  0.4893220000000  0.4597840000000 1.0
C      1  0.4733400000000  0.4346230000000  0.4662470000000 1.0
C      1  0.4390500000000  0.5201890000000  0.4624290000000 1.0
C      1  0.5264450000000  0.5634330000000  0.4702380000000 1.0
C      1  0.4435880000000  0.4162420000000  0.5161560000000 1.0
C      1  0.5879440000000  0.4493910000000  0.5137350000000 1.0
C      1  0.5571020000000  0.5924480000000  0.5153900000000 1.0
C      1  0.4123900000000  0.5646540000000  0.5199720000000 1.0
C      1  0.5599830000000  0.4169950000000  0.4788660000000 1.0
C      1  0.4075210000000  0.4320260000000  0.4767020000000 1.0
C      1  0.4439850000000  0.5852280000000  0.4810610000000 1.0
C      1  0.5867390000000  0.5557110000000  0.4857520000000 1.0
C      1  0.4033980000000  0.4760090000000  0.5107960000000 1.0
C      1  0.5352000000000  0.3964150000000  0.5130940000000 1.0
C      1  0.5996090000000  0.5319180000000  0.5237570000000 1.0
C      1  0.4707250000000  0.6068220000000  0.5113620000000 1.0
C      1  0.6150610000000  0.4728670000000  0.4818560000000 1.0
C      1  0.4689000000000  0.3883390000000  0.4886580000000 1.0
C      1  0.4041530000000  0.5289240000000  0.4914600000000 1.0
C      1  0.5310660000000  0.6021100000000  0.4790090000000 1.0
C      1  0.5429490000000  0.5325770000000  0.4068030000000 1.0
C      1  0.4618710000000  0.5310920000000  0.4138680000000 1.0
C      1  0.4618070000000  0.4614380000000  0.4029030000000 1.0
C      1  0.5370080000000  0.4587110000000  0.4079960000000 1.0
C      1  0.4598440000000  0.5444430000000  0.5964220000000 1.0
C      1  0.5374820000000  0.5409240000000  0.5924870000000 1.0
C      1  0.5399140000000  0.4642270000000  0.5902060000000 1.0
C      1  0.4620490000000  0.4674510000000  0.5952190000000 1.0
C      1  0.5158820000000  0.4774410000000  0.5504860000000 1.0
C      1  0.5258850000000  0.5231740000000  0.5575580000000 1.0
C      1  0.4758630000000  0.5125610000000  0.5510510000000 1.0
C      1  0.4770680000000  0.4741360000000  0.5590610000000 1.0
C      1  0.4829740000000  0.4775030000000  0.4483610000000 1.0
C      1  0.4849700000000  0.5280270000000  0.4461210000000 1.0
C      1  0.5222540000000  0.5149250000000  0.4496540000000 1.0
C      1  0.5231850000000  0.4760620000000  0.4419450000000 1.0
C      1  0.5523540000000  0.5558400000000  0.5471590000000 1.0
C      1  0.4439070000000  0.5667800000000  0.5443960000000 1.0
C      1  0.4332990000000  0.4480860000000  0.5498730000000 1.0
C      1  0.5495000000000  0.4523040000000  0.5336320000000 1.0
C      1  0.4457230000000  0.5515100000000  0.4584470000000 1.0
C      1  0.5571150000000  0.5539380000000  0.4589760000000 1.0
C      1  0.5496270000000  0.4495180000000  0.4555880000000 1.0
C      1  0.4411550000000  0.4348110000000  0.4552670000000 1.0
C      1  0.5012820000000  0.4564870000000  0.5675300000000 1.0
C      1  0.5307600000000  0.4957180000000  0.5679040000000 1.0
C      1  0.4977770000000  0.5338310000000  0.5647050000000 1.0
C      1  0.4672760000000  0.4975950000000  0.5803550000000 1.0
C      1  0.5007110000000  0.4587890000000  0.4300150000000 1.0
C      1  0.4732570000000  0.5037800000000  0.4306380000000 1.0
C      1  0.5103450000000  0.5387180000000  0.4311980000000 1.0
C      1  0.5379670000000  0.4979710000000  0.4259770000000 1.0
C      1  0.5364080000000  0.5112130000000  0.4803470000000 1.0
C      1  0.4858760000000  0.5345110000000  0.4769420000000 1.0
C      1  0.4513340000000  0.4805730000000  0.4849620000000 1.0
C      1  0.5147100000000  0.4624810000000  0.4850980000000 1.0
C      1  0.4582490000000  0.5171590000000  0.5155010000000 1.0
C      1  0.5146330000000  0.5407470000000  0.5179370000000 1.0
C      1  0.5417180000000  0.4993510000000  0.5117780000000 1.0
C      1  0.4709430000000  0.4592560000000  0.5118650000000 1.0
C      1  0.5982260000000  0.4483290000000  0.4866540000000 1.0
C      1  0.5583990000000  0.5979710000000  0.4873900000000 1.0
C      1  0.4053990000000  0.5572230000000  0.4930680000000 1.0
C      1  0.4414180000000  0.3975760000000  0.4938080000000 1.0
C      1  0.4073580000000  0.4445380000000  0.5076460000000 1.0
C      1  0.4432240000000  0.6011110000000  0.5048270000000 1.0
C      1  0.5922010000000  0.5580090000000  0.5142000000000 1.0
C      1  0.5612150000000  0.4074610000000  0.5075420000000 1.0
C      1  0.5821470000000  0.5114380000000  0.5048470000000 1.0
C      1  0.4850020000000  0.5784220000000  0.5052840000000 1.0
C      1  0.4305830000000  0.4886140000000  0.5112180000000 1.0
C      1  0.5135970000000  0.4176890000000  0.5017990000000 1.0
C      1  0.4326210000000  0.5149320000000  0.4932290000000 1.0
C      1  0.5133000000000  0.5805840000000  0.4965020000000 1.0
C      1  0.5849350000000  0.4860150000000  0.4875270000000 1.0
C      1  0.4852190000000  0.4160590000000  0.4921480000000 1.0
C      1  0.4766630000000  0.5222260000000  0.5965040000000 1.0
C      1  0.4937110000000  0.4715400000000  0.5950410000000 1.0
C      1  0.5190520000000  0.4900290000000  0.5976970000000 1.0
C      1  0.5103910000000  0.5228200000000  0.5943090000000 1.0
C      1  0.5189380000000  0.5111270000000  0.4030990000000 1.0
C      1  0.5113710000000  0.4778440000000  0.4039300000000 1.0
C      1  0.4790800000000  0.4828730000000  0.4069320000000 1.0
C      1  0.4921300000000  0.5282280000000  0.4053280000000 1.0
C      1  0.4205320000000  0.4786440000000  0.4349940000000 1.0
C      1  0.5165920000000  0.4221330000000  0.4307910000000 1.0
C      1  0.5821820000000  0.5157280000000  0.4407870000000 1.0
C      1  0.4854030000000  0.5711030000000  0.4325950000000 1.0
C      1  0.5829090000000  0.4855660000000  0.5582560000000 1.0
C      1  0.4788950000000  0.4234700000000  0.5701430000000 1.0
C      1  0.4059760000000  0.5125760000000  0.5757900000000 1.0
C      1  0.5176870000000  0.5782790000000  0.5707000000000 1.0
C      1  0.4276790000000  0.5395060000000  0.5334800000000 1.0
C      1  0.4675710000000  0.4308970000000  0.5132380000000 1.0
C      1  0.5652820000000  0.4747310000000  0.5129020000000 1.0
C      1  0.5332320000000  0.5690050000000  0.5215000000000 1.0
C      1  0.5646660000000  0.5300700000000  0.4822710000000 1.0
C      1  0.5299760000000  0.4329680000000  0.4778740000000 1.0
C      1  0.4151920000000  0.4569030000000  0.4560110000000 1.0
C      1  0.4655570000000  0.5592330000000  0.4849800000000 1.0
C      1  0.4283540000000  0.4588140000000  0.4849960000000 1.0
C      1  0.4471610000000  0.5486320000000  0.5089550000000 1.0
C      1  0.5533400000000  0.4504110000000  0.4940880000000 1.0
C      1  0.5499910000000  0.5522190000000  0.5005270000000 1.0
C      1  0.4979210000000  0.4870410000000  0.5251820000000 1.0
C      1  0.4996470000000  0.4981800000000  0.4680450000000 1.0
C      1  0.4976850000000  0.4960420000000  0.4978440000000 1.0
END
