TITL C-2622962-9663-590 -0.00729789929545924 125000 -759.419667846153 0 0 149 (C1) n - 1
REM
REM in /nfs/bkarasulu/CARBON/AIRSS/Generating-Clusters/AIREBO/with-SteepDescent/Higher-Symm/SD-CG/HFTN-CG
REM
REM
REM
REM
REM
REM ./C.cell (b20cbc046b6831c77cfcea5457e17084)
REM
REM compiler GCC version 9.2.1 20190827 (Red Hat 9.2.1-1)
REM options -cpp -mtune=generic -march=x86-64 -g -O0 -fpre-include=/usr/include/finclude/math-vector-fortran.h
REM seed -1373011706 2129199550 -1180646305 -1357772167 1725181844 1820840991 -400417157 174701726 -622191879 -24910062 -208233368 169708214 -2076657347 1642990368 -653488907 -1309786023 802019500 -2026150392 -936099088 -1086535739 1123861863 477434262 434036222 -2076258058 703950421 86442832 -1552475576 697154726 -343520782 -737736607 2003723604 -739303033 2098051365
REM
CELL 1.54180   50.00000   50.00000   50.00000   90.00000   90.00000   90.00000
LATT -1
SFAC C  
C      1  0.5782100000000  0.5219070000000  0.4521970000000 1.0
C      1  0.5777510000000  0.5789160000000  0.5050650000000 1.0
C      1  0.5770050000000  0.5070870000000  0.5566740000000 1.0
C      1  0.5783610000000  0.4420830000000  0.5258110000000 1.0
C      1  0.5798240000000  0.4659720000000  0.4669090000000 1.0
C      1  0.4214550000000  0.5193610000000  0.4559220000000 1.0
C      1  0.4239210000000  0.5740540000000  0.5034940000000 1.0
C      1  0.4205530000000  0.5106180000000  0.5646850000000 1.0
C      1  0.4267680000000  0.4408230000000  0.5270110000000 1.0
C      1  0.4179330000000  0.4473230000000  0.4595960000000 1.0
C      1  0.4634700000000  0.4778630000000  0.4007930000000 1.0
C      1  0.4519380000000  0.5840010000000  0.4510770000000 1.0
C      1  0.4490060000000  0.5684080000000  0.5663940000000 1.0
C      1  0.4435960000000  0.4643890000000  0.5829890000000 1.0
C      1  0.4437550000000  0.4011570000000  0.4870810000000 1.0
C      1  0.5540870000000  0.4916750000000  0.3988200000000 1.0
C      1  0.5475890000000  0.5874150000000  0.4536120000000 1.0
C      1  0.5456610000000  0.5635390000000  0.5692390000000 1.0
C      1  0.5464580000000  0.4551200000000  0.5808290000000 1.0
C      1  0.5464780000000  0.4101570000000  0.4849240000000 1.0
C      1  0.4433550000000  0.5407690000000  0.5324920000000 1.0
C      1  0.4395500000000  0.4864060000000  0.5501640000000 1.0
C      1  0.4395620000000  0.4601620000000  0.5035840000000 1.0
C      1  0.4462420000000  0.4859390000000  0.4511340000000 1.0
C      1  0.4451690000000  0.5363420000000  0.4725130000000 1.0
C      1  0.5547210000000  0.5357300000000  0.5295280000000 1.0
C      1  0.5564820000000  0.4830110000000  0.5439840000000 1.0
C      1  0.5517100000000  0.4604090000000  0.4944770000000 1.0
C      1  0.5500290000000  0.4904060000000  0.4460820000000 1.0
C      1  0.5557610000000  0.5388070000000  0.4714170000000 1.0
C      1  0.4775220000000  0.4706930000000  0.4971510000000 1.0
C      1  0.4777320000000  0.4944560000000  0.4744930000000 1.0
C      1  0.4792240000000  0.5230320000000  0.4885480000000 1.0
C      1  0.4730340000000  0.5173350000000  0.5199410000000 1.0
C      1  0.4809180000000  0.4875570000000  0.5264980000000 1.0
C      1  0.5110800000000  0.4717890000000  0.4941900000000 1.0
C      1  0.5176100000000  0.4933240000000  0.4742990000000 1.0
C      1  0.5100930000000  0.5210070000000  0.4840310000000 1.0
C      1  0.5234770000000  0.5167350000000  0.5133210000000 1.0
C      1  0.5119410000000  0.4866750000000  0.5242640000000 1.0
C      1  0.4890130000000  0.4005060000000  0.5337100000000 1.0
C      1  0.4809960000000  0.4401010000000  0.4228310000000 1.0
C      1  0.4840450000000  0.5572690000000  0.4084810000000 1.0
C      1  0.4847430000000  0.5968010000000  0.5278040000000 1.0
C      1  0.4917050000000  0.5014640000000  0.6080290000000 1.0
C      1  0.5208890000000  0.4098670000000  0.5419470000000 1.0
C      1  0.5149340000000  0.4416750000000  0.4199900000000 1.0
C      1  0.5171820000000  0.5561140000000  0.4128540000000 1.0
C      1  0.5155870000000  0.5882750000000  0.5277320000000 1.0
C      1  0.5234600000000  0.5104860000000  0.5990160000000 1.0
C      1  0.5372260000000  0.4668240000000  0.4251770000000 1.0
C      1  0.5342150000000  0.5598010000000  0.4389360000000 1.0
C      1  0.5383290000000  0.5709870000000  0.5385340000000 1.0
C      1  0.5359440000000  0.4872520000000  0.5830440000000 1.0
C      1  0.5352900000000  0.4174670000000  0.5153960000000 1.0
C      1  0.4607690000000  0.4638620000000  0.4297100000000 1.0
C      1  0.4667490000000  0.5579020000000  0.4350690000000 1.0
C      1  0.4665600000000  0.5730780000000  0.5376330000000 1.0
C      1  0.4702430000000  0.4844140000000  0.5897630000000 1.0
C      1  0.4669430000000  0.4108370000000  0.5099980000000 1.0
C      1  0.5134830000000  0.4756220000000  0.4478810000000 1.0
C      1  0.5171730000000  0.5403910000000  0.4610570000000 1.0
C      1  0.5173840000000  0.5485120000000  0.5238060000000 1.0
C      1  0.5141860000000  0.4897170000000  0.5582780000000 1.0
C      1  0.5127750000000  0.4426760000000  0.5116760000000 1.0
C      1  0.4850060000000  0.4810050000000  0.4463000000000 1.0
C      1  0.4879440000000  0.5378020000000  0.4524710000000 1.0
C      1  0.4856400000000  0.5487130000000  0.5235170000000 1.0
C      1  0.4822890000000  0.4937990000000  0.5598960000000 1.0
C      1  0.4789280000000  0.4421620000000  0.5156000000000 1.0
C      1  0.4274780000000  0.4542420000000  0.5545530000000 1.0
C      1  0.4227640000000  0.4211140000000  0.4692720000000 1.0
C      1  0.4333010000000  0.5071470000000  0.4278150000000 1.0
C      1  0.4353420000000  0.5667550000000  0.4745840000000 1.0
C      1  0.4297300000000  0.5404840000000  0.5636480000000 1.0
C      1  0.5622160000000  0.4501890000000  0.5511020000000 1.0
C      1  0.5670900000000  0.4355570000000  0.4752790000000 1.0
C      1  0.5683470000000  0.5090550000000  0.4243280000000 1.0
C      1  0.5659190000000  0.5702640000000  0.4760340000000 1.0
C      1  0.5623770000000  0.5348600000000  0.5626710000000 1.0
C      1  0.4610940000000  0.5495160000000  0.4998000000000 1.0
C      1  0.4574840000000  0.5153210000000  0.5501120000000 1.0
C      1  0.4582350000000  0.4647800000000  0.5316470000000 1.0
C      1  0.4550830000000  0.4615200000000  0.4732960000000 1.0
C      1  0.4632380000000  0.5153680000000  0.4527240000000 1.0
C      1  0.5423480000000  0.5496600000000  0.5007450000000 1.0
C      1  0.5367950000000  0.5107450000000  0.5440370000000 1.0
C      1  0.5362560000000  0.4640340000000  0.5242710000000 1.0
C      1  0.5401190000000  0.4626340000000  0.4645540000000 1.0
C      1  0.5386460000000  0.5210960000000  0.4479000000000 1.0
C      1  0.4722690000000  0.5114350000000  0.4200700000000 1.0
C      1  0.4725800000000  0.5772750000000  0.4845650000000 1.0
C      1  0.4695070000000  0.5354090000000  0.5747710000000 1.0
C      1  0.4684970000000  0.4456730000000  0.5579040000000 1.0
C      1  0.4706850000000  0.4334620000000  0.4622780000000 1.0
C      1  0.5304110000000  0.5185580000000  0.4160920000000 1.0
C      1  0.5282890000000  0.5776300000000  0.4872430000000 1.0
C      1  0.5227150000000  0.5312880000000  0.5652330000000 1.0
C      1  0.5220560000000  0.4484550000000  0.5503250000000 1.0
C      1  0.5287550000000  0.4324660000000  0.4577490000000 1.0
C      1  0.4371270000000  0.4149490000000  0.5258220000000 1.0
C      1  0.4288730000000  0.4533150000000  0.4350080000000 1.0
C      1  0.4379260000000  0.5401060000000  0.4337350000000 1.0
C      1  0.4370240000000  0.5792300000000  0.5238620000000 1.0
C      1  0.4366260000000  0.4955860000000  0.5891290000000 1.0
C      1  0.5676830000000  0.4173860000000  0.5176830000000 1.0
C      1  0.5678090000000  0.4569640000000  0.4363690000000 1.0
C      1  0.5661930000000  0.5485210000000  0.4347790000000 1.0
C      1  0.5649770000000  0.5846930000000  0.5258870000000 1.0
C      1  0.5663110000000  0.4896520000000  0.5819810000000 1.0
C      1  0.5560670000000  0.4129290000000  0.4524210000000 1.0
C      1  0.5574220000000  0.5254930000000  0.3966410000000 1.0
C      1  0.5525530000000  0.6011790000000  0.4836790000000 1.0
C      1  0.5439810000000  0.5366330000000  0.5912200000000 1.0
C      1  0.5429150000000  0.4249690000000  0.5632820000000 1.0
C      1  0.4504890000000  0.4107110000000  0.4581390000000 1.0
C      1  0.4461850000000  0.5024270000000  0.4001870000000 1.0
C      1  0.4462550000000  0.5983820000000  0.4811040000000 1.0
C      1  0.4441780000000  0.5483360000000  0.5934090000000 1.0
C      1  0.4427180000000  0.4323030000000  0.5755950000000 1.0
C      1  0.6045320000000  0.5094370000000  0.5432280000000 1.0
C      1  0.5852620000000  0.4601660000000  0.4999810000000 1.0
C      1  0.5921080000000  0.4978330000000  0.4655150000000 1.0
C      1  0.6041470000000  0.5075280000000  0.4956810000000 1.0
C      1  0.6158080000000  0.5140320000000  0.5187660000000 1.0
C      1  0.3916420000000  0.5094210000000  0.5520660000000 1.0
C      1  0.4166240000000  0.4693520000000  0.4801950000000 1.0
C      1  0.4048910000000  0.5014480000000  0.4732360000000 1.0
C      1  0.3917450000000  0.5092920000000  0.5039180000000 1.0
C      1  0.3801730000000  0.5132830000000  0.5273400000000 1.0
C      1  0.5127880000000  0.4144880000000  0.4832980000000 1.0
C      1  0.5214120000000  0.4888520000000  0.4046560000000 1.0
C      1  0.5141440000000  0.5809260000000  0.4564960000000 1.0
C      1  0.5117840000000  0.5623990000000  0.5675280000000 1.0
C      1  0.5124610000000  0.4553090000000  0.5816160000000 1.0
C      1  0.4873370000000  0.4169970000000  0.4834970000000 1.0
C      1  0.4922800000000  0.4883270000000  0.4034540000000 1.0
C      1  0.4857250000000  0.5784360000000  0.4544490000000 1.0
C      1  0.4833570000000  0.5642360000000  0.5658430000000 1.0
C      1  0.4855740000000  0.4559370000000  0.5828630000000 1.0
C      1  0.4941470000000  0.4289890000000  0.5506500000000 1.0
C      1  0.4992030000000  0.5272820000000  0.4090520000000 1.0
C      1  0.4961100000000  0.5256330000000  0.5856430000000 1.0
C      1  0.4985220000000  0.5881250000000  0.4985470000000 1.0
C      1  0.4993900000000  0.4287910000000  0.4472940000000 1.0
C      1  0.4435980000000  0.5061740000000  0.5130600000000 1.0
C      1  0.5517850000000  0.5019690000000  0.5063140000000 1.0
C      1  0.4196440000000  0.4944430000000  0.5016090000000 1.0
C      1  0.5772640000000  0.4909550000000  0.4979760000000 1.0
END
