TITL C-2622967-6265-483 0.000936987324510877 125000 -364.233964754491 0 0 65 (C1) n - 1
REM
REM in /nfs/bkarasulu/CARBON/AIRSS/Generating-Clusters/AIREBO/with-SteepDescent/Higher-Symm/SD-CG/HFTN-CG
REM
REM
REM
REM
REM
REM ./C.cell (b20cbc046b6831c77cfcea5457e17084)
REM
REM compiler GCC version 9.2.1 20190827 (Red Hat 9.2.1-1)
REM options -cpp -mtune=generic -march=x86-64 -g -O0 -fpre-include=/usr/include/finclude/math-vector-fortran.h
REM seed -2106580087 -114811492 -2146505674 1620073764 -1921943816 1248362208 2050552216 -1281876183 -929883938 975802871 1047075071 284588000 765236754 507397341 735569487 441427226 -1225500923 -1257241264 -492313104 913700370 -1271395169 -437745518 548878067 -1702935768 -1563148494 -1210284131 -1236674506 -1696071684 -1002995845 1901679018 397358484 -1040628004 -162211694
REM
CELL 1.54180   50.00000   50.00000   50.00000   90.00000   90.00000   90.00000
LATT -1
SFAC C  
C      1  0.4397950000000  0.4622320000000  0.4820350000000 1.0
C      1  0.5626000000000  0.4602090000000  0.5128550000000 1.0
C      1  0.4467730000000  0.4676790000000  0.5105230000000 1.0
C      1  0.5615280000000  0.4579290000000  0.4825060000000 1.0
C      1  0.4882030000000  0.4825010000000  0.5669790000000 1.0
C      1  0.5122340000000  0.4770070000000  0.4313250000000 1.0
C      1  0.4860060000000  0.4667090000000  0.4228510000000 1.0
C      1  0.5139250000000  0.4697190000000  0.5755760000000 1.0
C      1  0.4355490000000  0.4992040000000  0.5165550000000 1.0
C      1  0.5644570000000  0.4929800000000  0.4843170000000 1.0
C      1  0.4326870000000  0.4955420000000  0.4825690000000 1.0
C      1  0.5678210000000  0.4933920000000  0.5181580000000 1.0
C      1  0.4855490000000  0.5386850000000  0.5516530000000 1.0
C      1  0.5095120000000  0.5451630000000  0.4448890000000 1.0
C      1  0.4839990000000  0.5533520000000  0.4382810000000 1.0
C      1  0.5113700000000  0.5511020000000  0.5634540000000 1.0
C      1  0.4597690000000  0.4794890000000  0.4379110000000 1.0
C      1  0.5405820000000  0.4822890000000  0.5631110000000 1.0
C      1  0.4543350000000  0.4865860000000  0.5678410000000 1.0
C      1  0.5440770000000  0.4876290000000  0.4348520000000 1.0
C      1  0.5227570000000  0.4633790000000  0.5115660000000 1.0
C      1  0.4837550000000  0.4655020000000  0.4767930000000 1.0
C      1  0.5125760000000  0.4605690000000  0.4812220000000 1.0
C      1  0.4970600000000  0.4822920000000  0.5142470000000 1.0
C      1  0.4813450000000  0.5118620000000  0.4613360000000 1.0
C      1  0.5224630000000  0.5097550000000  0.5372720000000 1.0
C      1  0.4893840000000  0.5074400000000  0.5440040000000 1.0
C      1  0.5117840000000  0.4990380000000  0.4554220000000 1.0
C      1  0.4540240000000  0.5404150000000  0.4734280000000 1.0
C      1  0.5459320000000  0.5436950000000  0.5279930000000 1.0
C      1  0.4526770000000  0.5459530000000  0.5304040000000 1.0
C      1  0.5469900000000  0.5395100000000  0.4728180000000 1.0
C      1  0.4540520000000  0.5402910000000  0.5596540000000 1.0
C      1  0.5397480000000  0.5392030000000  0.4434850000000 1.0
C      1  0.4595760000000  0.5415480000000  0.4458790000000 1.0
C      1  0.5361190000000  0.5426210000000  0.5560450000000 1.0
C      1  0.5354120000000  0.4514970000000  0.5564820000000 1.0
C      1  0.4640910000000  0.4464050000000  0.4373220000000 1.0
C      1  0.5378150000000  0.4563010000000  0.4389360000000 1.0
C      1  0.4684590000000  0.4612230000000  0.5526280000000 1.0
C      1  0.4745880000000  0.4928560000000  0.4845560000000 1.0
C      1  0.5353290000000  0.4930260000000  0.5160030000000 1.0
C      1  0.4694420000000  0.5019500000000  0.5169450000000 1.0
C      1  0.5300380000000  0.4897570000000  0.4825730000000 1.0
C      1  0.5160950000000  0.5272980000000  0.4732480000000 1.0
C      1  0.4825320000000  0.5428150000000  0.5178950000000 1.0
C      1  0.5140200000000  0.5381240000000  0.5230610000000 1.0
C      1  0.4794780000000  0.5323420000000  0.4884210000000 1.0
C      1  0.4422490000000  0.5173590000000  0.5687880000000 1.0
C      1  0.5533190000000  0.5182240000000  0.4302990000000 1.0
C      1  0.4565980000000  0.5117720000000  0.4382640000000 1.0
C      1  0.5444980000000  0.5139290000000  0.5628570000000 1.0
C      1  0.4286030000000  0.4962320000000  0.5482240000000 1.0
C      1  0.5702150000000  0.4975540000000  0.4513740000000 1.0
C      1  0.4313790000000  0.4925190000000  0.4506070000000 1.0
C      1  0.5700670000000  0.4939590000000  0.5520810000000 1.0
C      1  0.5657520000000  0.5262630000000  0.4872270000000 1.0
C      1  0.4326930000000  0.5330800000000  0.5160250000000 1.0
C      1  0.5649740000000  0.5276220000000  0.5163730000000 1.0
C      1  0.4331640000000  0.5274160000000  0.4872660000000 1.0
C      1  0.4707980000000  0.4630010000000  0.5249590000000 1.0
C      1  0.5389660000000  0.4503050000000  0.4668900000000 1.0
C      1  0.4613120000000  0.4518130000000  0.4667240000000 1.0
C      1  0.5410390000000  0.4467700000000  0.5299400000000 1.0
C      1  0.5042300000000  0.5133320000000  0.5019110000000 1.0
END
