TITL C-2622962-9663-625 0.00171118792408587 125000 -518.728397270245 0 0 93 (C1) n - 1
REM
REM in /nfs/bkarasulu/CARBON/AIRSS/Generating-Clusters/AIREBO/with-SteepDescent/Higher-Symm/SD-CG/HFTN-CG
REM
REM
REM
REM
REM
REM ./C.cell (b20cbc046b6831c77cfcea5457e17084)
REM
REM compiler GCC version 9.2.1 20190827 (Red Hat 9.2.1-1)
REM options -cpp -mtune=generic -march=x86-64 -g -O0 -fpre-include=/usr/include/finclude/math-vector-fortran.h
REM seed -1932958680 -240568316 -53539773 307765274 1892689076 2129490571 1324964009 -1566506586 741411513 2010781580 -417851428 -173747532 -1413330753 701534701 923471984 -612063595 754273628 1972470317 579314077 -255803211 -1889236979 1175189584 -1896472615 1904835151 -152640984 137929384 -996609395 1205943825 559994308 495193120 -749624587 -316529143 1662702745
REM
CELL 1.54180   50.00000   50.00000   50.00000   90.00000   90.00000   90.00000
LATT -1
SFAC C  
C      1  0.5396630000000  0.5520240000000  0.5378080000000 1.0
C      1  0.5627670000000  0.4999310000000  0.5403350000000 1.0
C      1  0.5419970000000  0.4493410000000  0.5452310000000 1.0
C      1  0.4846550000000  0.4620750000000  0.5418450000000 1.0
C      1  0.4315390000000  0.4714850000000  0.5407160000000 1.0
C      1  0.4552190000000  0.5218090000000  0.5476020000000 1.0
C      1  0.4890810000000  0.5648780000000  0.5299310000000 1.0
C      1  0.5088640000000  0.5330470000000  0.4146280000000 1.0
C      1  0.5265530000000  0.5160820000000  0.4002030000000 1.0
C      1  0.5307180000000  0.4898450000000  0.4104910000000 1.0
C      1  0.5094970000000  0.4719420000000  0.4086350000000 1.0
C      1  0.4861050000000  0.4824370000000  0.3959310000000 1.0
C      1  0.4716150000000  0.5027150000000  0.4097380000000 1.0
C      1  0.4816080000000  0.5292410000000  0.4077400000000 1.0
C      1  0.4304700000000  0.4945800000000  0.4419820000000 1.0
C      1  0.4456450000000  0.5446050000000  0.4534360000000 1.0
C      1  0.5191420000000  0.5694670000000  0.4474180000000 1.0
C      1  0.5694000000000  0.5363590000000  0.4443710000000 1.0
C      1  0.5720940000000  0.4735670000000  0.4400090000000 1.0
C      1  0.5085360000000  0.4258210000000  0.4426360000000 1.0
C      1  0.4513670000000  0.4413740000000  0.4540670000000 1.0
C      1  0.4082860000000  0.4670760000000  0.5261570000000 1.0
C      1  0.4311960000000  0.5377070000000  0.5319610000000 1.0
C      1  0.4886900000000  0.5950190000000  0.5250840000000 1.0
C      1  0.5582100000000  0.5733040000000  0.5390740000000 1.0
C      1  0.5904680000000  0.5005360000000  0.5361990000000 1.0
C      1  0.5621000000000  0.4318540000000  0.5362680000000 1.0
C      1  0.4953620000000  0.4315210000000  0.5494970000000 1.0
C      1  0.4702390000000  0.4815970000000  0.4727370000000 1.0
C      1  0.4713640000000  0.5201060000000  0.4938230000000 1.0
C      1  0.5125580000000  0.5374360000000  0.4816890000000 1.0
C      1  0.5248730000000  0.5072700000000  0.4891090000000 1.0
C      1  0.5319930000000  0.4891560000000  0.4630050000000 1.0
C      1  0.5182280000000  0.4623310000000  0.4627750000000 1.0
C      1  0.4883690000000  0.4566700000000  0.4681360000000 1.0
C      1  0.5461030000000  0.5229110000000  0.4417680000000 1.0
C      1  0.5474460000000  0.4920940000000  0.4352110000000 1.0
C      1  0.5023030000000  0.4536700000000  0.4308730000000 1.0
C      1  0.4716900000000  0.4606380000000  0.4387720000000 1.0
C      1  0.4633430000000  0.4935060000000  0.4412640000000 1.0
C      1  0.4645280000000  0.5234400000000  0.4626870000000 1.0
C      1  0.5158250000000  0.5362660000000  0.4477610000000 1.0
C      1  0.5530260000000  0.4754950000000  0.5567040000000 1.0
C      1  0.5198050000000  0.4334110000000  0.5619940000000 1.0
C      1  0.4412990000000  0.4468220000000  0.5579810000000 1.0
C      1  0.4334820000000  0.4971740000000  0.5564120000000 1.0
C      1  0.4679040000000  0.5670860000000  0.5564410000000 1.0
C      1  0.5127320000000  0.5596400000000  0.5521800000000 1.0
C      1  0.5495880000000  0.5264030000000  0.5513730000000 1.0
C      1  0.5176060000000  0.4407580000000  0.5890380000000 1.0
C      1  0.4625770000000  0.4459720000000  0.5710240000000 1.0
C      1  0.4387050000000  0.4917270000000  0.5830920000000 1.0
C      1  0.4601370000000  0.5512370000000  0.5740730000000 1.0
C      1  0.5065720000000  0.5559630000000  0.5779900000000 1.0
C      1  0.5451100000000  0.5257950000000  0.5782180000000 1.0
C      1  0.5507360000000  0.4784160000000  0.5835840000000 1.0
C      1  0.5802650000000  0.4626820000000  0.4611800000000 1.0
C      1  0.5110210000000  0.4238860000000  0.4710790000000 1.0
C      1  0.4544360000000  0.4399610000000  0.4810450000000 1.0
C      1  0.4188480000000  0.4949600000000  0.4662240000000 1.0
C      1  0.4407440000000  0.5622880000000  0.4712320000000 1.0
C      1  0.5155980000000  0.5766790000000  0.4753540000000 1.0
C      1  0.5791740000000  0.5396110000000  0.4702450000000 1.0
C      1  0.4830660000000  0.4305510000000  0.4892490000000 1.0
C      1  0.4221380000000  0.4756410000000  0.4904160000000 1.0
C      1  0.4340380000000  0.5373500000000  0.5041750000000 1.0
C      1  0.4898580000000  0.5624740000000  0.4857960000000 1.0
C      1  0.5600400000000  0.5533390000000  0.4902160000000 1.0
C      1  0.5600260000000  0.4912870000000  0.4801890000000 1.0
C      1  0.5366340000000  0.4433750000000  0.4800340000000 1.0
C      1  0.5256350000000  0.4867810000000  0.5938550000000 1.0
C      1  0.5067050000000  0.4666190000000  0.5920670000000 1.0
C      1  0.4823760000000  0.4710690000000  0.5746560000000 1.0
C      1  0.4658840000000  0.4940210000000  0.5863950000000 1.0
C      1  0.4731720000000  0.5214970000000  0.5765170000000 1.0
C      1  0.5000680000000  0.5301260000000  0.5870230000000 1.0
C      1  0.5222360000000  0.5141920000000  0.5902810000000 1.0
C      1  0.4326640000000  0.5094400000000  0.4928770000000 1.0
C      1  0.4597740000000  0.5582030000000  0.4960070000000 1.0
C      1  0.5369550000000  0.5668120000000  0.4933250000000 1.0
C      1  0.5637960000000  0.5198140000000  0.4922940000000 1.0
C      1  0.5620290000000  0.4588670000000  0.4881310000000 1.0
C      1  0.5135380000000  0.4373560000000  0.5028230000000 1.0
C      1  0.4406460000000  0.4558070000000  0.4988250000000 1.0
C      1  0.4593060000000  0.4908740000000  0.5001960000000 1.0
C      1  0.4697890000000  0.5381470000000  0.5215770000000 1.0
C      1  0.5161880000000  0.5513440000000  0.5132030000000 1.0
C      1  0.5451140000000  0.5032260000000  0.5151210000000 1.0
C      1  0.5375370000000  0.4728610000000  0.5073090000000 1.0
C      1  0.5148300000000  0.4574440000000  0.5264420000000 1.0
C      1  0.4595090000000  0.4686010000000  0.5239360000000 1.0
C      1  0.4892910000000  0.5151860000000  0.4449950000000 1.0
C      1  0.4966780000000  0.5042570000000  0.4970000000000 1.0
END
