TITL C-2622964-2985-244 5.40540650580361e-06 125000 -203.166617119933 0 0 40 (C2) n - 1
REM
REM in /nfs/bkarasulu/CARBON/AIRSS/Generating-Clusters/AIREBO/with-SteepDescent/Higher-Symm/SD-CG/HFTN-CG
REM
REM
REM
REM
REM
REM ./C.cell (b20cbc046b6831c77cfcea5457e17084)
REM
REM compiler GCC version 9.2.1 20190827 (Red Hat 9.2.1-1)
REM options -cpp -mtune=generic -march=x86-64 -g -O0 -fpre-include=/usr/include/finclude/math-vector-fortran.h
REM seed 1316850258 -1444088416 -1007522132 787685000 -453190002 452609315 -2071007870 851397028 -568365724 521374969 558478432 843008636 274876365 -393035501 2074194110 -1965320410 298128817 -902954843 208950993 -102490377 -1833443329 2097489730 652531975 -544459670 2104946787 598126599 639704049 310746294 -470102850 1873655730 1874663912 743254911 660290529
REM
CELL 1.54180   50.00000   50.00000   50.00000   90.00000   90.00000   90.00000
LATT -1
SFAC C  
C      1  0.4986590000000  0.4823130000000  0.5461590000000 1.0
C      1  0.5496550000000  0.5001820000000  0.4749230000000 1.0
C      1  0.4731980000000  0.5478940000000  0.5008140000000 1.0
C      1  0.4989490000000  0.4780290000000  0.4498050000000 1.0
C      1  0.4986780000000  0.5177300000000  0.4537620000000 1.0
C      1  0.4989420000000  0.5220130000000  0.5501160000000 1.0
C      1  0.4525230000000  0.5003360000000  0.5250300000000 1.0
C      1  0.5496480000000  0.4998450000000  0.5250120000000 1.0
C      1  0.4525300000000  0.4997220000000  0.4748770000000 1.0
C      1  0.5263360000000  0.5457380000000  0.5023580000000 1.0
C      1  0.4731830000000  0.4521570000000  0.4990990000000 1.0
C      1  0.5263220000000  0.4542960000000  0.4975700000000 1.0
C      1  0.5483940000000  0.4800670000000  0.4998530000000 1.0
C      1  0.4735590000000  0.5008430000000  0.5509720000000 1.0
C      1  0.4990520000000  0.5455790000000  0.4823570000000 1.0
C      1  0.4538450000000  0.4801140000000  0.5000300000000 1.0
C      1  0.4538520000000  0.5199430000000  0.4998780000000 1.0
C      1  0.5484000000000  0.5199600000000  0.5000820000000 1.0
C      1  0.5252600000000  0.4981120000000  0.4528570000000 1.0
C      1  0.5252470000000  0.5019230000000  0.5470710000000 1.0
C      1  0.4735730000000  0.4992080000000  0.4489410000000 1.0
C      1  0.4989400000000  0.5502400000000  0.5218990000000 1.0
C      1  0.4989300000000  0.4498030000000  0.4780210000000 1.0
C      1  0.4990320000000  0.4544640000000  0.5175630000000 1.0
C      1  0.5558610000000  0.5013900000000  0.4432050000000 1.0
C      1  0.4416120000000  0.5000810000000  0.5553490000000 1.0
C      1  0.4982560000000  0.5488570000000  0.4514810000000 1.0
C      1  0.5578280000000  0.4488960000000  0.5011220000000 1.0
C      1  0.4982270000000  0.4511860000000  0.5484390000000 1.0
C      1  0.4411940000000  0.5499000000000  0.4992540000000 1.0
C      1  0.4966310000000  0.4473570000000  0.4473010000000 1.0
C      1  0.4966330000000  0.5526870000000  0.5526190000000 1.0
C      1  0.5558440000000  0.4986340000000  0.5567310000000 1.0
C      1  0.4416270000000  0.4999800000000  0.4445550000000 1.0
C      1  0.5578450000000  0.5511280000000  0.4988150000000 1.0
C      1  0.4411780000000  0.4501620000000  0.5006500000000 1.0
C      1  0.5089100000000  0.4860940000000  0.5142100000000 1.0
C      1  0.5089190000000  0.5139460000000  0.4857130000000 1.0
C      1  0.5025830000000  0.5172530000000  0.5172520000000 1.0
C      1  0.5025820000000  0.4827890000000  0.4826690000000 1.0
END
