TITL C-2622961-1971-351 -0.000600892533311249 125000 -819.61212894034 0 0 160 (C1) n - 1
REM
REM in /nfs/bkarasulu/CARBON/AIRSS/Generating-Clusters/AIREBO/with-SteepDescent/Higher-Symm/SD-CG/HFTN-CG
REM
REM
REM
REM
REM
REM ./C.cell (b20cbc046b6831c77cfcea5457e17084)
REM
REM compiler GCC version 9.2.1 20190827 (Red Hat 9.2.1-1)
REM options -cpp -mtune=generic -march=x86-64 -g -O0 -fpre-include=/usr/include/finclude/math-vector-fortran.h
REM seed -1386654408 -1877709003 966331670 263234285 -287191962 844485426 -1361692047 -1248301287 490494250 1433061988 1373016559 -71726798 -1328994776 2015899585 1191463840 760906818 -1720308311 -1438166844 441594979 -554913737 -670612905 -1044280997 -106547340 -823099113 81689486 -137420586 -1472849674 -2001194383 -85393885 -253193224 30949927 1826008742 -662560302
REM
CELL 1.54180   50.00000   50.00000   50.00000   90.00000   90.00000   90.00000
LATT -1
SFAC C  
C      1  0.4741070000000  0.5793290000000  0.5391910000000 1.0
C      1  0.5363080000000  0.5739630000000  0.5368430000000 1.0
C      1  0.4175250000000  0.5573060000000  0.5136630000000 1.0
C      1  0.5765420000000  0.5556420000000  0.5152960000000 1.0
C      1  0.5297590000000  0.4828290000000  0.5973180000000 1.0
C      1  0.4631320000000  0.4846960000000  0.5841100000000 1.0
C      1  0.4616800000000  0.5173130000000  0.5793380000000 1.0
C      1  0.5290500000000  0.5110800000000  0.5848900000000 1.0
C      1  0.5730990000000  0.5220920000000  0.4545050000000 1.0
C      1  0.4335430000000  0.5143440000000  0.4586630000000 1.0
C      1  0.4206380000000  0.4683050000000  0.4382880000000 1.0
C      1  0.5720380000000  0.4741990000000  0.4372760000000 1.0
C      1  0.4701900000000  0.5725700000000  0.5723020000000 1.0
C      1  0.5317420000000  0.5666610000000  0.5878410000000 1.0
C      1  0.4561820000000  0.4183170000000  0.5705870000000 1.0
C      1  0.5367520000000  0.4220260000000  0.5617810000000 1.0
C      1  0.5297900000000  0.4646850000000  0.4553550000000 1.0
C      1  0.4650190000000  0.4687870000000  0.4582650000000 1.0
C      1  0.4702680000000  0.5495530000000  0.4916060000000 1.0
C      1  0.5408750000000  0.5446720000000  0.4915440000000 1.0
C      1  0.5285430000000  0.4640370000000  0.3969690000000 1.0
C      1  0.4656310000000  0.4531720000000  0.4013220000000 1.0
C      1  0.5977390000000  0.4887680000000  0.4941480000000 1.0
C      1  0.3973160000000  0.4857050000000  0.4868280000000 1.0
C      1  0.4496110000000  0.5431890000000  0.4668290000000 1.0
C      1  0.5524960000000  0.5460060000000  0.4619140000000 1.0
C      1  0.5306530000000  0.4142580000000  0.4549670000000 1.0
C      1  0.4659190000000  0.4003310000000  0.4651620000000 1.0
C      1  0.5776660000000  0.4389940000000  0.4770660000000 1.0
C      1  0.4304140000000  0.4330310000000  0.4796750000000 1.0
C      1  0.4202280000000  0.5327070000000  0.4915720000000 1.0
C      1  0.5826240000000  0.5307910000000  0.4929240000000 1.0
C      1  0.4725710000000  0.5393110000000  0.5239270000000 1.0
C      1  0.5338140000000  0.5261050000000  0.5351790000000 1.0
C      1  0.4499060000000  0.6096780000000  0.4951000000000 1.0
C      1  0.5490670000000  0.6027760000000  0.4824290000000 1.0
C      1  0.5361050000000  0.4691360000000  0.5063010000000 1.0
C      1  0.4646400000000  0.4718050000000  0.5118130000000 1.0
C      1  0.4430410000000  0.4630100000000  0.4794690000000 1.0
C      1  0.5642040000000  0.4683010000000  0.4806920000000 1.0
C      1  0.5270450000000  0.4965970000000  0.4879230000000 1.0
C      1  0.4660950000000  0.4939680000000  0.4898590000000 1.0
C      1  0.5969980000000  0.4564200000000  0.4989540000000 1.0
C      1  0.4062570000000  0.4540620000000  0.4911130000000 1.0
C      1  0.5595000000000  0.5064530000000  0.4905210000000 1.0
C      1  0.4401270000000  0.5097060000000  0.5037330000000 1.0
C      1  0.5450580000000  0.5169100000000  0.4358530000000 1.0
C      1  0.4581650000000  0.5196970000000  0.4358300000000 1.0
C      1  0.4339580000000  0.5844360000000  0.5042260000000 1.0
C      1  0.5700250000000  0.5855610000000  0.5000460000000 1.0
C      1  0.5331220000000  0.5483970000000  0.4340640000000 1.0
C      1  0.4692260000000  0.5506350000000  0.4400240000000 1.0
C      1  0.5476830000000  0.4365590000000  0.5031650000000 1.0
C      1  0.4615480000000  0.4132960000000  0.5126750000000 1.0
C      1  0.5156370000000  0.4344240000000  0.5840320000000 1.0
C      1  0.4762600000000  0.4308980000000  0.5877470000000 1.0
C      1  0.5331650000000  0.5897250000000  0.4647000000000 1.0
C      1  0.4709210000000  0.5878320000000  0.4802240000000 1.0
C      1  0.4090420000000  0.5011320000000  0.5128490000000 1.0
C      1  0.5774250000000  0.5010110000000  0.5189210000000 1.0
C      1  0.4718170000000  0.4803660000000  0.4208450000000 1.0
C      1  0.5363480000000  0.4911970000000  0.4159030000000 1.0
C      1  0.5268800000000  0.4532370000000  0.5327320000000 1.0
C      1  0.4613730000000  0.4579220000000  0.5410310000000 1.0
C      1  0.4221720000000  0.4826870000000  0.4638220000000 1.0
C      1  0.5666830000000  0.4909760000000  0.4610890000000 1.0
C      1  0.4335770000000  0.5011180000000  0.5567480000000 1.0
C      1  0.5728100000000  0.5033010000000  0.5696160000000 1.0
C      1  0.5285660000000  0.5990570000000  0.5564050000000 1.0
C      1  0.4897380000000  0.6043410000000  0.5522080000000 1.0
C      1  0.5502650000000  0.4793590000000  0.5729050000000 1.0
C      1  0.4353120000000  0.4713200000000  0.5696390000000 1.0
C      1  0.5580940000000  0.5485930000000  0.5429980000000 1.0
C      1  0.4244180000000  0.5455910000000  0.5404480000000 1.0
C      1  0.4650650000000  0.4898500000000  0.5505520000000 1.0
C      1  0.5305380000000  0.4792870000000  0.5480020000000 1.0
C      1  0.5453110000000  0.4601680000000  0.4265500000000 1.0
C      1  0.4491310000000  0.4588400000000  0.4302020000000 1.0
C      1  0.4266300000000  0.5630530000000  0.4805110000000 1.0
C      1  0.5761220000000  0.5599630000000  0.4805440000000 1.0
C      1  0.4644350000000  0.5764040000000  0.5116900000000 1.0
C      1  0.5412230000000  0.5712680000000  0.5056920000000 1.0
C      1  0.5267410000000  0.4985320000000  0.4540320000000 1.0
C      1  0.4713540000000  0.5012770000000  0.4583670000000 1.0
C      1  0.5247440000000  0.5021650000000  0.3858770000000 1.0
C      1  0.4642420000000  0.5080000000000  0.4063680000000 1.0
C      1  0.5520310000000  0.5595220000000  0.5746330000000 1.0
C      1  0.4464690000000  0.5553200000000  0.5550770000000 1.0
C      1  0.4307110000000  0.4234000000000  0.5183550000000 1.0
C      1  0.5794810000000  0.4292820000000  0.5095990000000 1.0
C      1  0.4342320000000  0.4565550000000  0.5116870000000 1.0
C      1  0.5691340000000  0.4683430000000  0.5143840000000 1.0
C      1  0.5945220000000  0.4825180000000  0.5417820000000 1.0
C      1  0.4008730000000  0.4822120000000  0.5370440000000 1.0
C      1  0.5256260000000  0.5316490000000  0.5638050000000 1.0
C      1  0.4743530000000  0.5363530000000  0.5566040000000 1.0
C      1  0.5996470000000  0.5103580000000  0.4723690000000 1.0
C      1  0.4022900000000  0.5153900000000  0.4722910000000 1.0
C      1  0.5457800000000  0.4988690000000  0.5311760000000 1.0
C      1  0.4622580000000  0.5107970000000  0.5257370000000 1.0
C      1  0.4183540000000  0.5178670000000  0.5409620000000 1.0
C      1  0.5757900000000  0.5198570000000  0.5471920000000 1.0
C      1  0.4223230000000  0.4657020000000  0.5422090000000 1.0
C      1  0.5694450000000  0.4652530000000  0.5486510000000 1.0
C      1  0.4619310000000  0.5778490000000  0.4514850000000 1.0
C      1  0.5412250000000  0.5784760000000  0.4414980000000 1.0
C      1  0.5357000000000  0.4217980000000  0.5313610000000 1.0
C      1  0.4533270000000  0.4289930000000  0.5418030000000 1.0
C      1  0.4488550000000  0.4123770000000  0.4833760000000 1.0
C      1  0.5446850000000  0.4378560000000  0.4687580000000 1.0
C      1  0.5028260000000  0.5785690000000  0.4752480000000 1.0
C      1  0.4918590000000  0.4202950000000  0.4266060000000 1.0
C      1  0.5070700000000  0.3787810000000  0.4741220000000 1.0
C      1  0.5001310000000  0.5494570000000  0.4258610000000 1.0
C      1  0.4951260000000  0.5459140000000  0.3919960000000 1.0
C      1  0.4892420000000  0.4234310000000  0.5101700000000 1.0
C      1  0.4995960000000  0.5158140000000  0.4649470000000 1.0
C      1  0.4912870000000  0.4952080000000  0.3893310000000 1.0
C      1  0.4933490000000  0.4442590000000  0.6086370000000 1.0
C      1  0.4856930000000  0.6488250000000  0.4542030000000 1.0
C      1  0.5014750000000  0.5481710000000  0.5640230000000 1.0
C      1  0.4880720000000  0.5045160000000  0.6194520000000 1.0
C      1  0.4994210000000  0.3680770000000  0.5482460000000 1.0
C      1  0.5149780000000  0.5259170000000  0.5002300000000 1.0
C      1  0.4955650000000  0.4817470000000  0.5953300000000 1.0
C      1  0.4981410000000  0.5190610000000  0.4346630000000 1.0
C      1  0.5148070000000  0.4032000000000  0.5203700000000 1.0
C      1  0.5083830000000  0.3726410000000  0.5221970000000 1.0
C      1  0.4969940000000  0.4574800000000  0.4607090000000 1.0
C      1  0.4964470000000  0.5755090000000  0.3958130000000 1.0
C      1  0.4924210000000  0.6237380000000  0.4506650000000 1.0
C      1  0.5056240000000  0.3604310000000  0.4964720000000 1.0
C      1  0.4908680000000  0.4709890000000  0.6272410000000 1.0
C      1  0.4979730000000  0.4627370000000  0.3970040000000 1.0
C      1  0.4953080000000  0.5125590000000  0.5809550000000 1.0
C      1  0.4973530000000  0.4418040000000  0.5343030000000 1.0
C      1  0.4948830000000  0.5352550000000  0.6066090000000 1.0
C      1  0.4947580000000  0.4215660000000  0.5607860000000 1.0
C      1  0.4995640000000  0.4595030000000  0.5717200000000 1.0
C      1  0.5029000000000  0.4941390000000  0.4212680000000 1.0
C      1  0.5058330000000  0.5688390000000  0.5434210000000 1.0
C      1  0.4947610000000  0.4483190000000  0.4276620000000 1.0
C      1  0.4969070000000  0.5832800000000  0.4244740000000 1.0
C      1  0.4977900000000  0.4054670000000  0.4544470000000 1.0
C      1  0.4987780000000  0.4891760000000  0.5551240000000 1.0
C      1  0.4984890000000  0.4298940000000  0.4780960000000 1.0
C      1  0.4967920000000  0.4813380000000  0.4849440000000 1.0
C      1  0.5157130000000  0.4029850000000  0.4897350000000 1.0
C      1  0.4899750000000  0.5259370000000  0.3751560000000 1.0
C      1  0.5111620000000  0.6054000000000  0.5284370000000 1.0
C      1  0.4910390000000  0.3903490000000  0.5614050000000 1.0
C      1  0.4823840000000  0.5274470000000  0.3489040000000 1.0
C      1  0.5117050000000  0.5835240000000  0.5068530000000 1.0
C      1  0.4978710000000  0.5653610000000  0.5907430000000 1.0
C      1  0.4968450000000  0.5968530000000  0.4472090000000 1.0
C      1  0.4939960000000  0.4743880000000  0.5248820000000 1.0
C      1  0.5012060000000  0.5523160000000  0.5166670000000 1.0
C      1  0.4980200000000  0.5449140000000  0.4776680000000 1.0
C      1  0.5069200000000  0.5067710000000  0.5271680000000 1.0
C      1  0.5051480000000  0.5959940000000  0.5778750000000 1.0
END
