TITL C-2622968-4806-569 0.00641345871485507 125000 -595.649450538341 0 0 108 (C1) n - 1
REM
REM in /nfs/bkarasulu/CARBON/AIRSS/Generating-Clusters/AIREBO/with-SteepDescent/Higher-Symm/SD-CG/HFTN-CG
REM
REM
REM
REM
REM
REM ./C.cell (b20cbc046b6831c77cfcea5457e17084)
REM
REM compiler GCC version 9.2.1 20190827 (Red Hat 9.2.1-1)
REM options -cpp -mtune=generic -march=x86-64 -g -O0 -fpre-include=/usr/include/finclude/math-vector-fortran.h
REM seed -1475466878 -1695451898 521728701 1237281945 -2097420125 1247373550 382354134 1138497950 2135659391 -1125544248 -838338355 938233998 -754721764 1874393787 -1608249933 -212461757 1815510836 1979190223 -531313597 -1780465009 -492896236 496460016 -1576675899 -1039040198 1114958085 1457676486 -2096423249 -208015543 -1431063347 1043120152 -160843411 -1712624390 -580262506
REM
CELL 1.54180   50.00000   50.00000   50.00000   90.00000   90.00000   90.00000
LATT -1
SFAC C  
C      1  0.4833260000000  0.5490730000000  0.5609640000000 1.0
C      1  0.5703550000000  0.5205790000000  0.5658990000000 1.0
C      1  0.5197780000000  0.4463710000000  0.5662760000000 1.0
C      1  0.4422790000000  0.4858920000000  0.5599940000000 1.0
C      1  0.4910420000000  0.4470400000000  0.4471500000000 1.0
C      1  0.5523390000000  0.4813090000000  0.4299070000000 1.0
C      1  0.5147090000000  0.5487260000000  0.4391440000000 1.0
C      1  0.4632710000000  0.5236760000000  0.4302300000000 1.0
C      1  0.5395510000000  0.5649290000000  0.5599610000000 1.0
C      1  0.5675870000000  0.4638490000000  0.5514160000000 1.0
C      1  0.4668820000000  0.4413150000000  0.5478780000000 1.0
C      1  0.4297830000000  0.5368400000000  0.5472340000000 1.0
C      1  0.5364890000000  0.4311060000000  0.4456230000000 1.0
C      1  0.5620020000000  0.5386870000000  0.4416110000000 1.0
C      1  0.4712750000000  0.5714130000000  0.4503940000000 1.0
C      1  0.4374720000000  0.4488260000000  0.4481240000000 1.0
C      1  0.4644660000000  0.4429460000000  0.4630910000000 1.0
C      1  0.4533720000000  0.5451260000000  0.4506270000000 1.0
C      1  0.5384630000000  0.5529580000000  0.4569960000000 1.0
C      1  0.5546400000000  0.4591940000000  0.4511250000000 1.0
C      1  0.4573930000000  0.5535230000000  0.5423940000000 1.0
C      1  0.4552500000000  0.4674220000000  0.5361220000000 1.0
C      1  0.5409790000000  0.4504350000000  0.5410220000000 1.0
C      1  0.5577910000000  0.5417160000000  0.5461110000000 1.0
C      1  0.5837900000000  0.5681360000000  0.4898260000000 1.0
C      1  0.5701540000000  0.4194360000000  0.4960120000000 1.0
C      1  0.4165060000000  0.4322770000000  0.5105090000000 1.0
C      1  0.4345810000000  0.5967100000000  0.4985940000000 1.0
C      1  0.5839000000000  0.4384390000000  0.5052390000000 1.0
C      1  0.5696340000000  0.5850770000000  0.5022100000000 1.0
C      1  0.4171090000000  0.5765460000000  0.4924480000000 1.0
C      1  0.4315450000000  0.4095720000000  0.5108550000000 1.0
C      1  0.4528240000000  0.4688590000000  0.4813730000000 1.0
C      1  0.4704630000000  0.5445340000000  0.4800210000000 1.0
C      1  0.5395260000000  0.5343280000000  0.4840090000000 1.0
C      1  0.5347830000000  0.4536380000000  0.4781630000000 1.0
C      1  0.4526880000000  0.5352970000000  0.5145260000000 1.0
C      1  0.4850420000000  0.4632900000000  0.5199260000000 1.0
C      1  0.5379140000000  0.4704260000000  0.5140540000000 1.0
C      1  0.5323250000000  0.5485080000000  0.5246060000000 1.0
C      1  0.4693360000000  0.5076240000000  0.5917450000000 1.0
C      1  0.4900670000000  0.5189630000000  0.5679970000000 1.0
C      1  0.5328460000000  0.4778410000000  0.5686840000000 1.0
C      1  0.4719850000000  0.4824330000000  0.5690970000000 1.0
C      1  0.4553270000000  0.4965680000000  0.4438110000000 1.0
C      1  0.5045640000000  0.4742960000000  0.4387880000000 1.0
C      1  0.5108840000000  0.5171960000000  0.4387290000000 1.0
C      1  0.4885390000000  0.5204140000000  0.4174270000000 1.0
C      1  0.4753650000000  0.5838360000000  0.4759390000000 1.0
C      1  0.5778840000000  0.5194780000000  0.4637730000000 1.0
C      1  0.5254570000000  0.3995080000000  0.4795110000000 1.0
C      1  0.4144440000000  0.4597990000000  0.4679060000000 1.0
C      1  0.4777920000000  0.4135750000000  0.5332310000000 1.0
C      1  0.5790520000000  0.4856070000000  0.5279150000000 1.0
C      1  0.5296170000000  0.5862340000000  0.5371880000000 1.0
C      1  0.4138070000000  0.5344140000000  0.5230410000000 1.0
C      1  0.4899020000000  0.4852330000000  0.5446510000000 1.0
C      1  0.4935320000000  0.5173990000000  0.5342000000000 1.0
C      1  0.5266390000000  0.5163580000000  0.5265130000000 1.0
C      1  0.5208920000000  0.4926440000000  0.5489900000000 1.0
C      1  0.4693600000000  0.5133410000000  0.4683850000000 1.0
C      1  0.4826810000000  0.4840140000000  0.4596500000000 1.0
C      1  0.5259270000000  0.4929960000000  0.4575080000000 1.0
C      1  0.4991060000000  0.5202570000000  0.4672110000000 1.0
C      1  0.5644380000000  0.5052450000000  0.4359740000000 1.0
C      1  0.5114590000000  0.4292120000000  0.4567520000000 1.0
C      1  0.4296130000000  0.4814060000000  0.4479130000000 1.0
C      1  0.4949500000000  0.5666160000000  0.4353760000000 1.0
C      1  0.5752460000000  0.4951940000000  0.5590520000000 1.0
C      1  0.5068270000000  0.5644780000000  0.5507440000000 1.0
C      1  0.4357290000000  0.5106790000000  0.5544140000000 1.0
C      1  0.4957240000000  0.4310020000000  0.5569990000000 1.0
C      1  0.5269960000000  0.4817190000000  0.4182220000000 1.0
C      1  0.4857750000000  0.5195300000000  0.3690880000000 1.0
C      1  0.4964600000000  0.5113240000000  0.3923320000000 1.0
C      1  0.5173410000000  0.4922640000000  0.3941480000000 1.0
C      1  0.5067390000000  0.4991140000000  0.5901240000000 1.0
C      1  0.4865980000000  0.4983520000000  0.6175130000000 1.0
C      1  0.4821260000000  0.4710090000000  0.5981880000000 1.0
C      1  0.5135170000000  0.4657880000000  0.5923320000000 1.0
C      1  0.4335380000000  0.5304770000000  0.4720070000000 1.0
C      1  0.5265190000000  0.5718040000000  0.4806580000000 1.0
C      1  0.5678170000000  0.4751390000000  0.4756370000000 1.0
C      1  0.4703900000000  0.4199390000000  0.4841010000000 1.0
C      1  0.4342530000000  0.4798060000000  0.5167550000000 1.0
C      1  0.5277240000000  0.4321080000000  0.5192490000000 1.0
C      1  0.5669200000000  0.5298940000000  0.5174840000000 1.0
C      1  0.4717470000000  0.5743050000000  0.5218450000000 1.0
C      1  0.4267290000000  0.5477240000000  0.4963600000000 1.0
C      1  0.5404510000000  0.5770670000000  0.5078470000000 1.0
C      1  0.5700460000000  0.4654520000000  0.5040930000000 1.0
C      1  0.4592360000000  0.4099210000000  0.5079540000000 1.0
C      1  0.4243280000000  0.4584980000000  0.4968240000000 1.0
C      1  0.5402850000000  0.4260430000000  0.4923950000000 1.0
C      1  0.5727140000000  0.5398430000000  0.4889530000000 1.0
C      1  0.4616310000000  0.5895730000000  0.5003990000000 1.0
C      1  0.4969810000000  0.4348910000000  0.5172790000000 1.0
C      1  0.4309670000000  0.5097950000000  0.5078600000000 1.0
C      1  0.5026300000000  0.5641190000000  0.5179430000000 1.0
C      1  0.5530620000000  0.5007830000000  0.5118220000000 1.0
C      1  0.4975720000000  0.5638870000000  0.4869780000000 1.0
C      1  0.4341710000000  0.4971850000000  0.4776860000000 1.0
C      1  0.5011210000000  0.4214370000000  0.4862790000000 1.0
C      1  0.5515270000000  0.5031030000000  0.4779160000000 1.0
C      1  0.5140860000000  0.5146230000000  0.4950260000000 1.0
C      1  0.5182590000000  0.4814850000000  0.4885800000000 1.0
C      1  0.4825850000000  0.5256720000000  0.5055850000000 1.0
C      1  0.4848880000000  0.4744450000000  0.4913440000000 1.0
END
