TITL C-2622958-629-530 0.00273851491853034 125000 -324.400635814094 0 0 57 (C1) n - 1
REM
REM in /nfs/bkarasulu/CARBON/AIRSS/Generating-Clusters/AIREBO/with-SteepDescent/Higher-Symm/SD-CG/HFTN-CG
REM
REM
REM
REM
REM
REM ./C.cell (b20cbc046b6831c77cfcea5457e17084)
REM
REM compiler GCC version 9.2.1 20190827 (Red Hat 9.2.1-1)
REM options -cpp -mtune=generic -march=x86-64 -g -O0 -fpre-include=/usr/include/finclude/math-vector-fortran.h
REM seed -1707026779 -2058772676 -1488944906 -536503949 736587965 -1767048012 2047730319 1911876293 -2106484107 -1393291810 2044354184 418286557 -1904236890 -1212301871 1285622287 1040166174 936253167 542526440 -1937505042 1524936705 119726586 1753980179 -11854305 -76352515 1945349167 1717821329 16045916 1162147175 314880996 -1527878132 -214005757 660294959 -1703594059
REM
CELL 1.54180   50.00000   50.00000   50.00000   90.00000   90.00000   90.00000
LATT -1
SFAC C  
C      1  0.4482050000000  0.5553950000000  0.4988150000000 1.0
C      1  0.4520860000000  0.4718830000000  0.4548000000000 1.0
C      1  0.4472180000000  0.4737690000000  0.5475260000000 1.0
C      1  0.5466500000000  0.5482110000000  0.4958060000000 1.0
C      1  0.5518960000000  0.4724250000000  0.4544990000000 1.0
C      1  0.5483390000000  0.4747910000000  0.5472820000000 1.0
C      1  0.4486990000000  0.4457100000000  0.4994070000000 1.0
C      1  0.4486970000000  0.5283600000000  0.4526860000000 1.0
C      1  0.4523680000000  0.5254960000000  0.5471440000000 1.0
C      1  0.5471730000000  0.4525660000000  0.4950040000000 1.0
C      1  0.5430660000000  0.5271460000000  0.4620620000000 1.0
C      1  0.5531040000000  0.5276640000000  0.5468880000000 1.0
C      1  0.5194680000000  0.5097140000000  0.4718160000000 1.0
C      1  0.5213540000000  0.4692830000000  0.5040880000000 1.0
C      1  0.5295490000000  0.5153880000000  0.5254700000000 1.0
C      1  0.4704590000000  0.5154340000000  0.4748360000000 1.0
C      1  0.4714920000000  0.4704100000000  0.5006700000000 1.0
C      1  0.4700690000000  0.5142670000000  0.5234270000000 1.0
C      1  0.5270700000000  0.4813910000000  0.4761040000000 1.0
C      1  0.5210470000000  0.5276950000000  0.4986800000000 1.0
C      1  0.5301850000000  0.4869170000000  0.5249740000000 1.0
C      1  0.4698700000000  0.4866510000000  0.4763510000000 1.0
C      1  0.4711120000000  0.5306640000000  0.4999460000000 1.0
C      1  0.4703120000000  0.4851200000000  0.5253220000000 1.0
C      1  0.5693250000000  0.4710990000000  0.4988320000000 1.0
C      1  0.5697590000000  0.5150250000000  0.5245190000000 1.0
C      1  0.5668350000000  0.5164500000000  0.4746320000000 1.0
C      1  0.4311790000000  0.4714960000000  0.4998900000000 1.0
C      1  0.4303310000000  0.5151900000000  0.5252460000000 1.0
C      1  0.4305380000000  0.5148500000000  0.4745240000000 1.0
C      1  0.5705080000000  0.5308610000000  0.5003960000000 1.0
C      1  0.5699480000000  0.4856020000000  0.5246760000000 1.0
C      1  0.5698440000000  0.4875020000000  0.4742690000000 1.0
C      1  0.4311570000000  0.5293190000000  0.4997630000000 1.0
C      1  0.4303550000000  0.4860110000000  0.5247450000000 1.0
C      1  0.4301510000000  0.4855250000000  0.4743340000000 1.0
C      1  0.4809270000000  0.5618230000000  0.4916430000000 1.0
C      1  0.4801630000000  0.4616410000000  0.4471330000000 1.0
C      1  0.4805690000000  0.4747120000000  0.5542260000000 1.0
C      1  0.5204500000000  0.5662150000000  0.4902720000000 1.0
C      1  0.5198200000000  0.4619030000000  0.4504420000000 1.0
C      1  0.5196630000000  0.4720170000000  0.5602180000000 1.0
C      1  0.4817380000000  0.4395720000000  0.4936460000000 1.0
C      1  0.4821110000000  0.5352030000000  0.4505330000000 1.0
C      1  0.4810120000000  0.5271310000000  0.5592780000000 1.0
C      1  0.5207140000000  0.4321910000000  0.4902640000000 1.0
C      1  0.5326250000000  0.5519070000000  0.4551310000000 1.0
C      1  0.5204220000000  0.5251470000000  0.5554570000000 1.0
C      1  0.4990610000000  0.5470820000000  0.5437260000000 1.0
C      1  0.5011100000000  0.4507240000000  0.5464440000000 1.0
C      1  0.5039260000000  0.4460590000000  0.5170180000000 1.0
C      1  0.4997290000000  0.5089880000000  0.4486870000000 1.0
C      1  0.5021890000000  0.5510740000000  0.5146360000000 1.0
C      1  0.4984480000000  0.4834570000000  0.4369450000000 1.0
C      1  0.5003600000000  0.4996980000000  0.5657640000000 1.0
C      1  0.5004200000000  0.5584340000000  0.4638900000000 1.0
C      1  0.4989560000000  0.4397390000000  0.4652210000000 1.0
END
