TITL C-2622957-9142-130 -0.000195450248043123 125000 -1019.47841472645 0 0 195 (C1) n - 1
REM
REM in /nfs/bkarasulu/CARBON/AIRSS/Generating-Clusters/AIREBO/with-SteepDescent/Higher-Symm/SD-CG/HFTN-CG
REM
REM
REM
REM
REM
REM ./C.cell (b20cbc046b6831c77cfcea5457e17084)
REM
REM compiler GCC version 9.2.1 20190827 (Red Hat 9.2.1-1)
REM options -cpp -mtune=generic -march=x86-64 -g -O0 -fpre-include=/usr/include/finclude/math-vector-fortran.h
REM seed 895300008 -317739670 382754540 711541726 1052722550 888646283 -467467948 1795120994 2109500718 -1990104776 1651238030 -1237299674 1568790737 -389445890 -883889204 903726175 980467532 -460043777 241144048 1386875463 -511466823 2065323615 -1220531690 -535679460 1322566628 2034756178 1917954596 -1861947539 -1003578306 -72638605 358099687 2032615727 -1739828069
REM
CELL 1.54180   50.00000   50.00000   50.00000   90.00000   90.00000   90.00000
LATT -1
SFAC C  
C      1  0.5399150000000  0.5124630000000  0.5124730000000 1.0
C      1  0.5441860000000  0.4939010000000  0.4842020000000 1.0
C      1  0.4657400000000  0.5080470000000  0.4866200000000 1.0
C      1  0.4753580000000  0.4922960000000  0.5151780000000 1.0
C      1  0.3983370000000  0.4481260000000  0.4945700000000 1.0
C      1  0.3926020000000  0.5504470000000  0.5001000000000 1.0
C      1  0.6040120000000  0.4420380000000  0.4942900000000 1.0
C      1  0.6063240000000  0.5499250000000  0.5017810000000 1.0
C      1  0.4307120000000  0.4364950000000  0.4400900000000 1.0
C      1  0.4258860000000  0.5597120000000  0.5579680000000 1.0
C      1  0.5818560000000  0.4356490000000  0.5619740000000 1.0
C      1  0.5781640000000  0.5660770000000  0.4388130000000 1.0
C      1  0.5759180000000  0.5353840000000  0.4533050000000 1.0
C      1  0.5735980000000  0.4520580000000  0.5357110000000 1.0
C      1  0.4374300000000  0.5373370000000  0.5382520000000 1.0
C      1  0.4422560000000  0.4662540000000  0.4512480000000 1.0
C      1  0.4986390000000  0.5876380000000  0.4667760000000 1.0
C      1  0.4966340000000  0.4136610000000  0.5237590000000 1.0
C      1  0.5002220000000  0.5918780000000  0.5268890000000 1.0
C      1  0.5014710000000  0.4100910000000  0.4672750000000 1.0
C      1  0.4942310000000  0.4135110000000  0.5771350000000 1.0
C      1  0.5089370000000  0.5864010000000  0.4148560000000 1.0
C      1  0.4976790000000  0.4139040000000  0.4172220000000 1.0
C      1  0.4936530000000  0.5893570000000  0.5788380000000 1.0
C      1  0.5086460000000  0.4674090000000  0.3883240000000 1.0
C      1  0.5105390000000  0.5258100000000  0.6020740000000 1.0
C      1  0.4851500000000  0.4761130000000  0.6026260000000 1.0
C      1  0.4730200000000  0.5260470000000  0.3944290000000 1.0
C      1  0.6030000000000  0.4416570000000  0.4665160000000 1.0
C      1  0.6014880000000  0.5552010000000  0.5286210000000 1.0
C      1  0.3995120000000  0.4448360000000  0.5248920000000 1.0
C      1  0.3980840000000  0.5555100000000  0.4731530000000 1.0
C      1  0.5813520000000  0.4645930000000  0.4537800000000 1.0
C      1  0.5851230000000  0.5293350000000  0.5434280000000 1.0
C      1  0.4188700000000  0.4628790000000  0.5462730000000 1.0
C      1  0.4201070000000  0.5328810000000  0.4605030000000 1.0
C      1  0.4148850000000  0.4434440000000  0.4693730000000 1.0
C      1  0.4180430000000  0.5572390000000  0.5188270000000 1.0
C      1  0.5746630000000  0.4353350000000  0.5087840000000 1.0
C      1  0.5838820000000  0.5563000000000  0.4789220000000 1.0
C      1  0.4477000000000  0.5713410000000  0.5199450000000 1.0
C      1  0.4439070000000  0.4286520000000  0.4766960000000 1.0
C      1  0.5584350000000  0.5748530000000  0.4904430000000 1.0
C      1  0.5472970000000  0.4236150000000  0.5259090000000 1.0
C      1  0.5476710000000  0.4696840000000  0.5225300000000 1.0
C      1  0.5486930000000  0.5319320000000  0.4737840000000 1.0
C      1  0.4662700000000  0.4702890000000  0.4742500000000 1.0
C      1  0.4645060000000  0.5319630000000  0.5212120000000 1.0
C      1  0.5483430000000  0.5565350000000  0.5168900000000 1.0
C      1  0.5347260000000  0.4462110000000  0.5038270000000 1.0
C      1  0.4665440000000  0.5557690000000  0.4973620000000 1.0
C      1  0.4621010000000  0.4464770000000  0.4981630000000 1.0
C      1  0.5033650000000  0.4404420000000  0.4172190000000 1.0
C      1  0.5071080000000  0.5627970000000  0.5750410000000 1.0
C      1  0.4894040000000  0.4395800000000  0.5870280000000 1.0
C      1  0.5004190000000  0.5610140000000  0.4063210000000 1.0
C      1  0.4738470000000  0.4847720000000  0.4235680000000 1.0
C      1  0.4696580000000  0.5192940000000  0.5739990000000 1.0
C      1  0.5318480000000  0.4738570000000  0.5726520000000 1.0
C      1  0.5371960000000  0.5354580000000  0.4251030000000 1.0
C      1  0.5531630000000  0.4922200000000  0.5549860000000 1.0
C      1  0.5365360000000  0.5068990000000  0.4436490000000 1.0
C      1  0.4512960000000  0.4950090000000  0.4405080000000 1.0
C      1  0.4467690000000  0.5091700000000  0.5548610000000 1.0
C      1  0.4970000000000  0.5633070000000  0.5099010000000 1.0
C      1  0.4891860000000  0.4379260000000  0.4794700000000 1.0
C      1  0.5112380000000  0.5609820000000  0.4820170000000 1.0
C      1  0.5018640000000  0.4404670000000  0.5086150000000 1.0
C      1  0.4825040000000  0.5326710000000  0.4812480000000 1.0
C      1  0.4817120000000  0.4636890000000  0.5200510000000 1.0
C      1  0.5209270000000  0.5405930000000  0.5149530000000 1.0
C      1  0.5236280000000  0.4691110000000  0.4828990000000 1.0
C      1  0.4836530000000  0.5440930000000  0.5608090000000 1.0
C      1  0.4886160000000  0.4606310000000  0.4360660000000 1.0
C      1  0.5075000000000  0.5405480000000  0.4240870000000 1.0
C      1  0.5112420000000  0.4511040000000  0.5648370000000 1.0
C      1  0.4654680000000  0.6146120000000  0.5006540000000 1.0
C      1  0.4633800000000  0.3857570000000  0.4932930000000 1.0
C      1  0.5241500000000  0.6133960000000  0.4834720000000 1.0
C      1  0.5192400000000  0.3835330000000  0.5103430000000 1.0
C      1  0.4637500000000  0.4350170000000  0.4182570000000 1.0
C      1  0.4387250000000  0.5561900000000  0.5954290000000 1.0
C      1  0.5593220000000  0.4434570000000  0.6003410000000 1.0
C      1  0.5457770000000  0.5585470000000  0.4412290000000 1.0
C      1  0.4161560000000  0.5488680000000  0.4307550000000 1.0
C      1  0.4197720000000  0.4496430000000  0.5775800000000 1.0
C      1  0.5730190000000  0.5443950000000  0.5704560000000 1.0
C      1  0.5732160000000  0.4374530000000  0.4353130000000 1.0
C      1  0.4206830000000  0.4926460000000  0.4260190000000 1.0
C      1  0.4215030000000  0.5064830000000  0.5773500000000 1.0
C      1  0.5742560000000  0.4916880000000  0.5805870000000 1.0
C      1  0.5675050000000  0.5103030000000  0.4318920000000 1.0
C      1  0.5510580000000  0.5737460000000  0.5431790000000 1.0
C      1  0.5504800000000  0.4318460000000  0.4774980000000 1.0
C      1  0.4452520000000  0.5618970000000  0.4715630000000 1.0
C      1  0.4431490000000  0.4321180000000  0.5387270000000 1.0
C      1  0.4735230000000  0.5996880000000  0.4472760000000 1.0
C      1  0.4723350000000  0.3952500000000  0.5493220000000 1.0
C      1  0.5321290000000  0.6035750000000  0.5254990000000 1.0
C      1  0.5326330000000  0.3979820000000  0.4610650000000 1.0
C      1  0.5586890000000  0.4291500000000  0.5759790000000 1.0
C      1  0.5564340000000  0.5906230000000  0.4386330000000 1.0
C      1  0.4505770000000  0.4115380000000  0.4390260000000 1.0
C      1  0.4512340000000  0.5774930000000  0.5720280000000 1.0
C      1  0.4394430000000  0.4900700000000  0.4809660000000 1.0
C      1  0.4467000000000  0.5026660000000  0.5214850000000 1.0
C      1  0.5730530000000  0.4897980000000  0.5297330000000 1.0
C      1  0.5731470000000  0.5082940000000  0.4736960000000 1.0
C      1  0.5871500000000  0.5142140000000  0.5130210000000 1.0
C      1  0.5872920000000  0.4870070000000  0.4926230000000 1.0
C      1  0.4159680000000  0.5090940000000  0.4922570000000 1.0
C      1  0.4213690000000  0.4874340000000  0.5152620000000 1.0
C      1  0.5993530000000  0.5092060000000  0.5657660000000 1.0
C      1  0.5913190000000  0.4898610000000  0.4374340000000 1.0
C      1  0.4008880000000  0.5087040000000  0.4485220000000 1.0
C      1  0.4013030000000  0.4889230000000  0.5563820000000 1.0
C      1  0.5317930000000  0.5402970000000  0.5534130000000 1.0
C      1  0.5305450000000  0.4574800000000  0.4407120000000 1.0
C      1  0.4723510000000  0.5388290000000  0.4430530000000 1.0
C      1  0.4798000000000  0.4592520000000  0.5537200000000 1.0
C      1  0.5887880000000  0.4667940000000  0.5625430000000 1.0
C      1  0.6091420000000  0.5300660000000  0.4483450000000 1.0
C      1  0.4102580000000  0.4637050000000  0.4414020000000 1.0
C      1  0.4084020000000  0.5355730000000  0.5655300000000 1.0
C      1  0.5473840000000  0.4996560000000  0.4063750000000 1.0
C      1  0.5573220000000  0.5208680000000  0.5849670000000 1.0
C      1  0.4346130000000  0.4763150000000  0.5872590000000 1.0
C      1  0.4293150000000  0.5248940000000  0.4194520000000 1.0
C      1  0.5520900000000  0.5218170000000  0.5404210000000 1.0
C      1  0.5501280000000  0.4780150000000  0.4547140000000 1.0
C      1  0.4516490000000  0.5199900000000  0.4580350000000 1.0
C      1  0.4501290000000  0.4756010000000  0.5505390000000 1.0
C      1  0.4595660000000  0.4771320000000  0.3871440000000 1.0
C      1  0.4671330000000  0.5308440000000  0.6243640000000 1.0
C      1  0.5311830000000  0.4810950000000  0.6058700000000 1.0
C      1  0.5539200000000  0.5134150000000  0.3818710000000 1.0
C      1  0.5155840000000  0.5295250000000  0.4740260000000 1.0
C      1  0.5193840000000  0.4866390000000  0.5205140000000 1.0
C      1  0.4958060000000  0.5186850000000  0.5216980000000 1.0
C      1  0.4947290000000  0.4813330000000  0.4729580000000 1.0
C      1  0.5225640000000  0.5910500000000  0.4426200000000 1.0
C      1  0.5083130000000  0.4126450000000  0.5538210000000 1.0
C      1  0.4782000000000  0.5933680000000  0.5532630000000 1.0
C      1  0.4837940000000  0.4045200000000  0.4408680000000 1.0
C      1  0.4474550000000  0.6012420000000  0.5117140000000 1.0
C      1  0.4439940000000  0.4005230000000  0.4869790000000 1.0
C      1  0.5433030000000  0.6022180000000  0.5000680000000 1.0
C      1  0.5400760000000  0.3949810000000  0.5171940000000 1.0
C      1  0.4727320000000  0.4275720000000  0.5435490000000 1.0
C      1  0.4733700000000  0.5669940000000  0.4571310000000 1.0
C      1  0.5256600000000  0.4314070000000  0.4564350000000 1.0
C      1  0.5196040000000  0.5710350000000  0.5455000000000 1.0
C      1  0.6106300000000  0.4676970000000  0.5023070000000 1.0
C      1  0.6171250000000  0.5229270000000  0.4995210000000 1.0
C      1  0.3951110000000  0.4760660000000  0.5003730000000 1.0
C      1  0.3884370000000  0.5229340000000  0.5026080000000 1.0
C      1  0.4831980000000  0.5240920000000  0.6032460000000 1.0
C      1  0.4843000000000  0.4644110000000  0.3751840000000 1.0
C      1  0.4856400000000  0.5494450000000  0.3853590000000 1.0
C      1  0.5063520000000  0.4749920000000  0.6190190000000 1.0
C      1  0.4302070000000  0.5399160000000  0.4922150000000 1.0
C      1  0.4367210000000  0.4572070000000  0.5178740000000 1.0
C      1  0.5683480000000  0.5375470000000  0.5004890000000 1.0
C      1  0.5692380000000  0.4591770000000  0.4851050000000 1.0
C      1  0.4988110000000  0.5195770000000  0.4461680000000 1.0
C      1  0.4994640000000  0.4863130000000  0.5475520000000 1.0
C      1  0.5057080000000  0.5190630000000  0.5542340000000 1.0
C      1  0.5087890000000  0.4872530000000  0.4425560000000 1.0
C      1  0.3753820000000  0.5045530000000  0.4513730000000 1.0
C      1  0.3752540000000  0.4900160000000  0.5568700000000 1.0
C      1  0.6247590000000  0.5064490000000  0.5704310000000 1.0
C      1  0.6143210000000  0.5041650000000  0.4401200000000 1.0
C      1  0.5660880000000  0.5697450000000  0.5649490000000 1.0
C      1  0.5630990000000  0.4190440000000  0.4503140000000 1.0
C      1  0.4255990000000  0.5705180000000  0.4483230000000 1.0
C      1  0.4267880000000  0.4262180000000  0.5598790000000 1.0
C      1  0.4858610000000  0.4934850000000  0.5776550000000 1.0
C      1  0.4845720000000  0.4983670000000  0.3961020000000 1.0
C      1  0.5154890000000  0.4918580000000  0.4095320000000 1.0
C      1  0.5249010000000  0.5063500000000  0.5792730000000 1.0
C      1  0.5329170000000  0.5444540000000  0.5871730000000 1.0
C      1  0.5292580000000  0.4543330000000  0.4084610000000 1.0
C      1  0.4565910000000  0.5302780000000  0.4165120000000 1.0
C      1  0.4645220000000  0.4604120000000  0.5840940000000 1.0
C      1  0.5589330000000  0.4711400000000  0.6019590000000 1.0
C      1  0.5487760000000  0.5381460000000  0.3957700000000 1.0
C      1  0.4350290000000  0.4814110000000  0.3972790000000 1.0
C      1  0.4316770000000  0.5317890000000  0.5976840000000 1.0
C      1  0.5361850000000  0.5741360000000  0.4687830000000 1.0
C      1  0.5354230000000  0.4288750000000  0.5555710000000 1.0
C      1  0.4650120000000  0.5653250000000  0.5449200000000 1.0
C      1  0.4695840000000  0.4371630000000  0.4516980000000 1.0
C      1  0.4928440000000  0.3942650000000  0.4961170000000 1.0
C      1  0.4944610000000  0.6047940000000  0.4959350000000 1.0
C      1  0.5065700000000  0.5031590000000  0.4934180000000 1.0
END
