TITL C-2622963-3633-558 -0.00241075146711898 125000 -431.45889238746 0 0 80 (C1) n - 1
REM
REM in /nfs/bkarasulu/CARBON/AIRSS/Generating-Clusters/AIREBO/with-SteepDescent/Higher-Symm/SD-CG/HFTN-CG
REM
REM
REM
REM
REM
REM ./C.cell (b20cbc046b6831c77cfcea5457e17084)
REM
REM compiler GCC version 9.2.1 20190827 (Red Hat 9.2.1-1)
REM options -cpp -mtune=generic -march=x86-64 -g -O0 -fpre-include=/usr/include/finclude/math-vector-fortran.h
REM seed 1197068727 -151585069 759642531 1692397180 -1386319581 1541917977 827503262 876725808 -963721160 -1774232537 -608008815 285225581 1165925207 -1261694096 55070493 480305466 590511378 1183004400 1015124938 1717672282 911584219 -1671754129 -568556029 968654248 353728603 657387118 -757113562 -720685203 404930877 1787995739 1932479883 75491892 845575884
REM
CELL 1.54180   50.00000   50.00000   50.00000   90.00000   90.00000   90.00000
LATT -1
SFAC C  
C      1  0.5304800000000  0.5171160000000  0.5108270000000 1.0
C      1  0.4703710000000  0.5240680000000  0.5126350000000 1.0
C      1  0.5057340000000  0.4679420000000  0.5164860000000 1.0
C      1  0.5228240000000  0.5241030000000  0.4808380000000 1.0
C      1  0.4644340000000  0.5133000000000  0.4817670000000 1.0
C      1  0.4909320000000  0.4602030000000  0.4892130000000 1.0
C      1  0.5340080000000  0.4864850000000  0.5128350000000 1.0
C      1  0.4663330000000  0.4903440000000  0.5143480000000 1.0
C      1  0.5015420000000  0.5349340000000  0.5124420000000 1.0
C      1  0.5267840000000  0.4770610000000  0.4838500000000 1.0
C      1  0.4680770000000  0.4794950000000  0.4820620000000 1.0
C      1  0.4898620000000  0.5322830000000  0.4792040000000 1.0
C      1  0.4549870000000  0.5488740000000  0.5394570000000 1.0
C      1  0.4797360000000  0.4300890000000  0.5316470000000 1.0
C      1  0.5603170000000  0.5161920000000  0.5370880000000 1.0
C      1  0.4535610000000  0.5422890000000  0.4543740000000 1.0
C      1  0.4755010000000  0.4388520000000  0.4596660000000 1.0
C      1  0.5585770000000  0.5201200000000  0.4641070000000 1.0
C      1  0.4585400000000  0.4562540000000  0.5374950000000 1.0
C      1  0.4785820000000  0.5717390000000  0.5302370000000 1.0
C      1  0.5638350000000  0.4823840000000  0.5382990000000 1.0
C      1  0.4444740000000  0.4526290000000  0.4648480000000 1.0
C      1  0.4793070000000  0.5639540000000  0.4575910000000 1.0
C      1  0.5691650000000  0.4741010000000  0.4653210000000 1.0
C      1  0.4367850000000  0.4846370000000  0.4734010000000 1.0
C      1  0.5443470000000  0.4538900000000  0.4728960000000 1.0
C      1  0.5066040000000  0.5604170000000  0.4775560000000 1.0
C      1  0.4372390000000  0.4795930000000  0.5249300000000 1.0
C      1  0.5428320000000  0.4580290000000  0.5271250000000 1.0
C      1  0.5070320000000  0.5620450000000  0.5256840000000 1.0
C      1  0.4335110000000  0.5242990000000  0.4743390000000 1.0
C      1  0.5440610000000  0.5475550000000  0.4730110000000 1.0
C      1  0.5071820000000  0.4395810000000  0.4722240000000 1.0
C      1  0.4428100000000  0.5187080000000  0.5297590000000 1.0
C      1  0.5421620000000  0.5431500000000  0.5269080000000 1.0
C      1  0.5081920000000  0.4381750000000  0.5262930000000 1.0
C      1  0.4692860000000  0.4705140000000  0.5642330000000 1.0
C      1  0.5431680000000  0.4733580000000  0.5639380000000 1.0
C      1  0.4991100000000  0.5354610000000  0.5668550000000 1.0
C      1  0.4844260000000  0.4890920000000  0.4367580000000 1.0
C      1  0.5464120000000  0.4762300000000  0.4400050000000 1.0
C      1  0.5020190000000  0.5454770000000  0.4408360000000 1.0
C      1  0.4671810000000  0.5252080000000  0.5606930000000 1.0
C      1  0.5363310000000  0.5227090000000  0.5602630000000 1.0
C      1  0.5032210000000  0.4724970000000  0.5650320000000 1.0
C      1  0.4594160000000  0.5205120000000  0.4330680000000 1.0
C      1  0.5400600000000  0.5083910000000  0.4414770000000 1.0
C      1  0.4940580000000  0.4565110000000  0.4386200000000 1.0
C      1  0.5054460000000  0.4695940000000  0.4093640000000 1.0
C      1  0.5258660000000  0.5146630000000  0.4107580000000 1.0
C      1  0.4769470000000  0.5179020000000  0.4101970000000 1.0
C      1  0.5061590000000  0.4716490000000  0.5989550000000 1.0
C      1  0.5316700000000  0.5127720000000  0.5898520000000 1.0
C      1  0.4777560000000  0.5121500000000  0.5906700000000 1.0
C      1  0.5025070000000  0.5317350000000  0.4117340000000 1.0
C      1  0.5295550000000  0.4837970000000  0.4121080000000 1.0
C      1  0.4817230000000  0.4883990000000  0.4028620000000 1.0
C      1  0.5054040000000  0.5243690000000  0.5980750000000 1.0
C      1  0.5331040000000  0.4842090000000  0.5887660000000 1.0
C      1  0.4775910000000  0.4839690000000  0.5929620000000 1.0
C      1  0.4548180000000  0.4944110000000  0.4476860000000 1.0
C      1  0.4520910000000  0.4954950000000  0.5513180000000 1.0
C      1  0.5274120000000  0.5634710000000  0.4503630000000 1.0
C      1  0.5258990000000  0.4497270000000  0.4457590000000 1.0
C      1  0.5227040000000  0.4505490000000  0.5522040000000 1.0
C      1  0.5224030000000  0.5528360000000  0.5528270000000 1.0
C      1  0.4550040000000  0.5633940000000  0.4813640000000 1.0
C      1  0.4559370000000  0.5639550000000  0.5089730000000 1.0
C      1  0.4560660000000  0.4328990000000  0.4869470000000 1.0
C      1  0.4537220000000  0.4322700000000  0.5138720000000 1.0
C      1  0.5716940000000  0.4992120000000  0.5097590000000 1.0
C      1  0.5713220000000  0.4993330000000  0.4803120000000 1.0
C      1  0.5295660000000  0.4405680000000  0.4999360000000 1.0
C      1  0.5307230000000  0.5615360000000  0.5011140000000 1.0
C      1  0.4310670000000  0.5039130000000  0.5014680000000 1.0
C      1  0.5051650000000  0.4962820000000  0.4724560000000 1.0
C      1  0.4905520000000  0.4969970000000  0.5361360000000 1.0
C      1  0.5078640000000  0.5037690000000  0.5591710000000 1.0
C      1  0.5072880000000  0.5122780000000  0.4460210000000 1.0
C      1  0.4974370000000  0.4969530000000  0.5023030000000 1.0
END
