TITL C-2622954-8726-246 0.00173919868462569 125000 -652.82259687984 0 0 125 (C1) n - 1
REM
REM in /nfs/bkarasulu/CARBON/AIRSS/Generating-Clusters/AIREBO/with-SteepDescent/Higher-Symm/SD-CG/HFTN-CG
REM
REM
REM
REM
REM
REM ./C.cell (b20cbc046b6831c77cfcea5457e17084)
REM
REM compiler GCC version 9.2.1 20190827 (Red Hat 9.2.1-1)
REM options -cpp -mtune=generic -march=x86-64 -g -O0 -fpre-include=/usr/include/finclude/math-vector-fortran.h
REM seed 1524796219 -1995514675 -157438091 -1213399397 -1994448247 1578416249 962984814 -439529817 -1629327061 527243827 922729563 -747527216 -2120195649 296574126 -223908095 571051983 -1522575187 628254239 -767598044 -1022520993 -1814385063 414881333 -234870957 -1398545516 374041115 1884330795 1084445488 1835699422 -1145032461 1441418035 -58199680 -70613356 1093197619
REM
CELL 1.54180   50.00000   50.00000   50.00000   90.00000   90.00000   90.00000
LATT -1
SFAC C  
C      1  0.4698800000000  0.4546070000000  0.4325460000000 1.0
C      1  0.4249410000000  0.4649290000000  0.4461940000000 1.0
C      1  0.4454190000000  0.4191420000000  0.4699480000000 1.0
C      1  0.4694050000000  0.5540320000000  0.5757050000000 1.0
C      1  0.5351050000000  0.5521300000000  0.4211640000000 1.0
C      1  0.5314050000000  0.4528760000000  0.5676800000000 1.0
C      1  0.4364650000000  0.5313330000000  0.5479540000000 1.0
C      1  0.5671460000000  0.5380460000000  0.4556460000000 1.0
C      1  0.5800930000000  0.4658050000000  0.5500270000000 1.0
C      1  0.4534440000000  0.5760930000000  0.5327930000000 1.0
C      1  0.5463570000000  0.5823420000000  0.4696580000000 1.0
C      1  0.5508910000000  0.4209710000000  0.5313660000000 1.0
C      1  0.4734550000000  0.5111460000000  0.4108410000000 1.0
C      1  0.4263310000000  0.4743320000000  0.5146440000000 1.0
C      1  0.5057060000000  0.4133830000000  0.4641610000000 1.0
C      1  0.4759800000000  0.4778430000000  0.5934670000000 1.0
C      1  0.5289490000000  0.4868350000000  0.4204970000000 1.0
C      1  0.5219530000000  0.5233190000000  0.5963130000000 1.0
C      1  0.4156200000000  0.5300080000000  0.4748180000000 1.0
C      1  0.5897880000000  0.5244730000000  0.5073670000000 1.0
C      1  0.5802160000000  0.4691760000000  0.4964730000000 1.0
C      1  0.5057270000000  0.6130340000000  0.5227660000000 1.0
C      1  0.4931510000000  0.5841100000000  0.4739900000000 1.0
C      1  0.4892270000000  0.4100130000000  0.5246460000000 1.0
C      1  0.5263100000000  0.5735790000000  0.5569910000000 1.0
C      1  0.5636460000000  0.5237320000000  0.5662820000000 1.0
C      1  0.5702270000000  0.5588940000000  0.5125950000000 1.0
C      1  0.5169080000000  0.4269970000000  0.4286010000000 1.0
C      1  0.4834910000000  0.4193220000000  0.5631140000000 1.0
C      1  0.4831600000000  0.5721470000000  0.4390980000000 1.0
C      1  0.5684460000000  0.4804910000000  0.4273770000000 1.0
C      1  0.4303230000000  0.4781130000000  0.5681170000000 1.0
C      1  0.4253430000000  0.5147150000000  0.4195830000000 1.0
C      1  0.5754300000000  0.4339810000000  0.4781960000000 1.0
C      1  0.4307900000000  0.4320740000000  0.5237290000000 1.0
C      1  0.4259960000000  0.5682120000000  0.4741080000000 1.0
C      1  0.5270840000000  0.4991690000000  0.5800960000000 1.0
C      1  0.5624190000000  0.5148060000000  0.4898180000000 1.0
C      1  0.4925040000000  0.5694200000000  0.5362090000000 1.0
C      1  0.5325970000000  0.5077720000000  0.4465670000000 1.0
C      1  0.4707720000000  0.5059450000000  0.5784590000000 1.0
C      1  0.4696060000000  0.4937340000000  0.4396470000000 1.0
C      1  0.5560340000000  0.4683800000000  0.5195400000000 1.0
C      1  0.4369050000000  0.4697710000000  0.4841180000000 1.0
C      1  0.4349130000000  0.5382130000000  0.4998100000000 1.0
C      1  0.4816780000000  0.4370220000000  0.4713450000000 1.0
C      1  0.5072190000000  0.4386550000000  0.5246810000000 1.0
C      1  0.5149130000000  0.5601060000000  0.4647460000000 1.0
C      1  0.5306340000000  0.5110600000000  0.5012970000000 1.0
C      1  0.4997600000000  0.5469140000000  0.5169890000000 1.0
C      1  0.5191490000000  0.5055000000000  0.5517080000000 1.0
C      1  0.5307450000000  0.4768520000000  0.5012200000000 1.0
C      1  0.4644940000000  0.4809790000000  0.4977940000000 1.0
C      1  0.4626090000000  0.5207660000000  0.4985010000000 1.0
C      1  0.5025330000000  0.4564180000000  0.4815750000000 1.0
C      1  0.4996060000000  0.4695900000000  0.5127870000000 1.0
C      1  0.4984160000000  0.5341950000000  0.4658200000000 1.0
C      1  0.5116710000000  0.5058800000000  0.4733050000000 1.0
C      1  0.4859900000000  0.4995230000000  0.5498160000000 1.0
C      1  0.4798820000000  0.4940960000000  0.4704270000000 1.0
C      1  0.5660570000000  0.5043130000000  0.4515210000000 1.0
C      1  0.4415400000000  0.5702610000000  0.5026870000000 1.0
C      1  0.5058210000000  0.4428230000000  0.5564950000000 1.0
C      1  0.5725200000000  0.4985920000000  0.5482560000000 1.0
C      1  0.4374530000000  0.4943420000000  0.4433530000000 1.0
C      1  0.4472690000000  0.5049250000000  0.5573500000000 1.0
C      1  0.4529030000000  0.4224070000000  0.5023710000000 1.0
C      1  0.5541680000000  0.4238680000000  0.4989110000000 1.0
C      1  0.5438890000000  0.5731570000000  0.5023190000000 1.0
C      1  0.5033710000000  0.5547580000000  0.4180000000000 1.0
C      1  0.4960430000000  0.5620030000000  0.5659850000000 1.0
C      1  0.5026660000000  0.4572350000000  0.4320940000000 1.0
C      1  0.4429850000000  0.5428120000000  0.4591820000000 1.0
C      1  0.4694430000000  0.4338030000000  0.5381350000000 1.0
C      1  0.5424210000000  0.4660540000000  0.4438330000000 1.0
C      1  0.4465970000000  0.4589860000000  0.5372350000000 1.0
C      1  0.5673390000000  0.4602790000000  0.4662670000000 1.0
C      1  0.5648000000000  0.5316540000000  0.5272310000000 1.0
C      1  0.4691070000000  0.5612010000000  0.4680740000000 1.0
C      1  0.5436770000000  0.5529460000000  0.5416590000000 1.0
C      1  0.5277820000000  0.4381110000000  0.4565690000000 1.0
C      1  0.5345850000000  0.5372170000000  0.5704110000000 1.0
C      1  0.4515590000000  0.5289150000000  0.4293570000000 1.0
C      1  0.4629720000000  0.4690160000000  0.5653140000000 1.0
C      1  0.4692060000000  0.5872620000000  0.4979330000000 1.0
C      1  0.4999430000000  0.4681420000000  0.6019700000000 1.0
C      1  0.5903730000000  0.4918140000000  0.4732170000000 1.0
C      1  0.4717580000000  0.3942530000000  0.5051840000000 1.0
C      1  0.5280520000000  0.4062880000000  0.4857290000000 1.0
C      1  0.5257050000000  0.6017380000000  0.5083100000000 1.0
C      1  0.4965310000000  0.5266340000000  0.4021000000000 1.0
C      1  0.4979360000000  0.5320850000000  0.6079990000000 1.0
C      1  0.5077860000000  0.4727290000000  0.4026170000000 1.0
C      1  0.5988860000000  0.5053440000000  0.5290030000000 1.0
C      1  0.4019980000000  0.5073550000000  0.4721120000000 1.0
C      1  0.4149990000000  0.4985100000000  0.5204660000000 1.0
C      1  0.4739440000000  0.5317700000000  0.5924350000000 1.0
C      1  0.5948390000000  0.4759400000000  0.5242290000000 1.0
C      1  0.5212610000000  0.5966420000000  0.4795660000000 1.0
C      1  0.4770430000000  0.4784450000000  0.4102130000000 1.0
C      1  0.5245390000000  0.4723050000000  0.5874020000000 1.0
C      1  0.5242950000000  0.5207670000000  0.4181060000000 1.0
C      1  0.5909080000000  0.5257450000000  0.4743800000000 1.0
C      1  0.4224410000000  0.5258020000000  0.5245740000000 1.0
C      1  0.4099280000000  0.4811080000000  0.4690250000000 1.0
C      1  0.5216980000000  0.4105950000000  0.5173550000000 1.0
C      1  0.4754260000000  0.4040250000000  0.4751660000000 1.0
C      1  0.4810400000000  0.5948820000000  0.5260860000000 1.0
C      1  0.4506160000000  0.5113900000000  0.4697150000000 1.0
C      1  0.4724780000000  0.4496010000000  0.5081770000000 1.0
C      1  0.5132930000000  0.4751200000000  0.4588960000000 1.0
C      1  0.4597070000000  0.4896040000000  0.5303540000000 1.0
C      1  0.5508180000000  0.4871210000000  0.4765920000000 1.0
C      1  0.5432350000000  0.5058640000000  0.5324600000000 1.0
C      1  0.4833250000000  0.5429730000000  0.4930490000000 1.0
C      1  0.5298790000000  0.5434190000000  0.5120490000000 1.0
C      1  0.5340200000000  0.4457660000000  0.4871440000000 1.0
C      1  0.5085980000000  0.5356740000000  0.5485140000000 1.0
C      1  0.4826010000000  0.5380070000000  0.4387300000000 1.0
C      1  0.4893990000000  0.4676280000000  0.5453380000000 1.0
C      1  0.5534540000000  0.4483340000000  0.5460910000000 1.0
C      1  0.5450580000000  0.5575330000000  0.4495920000000 1.0
C      1  0.4503180000000  0.5555810000000  0.5537300000000 1.0
C      1  0.4524040000000  0.4505140000000  0.4601260000000 1.0
C      1  0.4893640000000  0.5018500000000  0.5079120000000 1.0
END
