TITL C-2622963-3633-49 -0.00613761923818098 125000 -165.651362470286 0 0 30 (C1) n - 1
REM
REM in /nfs/bkarasulu/CARBON/AIRSS/Generating-Clusters/AIREBO/with-SteepDescent/Higher-Symm/SD-CG/HFTN-CG
REM
REM
REM
REM
REM
REM ./C.cell (b20cbc046b6831c77cfcea5457e17084)
REM
REM compiler GCC version 9.2.1 20190827 (Red Hat 9.2.1-1)
REM options -cpp -mtune=generic -march=x86-64 -g -O0 -fpre-include=/usr/include/finclude/math-vector-fortran.h
REM seed 707903869 1747039811 -451983739 2096986317 -349725918 -1707971394 -2065476283 -762607567 -147662412 1460171953 -2120258983 -878865726 1094657042 1119986296 187919258 1319296841 1437642252 662025318 -1064592402 -462769397 2094852161 -1068685235 -1181216206 -553476399 -2001370526 311222630 -757044863 -1660486630 -1655113585 -479495051 37965859 1560919981 505883466
REM
CELL 1.54180   50.00000   50.00000   50.00000   90.00000   90.00000   90.00000
LATT -1
SFAC C  
C      1  0.5584810000000  0.5278870000000  0.4707820000000 1.0
C      1  0.4497310000000  0.5278330000000  0.5417090000000 1.0
C      1  0.5289740000000  0.4698890000000  0.5256810000000 1.0
C      1  0.4652700000000  0.4559430000000  0.4742750000000 1.0
C      1  0.5383060000000  0.5414990000000  0.5185590000000 1.0
C      1  0.4724480000000  0.5283150000000  0.4820220000000 1.0
C      1  0.5323560000000  0.4649050000000  0.4670650000000 1.0
C      1  0.4522870000000  0.4608300000000  0.5260640000000 1.0
C      1  0.4953210000000  0.4854490000000  0.5656070000000 1.0
C      1  0.5043230000000  0.5247300000000  0.4371410000000 1.0
C      1  0.4923010000000  0.4797430000000  0.4324160000000 1.0
C      1  0.5052280000000  0.5304100000000  0.5565940000000 1.0
C      1  0.4504800000000  0.5547570000000  0.5277150000000 1.0
C      1  0.5648130000000  0.5528450000000  0.4809580000000 1.0
C      1  0.4536620000000  0.4342060000000  0.4868670000000 1.0
C      1  0.5283470000000  0.4465890000000  0.5117000000000 1.0
C      1  0.5323340000000  0.5152930000000  0.5092060000000 1.0
C      1  0.4788580000000  0.5035170000000  0.4721450000000 1.0
C      1  0.5256090000000  0.4917890000000  0.4651920000000 1.0
C      1  0.4647090000000  0.4829170000000  0.5139480000000 1.0
C      1  0.4487010000000  0.4361520000000  0.5140740000000 1.0
C      1  0.5305670000000  0.4440180000000  0.4845040000000 1.0
C      1  0.4680750000000  0.5338560000000  0.5096270000000 1.0
C      1  0.5567100000000  0.5585490000000  0.5068550000000 1.0
C      1  0.4697360000000  0.4812470000000  0.4862090000000 1.0
C      1  0.5214640000000  0.4965090000000  0.5267140000000 1.0
C      1  0.4733480000000  0.5073840000000  0.5287750000000 1.0
C      1  0.5385700000000  0.5107300000000  0.4816280000000 1.0
C      1  0.4988290000000  0.5050150000000  0.5450500000000 1.0
C      1  0.5001620000000  0.5000430000000  0.4509160000000 1.0
END
