TITL C-2622959-7779-269 0.000254874908962558 125000 -386.939141610159 0 0 80 (C1) n - 1
REM
REM in /nfs/bkarasulu/CARBON/AIRSS/Generating-Clusters/AIREBO/with-SteepDescent/Higher-Symm/SD-CG/HFTN-CG
REM
REM
REM
REM
REM
REM ./C.cell (b20cbc046b6831c77cfcea5457e17084)
REM
REM compiler GCC version 9.2.1 20190827 (Red Hat 9.2.1-1)
REM options -cpp -mtune=generic -march=x86-64 -g -O0 -fpre-include=/usr/include/finclude/math-vector-fortran.h
REM seed 1228070179 277157600 1108589099 -1240502415 -1784799077 1208842928 -239318211 -1069428703 9103400 -1460219071 1079960095 -1805483111 965640201 953570046 794817311 -2042243702 1738231183 -1870491890 -1379695142 1327368696 543581938 772254558 1324271848 89888739 344767523 -2091961376 -722644622 111758409 -496591833 1964719613 2089636627 -813392951 714624250
REM
CELL 1.54180   50.00000   50.00000   50.00000   90.00000   90.00000   90.00000
LATT -1
SFAC C  
C      1  0.5092050000000  0.5284540000000  0.4502870000000 1.0
C      1  0.5209480000000  0.5132420000000  0.5514470000000 1.0
C      1  0.5280410000000  0.5009480000000  0.4435910000000 1.0
C      1  0.5206150000000  0.4810670000000  0.5422590000000 1.0
C      1  0.5112850000000  0.4744220000000  0.4532340000000 1.0
C      1  0.4884440000000  0.4722720000000  0.5489340000000 1.0
C      1  0.4799460000000  0.4852800000000  0.4475630000000 1.0
C      1  0.4707890000000  0.5001240000000  0.5572150000000 1.0
C      1  0.4778270000000  0.5174050000000  0.4573880000000 1.0
C      1  0.4899820000000  0.5260580000000  0.5476220000000 1.0
C      1  0.5101280000000  0.5624560000000  0.4507240000000 1.0
C      1  0.5448480000000  0.5376370000000  0.5495240000000 1.0
C      1  0.5612550000000  0.5079470000000  0.4475770000000 1.0
C      1  0.5525990000000  0.4695880000000  0.5437290000000 1.0
C      1  0.5299970000000  0.4462570000000  0.4569390000000 1.0
C      1  0.4874860000000  0.4382720000000  0.5492570000000 1.0
C      1  0.4585390000000  0.4587280000000  0.4474510000000 1.0
C      1  0.4348870000000  0.4928910000000  0.5515100000000 1.0
C      1  0.4451670000000  0.5264730000000  0.4602740000000 1.0
C      1  0.4734360000000  0.5557770000000  0.5477610000000 1.0
C      1  0.4195370000000  0.4684020000000  0.5302150000000 1.0
C      1  0.4288260000000  0.5062430000000  0.4756330000000 1.0
C      1  0.4457340000000  0.5527020000000  0.5374190000000 1.0
C      1  0.4874160000000  0.5763790000000  0.4641690000000 1.0
C      1  0.5433700000000  0.5651470000000  0.5300850000000 1.0
C      1  0.5803900000000  0.5310180000000  0.4638950000000 1.0
C      1  0.5719640000000  0.4899940000000  0.5351360000000 1.0
C      1  0.5546200000000  0.4513230000000  0.4735000000000 1.0
C      1  0.5112730000000  0.4247900000000  0.5372140000000 1.0
C      1  0.4592900000000  0.4314730000000  0.4678060000000 1.0
C      1  0.4474640000000  0.4995650000000  0.5786570000000 1.0
C      1  0.4613070000000  0.5290970000000  0.4300610000000 1.0
C      1  0.4895510000000  0.5447480000000  0.5760280000000 1.0
C      1  0.5098670000000  0.5453460000000  0.4207830000000 1.0
C      1  0.5382760000000  0.5228600000000  0.5772890000000 1.0
C      1  0.5488050000000  0.5013780000000  0.4186670000000 1.0
C      1  0.5323690000000  0.4680530000000  0.5713950000000 1.0
C      1  0.5166630000000  0.4543650000000  0.4263060000000 1.0
C      1  0.4871950000000  0.4560290000000  0.5787830000000 1.0
C      1  0.4649340000000  0.4750550000000  0.4205360000000 1.0
C      1  0.5283790000000  0.5190650000000  0.5093600000000 1.0
C      1  0.5343770000000  0.4936460000000  0.4892970000000 1.0
C      1  0.5180910000000  0.4746460000000  0.5088350000000 1.0
C      1  0.4979640000000  0.4690020000000  0.4840480000000 1.0
C      1  0.4709510000000  0.4773510000000  0.5219160000000 1.0
C      1  0.4711440000000  0.4836580000000  0.4895070000000 1.0
C      1  0.4670490000000  0.5093310000000  0.5109640000000 1.0
C      1  0.4825580000000  0.5270750000000  0.4896500000000 1.0
C      1  0.5013130000000  0.5318240000000  0.5160750000000 1.0
C      1  0.5285570000000  0.5244340000000  0.4767740000000 1.0
C      1  0.4430180000000  0.4804980000000  0.4771500000000 1.0
C      1  0.4422550000000  0.5263590000000  0.5171170000000 1.0
C      1  0.4686260000000  0.5550180000000  0.4827990000000 1.0
C      1  0.5122930000000  0.5623810000000  0.5151490000000 1.0
C      1  0.5508620000000  0.5459110000000  0.4756390000000 1.0
C      1  0.5590020000000  0.5167140000000  0.5185640000000 1.0
C      1  0.5588560000000  0.4798750000000  0.4774590000000 1.0
C      1  0.5305560000000  0.4466760000000  0.5189550000000 1.0
C      1  0.4896070000000  0.4386020000000  0.4834100000000 1.0
C      1  0.4494180000000  0.4550080000000  0.5210440000000 1.0
C      1  0.4139630000000  0.5001570000000  0.5276190000000 1.0
C      1  0.4365880000000  0.5553650000000  0.4713930000000 1.0
C      1  0.4879580000000  0.5783880000000  0.5327020000000 1.0
C      1  0.5359560000000  0.5735900000000  0.4626780000000 1.0
C      1  0.5711900000000  0.5464350000000  0.5297450000000 1.0
C      1  0.5850840000000  0.4987310000000  0.4700140000000 1.0
C      1  0.5617270000000  0.4416380000000  0.5315860000000 1.0
C      1  0.5152490000000  0.4213310000000  0.4692350000000 1.0
C      1  0.4623570000000  0.4272470000000  0.5358210000000 1.0
C      1  0.4318970000000  0.4502590000000  0.4668050000000 1.0
C      1  0.5772770000000  0.4935860000000  0.5016030000000 1.0
C      1  0.5559980000000  0.4379880000000  0.4981270000000 1.0
C      1  0.5117140000000  0.4232290000000  0.5032450000000 1.0
C      1  0.4621990000000  0.4301580000000  0.5016740000000 1.0
C      1  0.4262240000000  0.4606210000000  0.4973080000000 1.0
C      1  0.4192480000000  0.5130300000000  0.5018260000000 1.0
C      1  0.4432520000000  0.5565460000000  0.5050070000000 1.0
C      1  0.4875970000000  0.5782140000000  0.4984020000000 1.0
C      1  0.5397550000000  0.5700310000000  0.4966140000000 1.0
C      1  0.5756150000000  0.5371180000000  0.4970210000000 1.0
END
