TITL C-2622956-4641-136 -0.00305099049383971 125000 -223.019897057372 0 0 38 (C1) n - 1
REM
REM in /nfs/bkarasulu/CARBON/AIRSS/Generating-Clusters/AIREBO/with-SteepDescent/Higher-Symm/SD-CG/HFTN-CG
REM
REM
REM
REM
REM
REM ./C.cell (b20cbc046b6831c77cfcea5457e17084)
REM
REM compiler GCC version 9.2.1 20190827 (Red Hat 9.2.1-1)
REM options -cpp -mtune=generic -march=x86-64 -g -O0 -fpre-include=/usr/include/finclude/math-vector-fortran.h
REM seed -1567174282 -153997586 -1236229988 216820860 901661018 -2037033426 711634535 -2056491646 1453106157 16206009 -2037177289 1183758100 679447263 1846907824 1645643107 60382194 689965469 1849488788 575454582 1358833088 1672474250 1219726839 -675606949 -517355180 1025243952 -1242669985 -1391715021 -2032605532 906434937 883339439 831307570 1657532694 347795692
REM
CELL 1.54180   50.00000   50.00000   50.00000   90.00000   90.00000   90.00000
LATT -1
SFAC C  
C      1  0.5654130000000  0.4856020000000  0.5143380000000 1.0
C      1  0.5300370000000  0.4736950000000  0.4510460000000 1.0
C      1  0.4653070000000  0.4683070000000  0.4546710000000 1.0
C      1  0.4456010000000  0.4663580000000  0.5187390000000 1.0
C      1  0.5039050000000  0.4844960000000  0.5499160000000 1.0
C      1  0.5155750000000  0.4532350000000  0.4719160000000 1.0
C      1  0.4708640000000  0.4636770000000  0.4878950000000 1.0
C      1  0.4778960000000  0.4558200000000  0.5202240000000 1.0
C      1  0.5109060000000  0.4632040000000  0.5229450000000 1.0
C      1  0.5273650000000  0.4582140000000  0.4973390000000 1.0
C      1  0.4523210000000  0.5307430000000  0.5387430000000 1.0
C      1  0.5253720000000  0.5338120000000  0.5534760000000 1.0
C      1  0.5587650000000  0.5278520000000  0.4914490000000 1.0
C      1  0.5113060000000  0.5374910000000  0.4382750000000 1.0
C      1  0.4421380000000  0.5294020000000  0.4819400000000 1.0
C      1  0.4395750000000  0.4615030000000  0.4726790000000 1.0
C      1  0.4610590000000  0.4737640000000  0.5441890000000 1.0
C      1  0.5325850000000  0.4757270000000  0.5459550000000 1.0
C      1  0.5503250000000  0.4753080000000  0.4930580000000 1.0
C      1  0.4977780000000  0.4751850000000  0.4549010000000 1.0
C      1  0.4267990000000  0.5043170000000  0.4961330000000 1.0
C      1  0.4747820000000  0.5211960000000  0.5529530000000 1.0
C      1  0.5459580000000  0.5229200000000  0.5376830000000 1.0
C      1  0.5498070000000  0.5167140000000  0.4674610000000 1.0
C      1  0.4864270000000  0.5286720000000  0.4408590000000 1.0
C      1  0.4684280000000  0.5250760000000  0.4690390000000 1.0
C      1  0.4408840000000  0.5271790000000  0.5141130000000 1.0
C      1  0.4984390000000  0.5359900000000  0.5574730000000 1.0
C      1  0.5578280000000  0.5389490000000  0.5171250000000 1.0
C      1  0.5360620000000  0.5304900000000  0.4472690000000 1.0
C      1  0.5484890000000  0.4884470000000  0.4673910000000 1.0
C      1  0.4757230000000  0.4988450000000  0.4492880000000 1.0
C      1  0.4329850000000  0.4768290000000  0.4968920000000 1.0
C      1  0.4784790000000  0.4931270000000  0.5535630000000 1.0
C      1  0.5512800000000  0.4948600000000  0.5369450000000 1.0
C      1  0.4831650000000  0.4904010000000  0.5009940000000 1.0
C      1  0.4876720000000  0.5127450000000  0.4908250000000 1.0
C      1  0.5674630000000  0.5635490000000  0.5225550000000 1.0
END
