TITL C-2622966-9038-40 -0.00150821732952092 125000 -479.993903809846 0 0 83 (C1) n - 1
REM
REM in /nfs/bkarasulu/CARBON/AIRSS/Generating-Clusters/AIREBO/with-SteepDescent/Higher-Symm/SD-CG/HFTN-CG
REM
REM
REM
REM
REM
REM ./C.cell (b20cbc046b6831c77cfcea5457e17084)
REM
REM compiler GCC version 9.2.1 20190827 (Red Hat 9.2.1-1)
REM options -cpp -mtune=generic -march=x86-64 -g -O0 -fpre-include=/usr/include/finclude/math-vector-fortran.h
REM seed 774773278 1924205413 -800229381 440027503 1848485951 -770139479 846134919 -221780018 964010467 -1508406686 -553286009 -948012606 735884059 -282866208 1219512651 297150725 728788778 -265845506 1111514305 787691364 2018248256 -1057066372 2036870641 1713799632 503409743 -1619404975 -115143081 1640226362 -946577425 -1905551050 19188839 113468384 1654277344
REM
CELL 1.54180   50.00000   50.00000   50.00000   90.00000   90.00000   90.00000
LATT -1
SFAC C  
C      1  0.4342130000000  0.4841690000000  0.4561390000000 1.0
C      1  0.5489850000000  0.4852620000000  0.4262240000000 1.0
C      1  0.5721970000000  0.4906300000000  0.5482020000000 1.0
C      1  0.4494790000000  0.4867920000000  0.5794010000000 1.0
C      1  0.4348000000000  0.5128250000000  0.4524850000000 1.0
C      1  0.5414470000000  0.5142790000000  0.4286710000000 1.0
C      1  0.5666060000000  0.5180540000000  0.5473120000000 1.0
C      1  0.4596840000000  0.5153750000000  0.5746480000000 1.0
C      1  0.5022230000000  0.4843840000000  0.4174160000000 1.0
C      1  0.5789040000000  0.4909060000000  0.4997560000000 1.0
C      1  0.4966430000000  0.4804600000000  0.5709240000000 1.0
C      1  0.4263110000000  0.4899480000000  0.5030640000000 1.0
C      1  0.5084650000000  0.5155040000000  0.4224910000000 1.0
C      1  0.5780640000000  0.5208780000000  0.5013960000000 1.0
C      1  0.4935820000000  0.5129870000000  0.5758450000000 1.0
C      1  0.4224280000000  0.5191290000000  0.4987820000000 1.0
C      1  0.4577050000000  0.4603980000000  0.5466240000000 1.0
C      1  0.4679680000000  0.4362630000000  0.4701350000000 1.0
C      1  0.5254550000000  0.4443710000000  0.4465230000000 1.0
C      1  0.5583260000000  0.4524910000000  0.5305250000000 1.0
C      1  0.4812640000000  0.5580610000000  0.5447090000000 1.0
C      1  0.4559200000000  0.5529990000000  0.4781310000000 1.0
C      1  0.5189630000000  0.5588810000000  0.4513480000000 1.0
C      1  0.5459450000000  0.5580240000000  0.5212150000000 1.0
C      1  0.4676090000000  0.4635420000000  0.4848500000000 1.0
C      1  0.5150960000000  0.4722140000000  0.4614920000000 1.0
C      1  0.5241360000000  0.4550920000000  0.4962600000000 1.0
C      1  0.4983660000000  0.4434800000000  0.5243830000000 1.0
C      1  0.4698210000000  0.5455490000000  0.5063550000000 1.0
C      1  0.4937430000000  0.5457650000000  0.4673880000000 1.0
C      1  0.5323350000000  0.5473930000000  0.4919280000000 1.0
C      1  0.5082320000000  0.5488120000000  0.5307340000000 1.0
C      1  0.4512160000000  0.4394230000000  0.4470380000000 1.0
C      1  0.5579530000000  0.4447690000000  0.4436670000000 1.0
C      1  0.5650990000000  0.4435830000000  0.5598160000000 1.0
C      1  0.4286730000000  0.4487410000000  0.5531210000000 1.0
C      1  0.4564830000000  0.5515270000000  0.4453720000000 1.0
C      1  0.5511300000000  0.5561210000000  0.4504740000000 1.0
C      1  0.5405580000000  0.5535570000000  0.5537980000000 1.0
C      1  0.4498410000000  0.5581320000000  0.5520290000000 1.0
C      1  0.4594970000000  0.4857070000000  0.5249790000000 1.0
C      1  0.4866340000000  0.4807120000000  0.4653770000000 1.0
C      1  0.5347950000000  0.4828610000000  0.4829020000000 1.0
C      1  0.5266280000000  0.4568900000000  0.5287900000000 1.0
C      1  0.4665170000000  0.5145360000000  0.5138340000000 1.0
C      1  0.4903830000000  0.5130110000000  0.4719160000000 1.0
C      1  0.5259860000000  0.5140070000000  0.4900930000000 1.0
C      1  0.5122700000000  0.5181540000000  0.5287480000000 1.0
C      1  0.4944550000000  0.4165260000000  0.5244850000000 1.0
C      1  0.4892440000000  0.4041860000000  0.5002920000000 1.0
C      1  0.4910440000000  0.4212930000000  0.4777640000000 1.0
C      1  0.5158520000000  0.4353740000000  0.4761950000000 1.0
C      1  0.5184500000000  0.5768770000000  0.5144790000000 1.0
C      1  0.4836480000000  0.5760180000000  0.5158980000000 1.0
C      1  0.4820360000000  0.5744430000000  0.4819670000000 1.0
C      1  0.5159860000000  0.5759090000000  0.4805790000000 1.0
C      1  0.5653460000000  0.4827420000000  0.4721670000000 1.0
C      1  0.5259410000000  0.4758920000000  0.5569480000000 1.0
C      1  0.4278560000000  0.4842040000000  0.5347190000000 1.0
C      1  0.4757880000000  0.4783290000000  0.4340670000000 1.0
C      1  0.5571880000000  0.5153260000000  0.4769450000000 1.0
C      1  0.5197610000000  0.5087430000000  0.5563880000000 1.0
C      1  0.4367960000000  0.5181620000000  0.5291890000000 1.0
C      1  0.4818470000000  0.5106110000000  0.4394760000000 1.0
C      1  0.4486100000000  0.4668140000000  0.4382450000000 1.0
C      1  0.5658840000000  0.4716520000000  0.4445330000000 1.0
C      1  0.5560250000000  0.4728680000000  0.5647530000000 1.0
C      1  0.4264450000000  0.4778650000000  0.5651190000000 1.0
C      1  0.4555170000000  0.5251770000000  0.4370250000000 1.0
C      1  0.5574980000000  0.5292280000000  0.4505710000000 1.0
C      1  0.5438640000000  0.5269820000000  0.5612850000000 1.0
C      1  0.4411640000000  0.5319500000000  0.5548870000000 1.0
C      1  0.4720470000000  0.4684980000000  0.5723250000000 1.0
C      1  0.4390110000000  0.4760790000000  0.4830420000000 1.0
C      1  0.5254390000000  0.4690910000000  0.4231590000000 1.0
C      1  0.5742450000000  0.4761730000000  0.5226100000000 1.0
C      1  0.4796250000000  0.5433500000000  0.5739000000000 1.0
C      1  0.4311150000000  0.5306180000000  0.4753220000000 1.0
C      1  0.5246880000000  0.5438580000000  0.4232460000000 1.0
C      1  0.5695280000000  0.5339650000000  0.5239550000000 1.0
C      1  0.5012040000000  0.5442220000000  0.4994020000000 1.0
C      1  0.4759220000000  0.4603150000000  0.5146690000000 1.0
C      1  0.4964200000000  0.5052640000000  0.5044710000000 1.0
END
