TITL C-2622956-4641-89 -0.00732668158435338 125000 -943.671466305107 0 0 177 (C1) n - 1
REM
REM in /nfs/bkarasulu/CARBON/AIRSS/Generating-Clusters/AIREBO/with-SteepDescent/Higher-Symm/SD-CG/HFTN-CG
REM
REM
REM
REM
REM
REM ./C.cell (b20cbc046b6831c77cfcea5457e17084)
REM
REM compiler GCC version 9.2.1 20190827 (Red Hat 9.2.1-1)
REM options -cpp -mtune=generic -march=x86-64 -g -O0 -fpre-include=/usr/include/finclude/math-vector-fortran.h
REM seed -1371881770 -795325910 1695934898 2133362383 -8358268 -693560750 -956569899 -1581660301 -1890588714 1544633106 -473578189 1304235391 -1414499808 -1711502049 1227884325 2043748549 -651487434 -1942334858 1791292310 31864141 -2003406280 1202824211 -2078972632 -1023319595 -820388550 1621619242 100061267 727134801 870510542 226630478 247173132 -53814049 -1503879912
REM
CELL 1.54180   50.00000   50.00000   50.00000   90.00000   90.00000   90.00000
LATT -1
SFAC C  
C      1  0.5881800000000  0.4427340000000  0.4552950000000 1.0
C      1  0.6013450000000  0.4504510000000  0.5416320000000 1.0
C      1  0.5913650000000  0.5245150000000  0.5578930000000 1.0
C      1  0.5910750000000  0.5754560000000  0.4976330000000 1.0
C      1  0.6019980000000  0.5042880000000  0.4562010000000 1.0
C      1  0.4092250000000  0.4461620000000  0.4669840000000 1.0
C      1  0.4048340000000  0.4462400000000  0.5416480000000 1.0
C      1  0.3960040000000  0.5192830000000  0.5506130000000 1.0
C      1  0.3995470000000  0.5547030000000  0.5007190000000 1.0
C      1  0.4071610000000  0.5160410000000  0.4512050000000 1.0
C      1  0.5747240000000  0.5421640000000  0.5740400000000 1.0
C      1  0.5713290000000  0.5934670000000  0.4874410000000 1.0
C      1  0.5814910000000  0.5050860000000  0.4308230000000 1.0
C      1  0.5720660000000  0.4193070000000  0.4592580000000 1.0
C      1  0.5834370000000  0.4380180000000  0.5599370000000 1.0
C      1  0.4109830000000  0.5416320000000  0.5641960000000 1.0
C      1  0.4212260000000  0.5695460000000  0.4833110000000 1.0
C      1  0.4228220000000  0.5024120000000  0.4241550000000 1.0
C      1  0.4203930000000  0.4204860000000  0.4633730000000 1.0
C      1  0.4275460000000  0.4438490000000  0.5572560000000 1.0
C      1  0.4511830000000  0.3913640000000  0.4369130000000 1.0
C      1  0.4724040000000  0.4262270000000  0.5719790000000 1.0
C      1  0.4599340000000  0.5546000000000  0.5798570000000 1.0
C      1  0.4589620000000  0.6114730000000  0.4871850000000 1.0
C      1  0.4621350000000  0.5154280000000  0.3895070000000 1.0
C      1  0.5303130000000  0.3922380000000  0.4400010000000 1.0
C      1  0.5360940000000  0.4157570000000  0.5645440000000 1.0
C      1  0.5383190000000  0.5527890000000  0.6043250000000 1.0
C      1  0.5266680000000  0.6171590000000  0.4891600000000 1.0
C      1  0.5442530000000  0.5171090000000  0.3967540000000 1.0
C      1  0.5243000000000  0.5235570000000  0.4779250000000 1.0
C      1  0.5221550000000  0.4918520000000  0.4786010000000 1.0
C      1  0.5172380000000  0.4728000000000  0.5066030000000 1.0
C      1  0.5261320000000  0.5022180000000  0.5211800000000 1.0
C      1  0.5187770000000  0.5336290000000  0.5099540000000 1.0
C      1  0.4819160000000  0.5185830000000  0.4734110000000 1.0
C      1  0.4896820000000  0.4904720000000  0.4778820000000 1.0
C      1  0.4844100000000  0.4748160000000  0.5068810000000 1.0
C      1  0.4863660000000  0.5047310000000  0.5229540000000 1.0
C      1  0.4866870000000  0.5329400000000  0.5037670000000 1.0
C      1  0.4567140000000  0.4611750000000  0.5607530000000 1.0
C      1  0.4521260000000  0.5460790000000  0.5478790000000 1.0
C      1  0.4520780000000  0.5764060000000  0.4700830000000 1.0
C      1  0.4544530000000  0.4913340000000  0.4203420000000 1.0
C      1  0.4353140000000  0.4103530000000  0.4853920000000 1.0
C      1  0.5536770000000  0.4515130000000  0.5669080000000 1.0
C      1  0.5615560000000  0.5620880000000  0.5596510000000 1.0
C      1  0.5443770000000  0.5820370000000  0.4758010000000 1.0
C      1  0.5406970000000  0.4799430000000  0.4107260000000 1.0
C      1  0.5607190000000  0.4176160000000  0.4845980000000 1.0
C      1  0.5641900000000  0.4735360000000  0.4857500000000 1.0
C      1  0.5670440000000  0.4727300000000  0.5202190000000 1.0
C      1  0.5672410000000  0.5275210000000  0.5142250000000 1.0
C      1  0.5684530000000  0.5311350000000  0.4833220000000 1.0
C      1  0.5596850000000  0.5020480000000  0.4686360000000 1.0
C      1  0.4410380000000  0.4809560000000  0.4860610000000 1.0
C      1  0.4311100000000  0.4776490000000  0.5161890000000 1.0
C      1  0.4333000000000  0.5076420000000  0.5267740000000 1.0
C      1  0.4267260000000  0.5256040000000  0.5008950000000 1.0
C      1  0.4428910000000  0.5135450000000  0.4764830000000 1.0
C      1  0.5514700000000  0.5497940000000  0.5307010000000 1.0
C      1  0.5501920000000  0.5515510000000  0.4660230000000 1.0
C      1  0.5483830000000  0.4724230000000  0.4556590000000 1.0
C      1  0.5641710000000  0.4439020000000  0.5024210000000 1.0
C      1  0.5604960000000  0.4790410000000  0.5508030000000 1.0
C      1  0.4309100000000  0.5473950000000  0.5243730000000 1.0
C      1  0.4523980000000  0.5435350000000  0.4635700000000 1.0
C      1  0.4487000000000  0.4873100000000  0.4536100000000 1.0
C      1  0.4505290000000  0.4544110000000  0.5024920000000 1.0
C      1  0.4426640000000  0.4908940000000  0.5520650000000 1.0
C      1  0.4458460000000  0.5337620000000  0.4325190000000 1.0
C      1  0.4450040000000  0.4385160000000  0.4376610000000 1.0
C      1  0.4504970000000  0.4316890000000  0.5269290000000 1.0
C      1  0.4524030000000  0.5108910000000  0.5777910000000 1.0
C      1  0.4492590000000  0.5743290000000  0.5198970000000 1.0
C      1  0.5590620000000  0.5264400000000  0.4448800000000 1.0
C      1  0.5407030000000  0.4405120000000  0.4467780000000 1.0
C      1  0.5465300000000  0.4314960000000  0.5271370000000 1.0
C      1  0.5459590000000  0.5060840000000  0.5874720000000 1.0
C      1  0.5374170000000  0.5869750000000  0.5283810000000 1.0
C      1  0.5252770000000  0.5227530000000  0.4437900000000 1.0
C      1  0.5125930000000  0.4326950000000  0.4588830000000 1.0
C      1  0.5187360000000  0.4469200000000  0.5286270000000 1.0
C      1  0.5239360000000  0.5249280000000  0.5712270000000 1.0
C      1  0.5218730000000  0.5672790000000  0.5053680000000 1.0
C      1  0.4743500000000  0.5197050000000  0.4400630000000 1.0
C      1  0.4721810000000  0.4342970000000  0.4576660000000 1.0
C      1  0.4790600000000  0.4499720000000  0.5295450000000 1.0
C      1  0.4840520000000  0.5237010000000  0.5723140000000 1.0
C      1  0.4759460000000  0.5634480000000  0.5028080000000 1.0
C      1  0.4242840000000  0.4613580000000  0.4286730000000 1.0
C      1  0.4275140000000  0.4223550000000  0.5086520000000 1.0
C      1  0.4233450000000  0.4934320000000  0.5849400000000 1.0
C      1  0.4298440000000  0.5988010000000  0.5333340000000 1.0
C      1  0.4127490000000  0.5391780000000  0.4269150000000 1.0
C      1  0.5677090000000  0.4729800000000  0.4113060000000 1.0
C      1  0.5907640000000  0.4141000000000  0.5287990000000 1.0
C      1  0.5724860000000  0.4875920000000  0.5879310000000 1.0
C      1  0.5697830000000  0.5910460000000  0.5315600000000 1.0
C      1  0.5875800000000  0.5448290000000  0.4471380000000 1.0
C      1  0.5305730000000  0.4211930000000  0.4999460000000 1.0
C      1  0.5355800000000  0.4742750000000  0.5814310000000 1.0
C      1  0.5291690000000  0.5723060000000  0.5579280000000 1.0
C      1  0.5285160000000  0.5794750000000  0.4474630000000 1.0
C      1  0.5254880000000  0.4589000000000  0.4250680000000 1.0
C      1  0.4618210000000  0.4002840000000  0.4841180000000 1.0
C      1  0.4744050000000  0.4850620000000  0.5752430000000 1.0
C      1  0.4707690000000  0.5735510000000  0.5463450000000 1.0
C      1  0.4712540000000  0.5720110000000  0.4429350000000 1.0
C      1  0.4640810000000  0.4615280000000  0.4272340000000 1.0
C      1  0.4807950000000  0.4753410000000  0.4523220000000 1.0
C      1  0.4783590000000  0.4499550000000  0.4844640000000 1.0
C      1  0.4952620000000  0.4987460000000  0.5521190000000 1.0
C      1  0.4865970000000  0.5444730000000  0.5455170000000 1.0
C      1  0.4859450000000  0.5493470000000  0.4635910000000 1.0
C      1  0.5149920000000  0.4768370000000  0.4504140000000 1.0
C      1  0.5115470000000  0.4435110000000  0.4881900000000 1.0
C      1  0.5280550000000  0.4903010000000  0.5523750000000 1.0
C      1  0.5203630000000  0.5429870000000  0.5426350000000 1.0
C      1  0.5167490000000  0.5544050000000  0.4666340000000 1.0
C      1  0.5064240000000  0.4019570000000  0.4503420000000 1.0
C      1  0.5212460000000  0.4426630000000  0.5615800000000 1.0
C      1  0.5167240000000  0.5618820000000  0.5878120000000 1.0
C      1  0.5121890000000  0.5906570000000  0.4826230000000 1.0
C      1  0.5187530000000  0.5055940000000  0.4148820000000 1.0
C      1  0.4751170000000  0.4004710000000  0.4556860000000 1.0
C      1  0.4893620000000  0.4516530000000  0.5595690000000 1.0
C      1  0.4895900000000  0.5537710000000  0.5871980000000 1.0
C      1  0.4809050000000  0.5899180000000  0.4820480000000 1.0
C      1  0.4849160000000  0.5039720000000  0.4118270000000 1.0
C      1  0.4335880000000  0.5963020000000  0.4992030000000 1.0
C      1  0.4386990000000  0.5232370000000  0.4024590000000 1.0
C      1  0.4313710000000  0.4107360000000  0.4371870000000 1.0
C      1  0.4496650000000  0.4219850000000  0.5576430000000 1.0
C      1  0.4322090000000  0.5380300000000  0.5812980000000 1.0
C      1  0.5500480000000  0.6082720000000  0.5054340000000 1.0
C      1  0.5682260000000  0.5125290000000  0.4030190000000 1.0
C      1  0.5519700000000  0.4114140000000  0.4386250000000 1.0
C      1  0.5634950000000  0.4161450000000  0.5479160000000 1.0
C      1  0.5573200000000  0.5336990000000  0.5948990000000 1.0
C      1  0.4890810000000  0.5977310000000  0.5443430000000 1.0
C      1  0.4930000000000  0.5639870000000  0.4246760000000 1.0
C      1  0.4793960000000  0.4477760000000  0.4035710000000 1.0
C      1  0.4796820000000  0.3996280000000  0.5045250000000 1.0
C      1  0.4873310000000  0.4825620000000  0.6035090000000 1.0
C      1  0.5097480000000  0.5993900000000  0.5617810000000 1.0
C      1  0.5152510000000  0.5812240000000  0.4244640000000 1.0
C      1  0.5102710000000  0.4416830000000  0.4045190000000 1.0
C      1  0.5117140000000  0.3966410000000  0.5074980000000 1.0
C      1  0.5192000000000  0.4830260000000  0.6060390000000 1.0
C      1  0.4007380000000  0.4749250000000  0.5260300000000 1.0
C      1  0.3842670000000  0.5278790000000  0.5234140000000 1.0
C      1  0.3963900000000  0.5215730000000  0.4930490000000 1.0
C      1  0.3944640000000  0.4947880000000  0.4745420000000 1.0
C      1  0.4010280000000  0.4668180000000  0.4929150000000 1.0
C      1  0.6098330000000  0.4751160000000  0.5496380000000 1.0
C      1  0.5975970000000  0.5334630000000  0.5283400000000 1.0
C      1  0.5982890000000  0.5427720000000  0.4947790000000 1.0
C      1  0.6033890000000  0.4777100000000  0.4678580000000 1.0
C      1  0.6051420000000  0.4506860000000  0.4807730000000 1.0
C      1  0.5881150000000  0.4946420000000  0.5609920000000 1.0
C      1  0.5827430000000  0.5623140000000  0.5258810000000 1.0
C      1  0.6042760000000  0.5312730000000  0.4656440000000 1.0
C      1  0.5799550000000  0.4733800000000  0.4430270000000 1.0
C      1  0.5972060000000  0.4416360000000  0.5101430000000 1.0
C      1  0.4087540000000  0.4921480000000  0.5542440000000 1.0
C      1  0.4007870000000  0.5553770000000  0.5346940000000 1.0
C      1  0.4188190000000  0.5469830000000  0.4594680000000 1.0
C      1  0.4162160000000  0.4773200000000  0.4552020000000 1.0
C      1  0.4045040000000  0.4382980000000  0.5116420000000 1.0
C      1  0.4927980000000  0.4343600000000  0.4320380000000 1.0
C      1  0.5046980000000  0.5111230000000  0.5957000000000 1.0
C      1  0.4993350000000  0.5369750000000  0.4281690000000 1.0
C      1  0.4963150000000  0.4236720000000  0.5211730000000 1.0
C      1  0.4964190000000  0.5856660000000  0.5184110000000 1.0
C      1  0.5560790000000  0.5015480000000  0.5182790000000 1.0
C      1  0.4592440000000  0.5054090000000  0.5116760000000 1.0
END
