TITL C-2622960-5345-129 0.00059490819195201 125000 -966.099520428388 0 0 177 (C1) n - 1
REM
REM in /nfs/bkarasulu/CARBON/AIRSS/Generating-Clusters/AIREBO/with-SteepDescent/Higher-Symm/SD-CG/HFTN-CG
REM
REM
REM
REM
REM
REM ./C.cell (b20cbc046b6831c77cfcea5457e17084)
REM
REM compiler GCC version 9.2.1 20190827 (Red Hat 9.2.1-1)
REM options -cpp -mtune=generic -march=x86-64 -g -O0 -fpre-include=/usr/include/finclude/math-vector-fortran.h
REM seed 980945075 1038616247 1774804852 998986601 830349151 -1600722251 1088362943 1947055803 -652287914 -328484269 -1977909804 -2118639596 -1937565279 -44469389 -637481054 -1956559534 -1875626477 -407184169 269768836 1711213579 1743871263 -1615098675 828686698 1657959612 -726295272 -403334096 1435718110 1094926147 -328028801 -2040370459 581786535 -635604414 1783045889
REM
CELL 1.54180   50.00000   50.00000   50.00000   90.00000   90.00000   90.00000
LATT -1
SFAC C  
C      1  0.4316700000000  0.4366430000000  0.4919270000000 1.0
C      1  0.4286500000000  0.5519100000000  0.5182450000000 1.0
C      1  0.5142480000000  0.4692190000000  0.4790030000000 1.0
C      1  0.5211150000000  0.5307590000000  0.5131600000000 1.0
C      1  0.5002850000000  0.4398760000000  0.4186250000000 1.0
C      1  0.4933890000000  0.5600300000000  0.5844810000000 1.0
C      1  0.3927220000000  0.4739870000000  0.4848160000000 1.0
C      1  0.3919930000000  0.5238310000000  0.5324960000000 1.0
C      1  0.5446720000000  0.5539550000000  0.5751190000000 1.0
C      1  0.5524350000000  0.4383990000000  0.4272030000000 1.0
C      1  0.4961200000000  0.5267500000000  0.4618120000000 1.0
C      1  0.4814220000000  0.4731910000000  0.5466460000000 1.0
C      1  0.4832520000000  0.5345970000000  0.5017380000000 1.0
C      1  0.4752590000000  0.4613820000000  0.4818860000000 1.0
C      1  0.3975690000000  0.5380430000000  0.4835880000000 1.0
C      1  0.4066500000000  0.4580540000000  0.5315010000000 1.0
C      1  0.5965150000000  0.5665950000000  0.4791020000000 1.0
C      1  0.5890040000000  0.4361590000000  0.5031600000000 1.0
C      1  0.5530700000000  0.4671410000000  0.3980110000000 1.0
C      1  0.5444260000000  0.5289760000000  0.6096720000000 1.0
C      1  0.4398220000000  0.5690880000000  0.4692110000000 1.0
C      1  0.4538780000000  0.4247420000000  0.5284480000000 1.0
C      1  0.4741150000000  0.4752480000000  0.6007070000000 1.0
C      1  0.4691350000000  0.5264370000000  0.4062030000000 1.0
C      1  0.5685710000000  0.5224530000000  0.4630150000000 1.0
C      1  0.5734540000000  0.4684300000000  0.5391050000000 1.0
C      1  0.4529970000000  0.4828830000000  0.4161730000000 1.0
C      1  0.4609230000000  0.5158570000000  0.5715520000000 1.0
C      1  0.5437580000000  0.5030560000000  0.4573080000000 1.0
C      1  0.5307770000000  0.4992640000000  0.5358630000000 1.0
C      1  0.5344260000000  0.4218370000000  0.4508120000000 1.0
C      1  0.5319290000000  0.5826450000000  0.5674080000000 1.0
C      1  0.4114930000000  0.5536100000000  0.4652240000000 1.0
C      1  0.4251180000000  0.4487370000000  0.5497230000000 1.0
C      1  0.4164050000000  0.5500700000000  0.5653700000000 1.0
C      1  0.4172840000000  0.4588960000000  0.4455280000000 1.0
C      1  0.5214890000000  0.4372790000000  0.5469650000000 1.0
C      1  0.5259410000000  0.5543180000000  0.4546670000000 1.0
C      1  0.5260820000000  0.5795980000000  0.5364070000000 1.0
C      1  0.5440000000000  0.4107010000000  0.4802060000000 1.0
C      1  0.4623500000000  0.3940450000000  0.5413050000000 1.0
C      1  0.4779480000000  0.5957390000000  0.4409610000000 1.0
C      1  0.5029940000000  0.4739420000000  0.5229800000000 1.0
C      1  0.5202180000000  0.5085230000000  0.4778650000000 1.0
C      1  0.5190350000000  0.4719460000000  0.4496440000000 1.0
C      1  0.5143290000000  0.5478280000000  0.5404190000000 1.0
C      1  0.6074770000000  0.5008800000000  0.5591650000000 1.0
C      1  0.6158220000000  0.5144670000000  0.4485410000000 1.0
C      1  0.5935010000000  0.5045910000000  0.4582180000000 1.0
C      1  0.5800210000000  0.4908100000000  0.5569310000000 1.0
C      1  0.5428360000000  0.5573730000000  0.4915740000000 1.0
C      1  0.5474580000000  0.4548200000000  0.4964670000000 1.0
C      1  0.5750080000000  0.4695930000000  0.4168820000000 1.0
C      1  0.5670920000000  0.5255160000000  0.5916810000000 1.0
C      1  0.5208710000000  0.4709350000000  0.5517700000000 1.0
C      1  0.5370580000000  0.5328620000000  0.4322060000000 1.0
C      1  0.4874980000000  0.4619630000000  0.4501670000000 1.0
C      1  0.4813260000000  0.5496230000000  0.5323870000000 1.0
C      1  0.4009980000000  0.5411270000000  0.5111780000000 1.0
C      1  0.4044190000000  0.4485890000000  0.5042630000000 1.0
C      1  0.5171820000000  0.4524390000000  0.5037360000000 1.0
C      1  0.5112500000000  0.5467180000000  0.4848040000000 1.0
C      1  0.4985620000000  0.5057270000000  0.5111810000000 1.0
C      1  0.4923460000000  0.4901530000000  0.4843460000000 1.0
C      1  0.5189880000000  0.5443630000000  0.5954150000000 1.0
C      1  0.5273440000000  0.4564050000000  0.4128420000000 1.0
C      1  0.4427170000000  0.5235410000000  0.5215540000000 1.0
C      1  0.4391390000000  0.4796760000000  0.4602580000000 1.0
C      1  0.5906800000000  0.4864770000000  0.4957310000000 1.0
C      1  0.5927300000000  0.5178110000000  0.5088940000000 1.0
C      1  0.5521860000000  0.5653770000000  0.4154310000000 1.0
C      1  0.5566340000000  0.4372130000000  0.5797470000000 1.0
C      1  0.5245350000000  0.5609540000000  0.4069870000000 1.0
C      1  0.5307450000000  0.4353740000000  0.5900700000000 1.0
C      1  0.5509470000000  0.5715120000000  0.5206860000000 1.0
C      1  0.5715380000000  0.4174860000000  0.4620910000000 1.0
C      1  0.4603680000000  0.5097840000000  0.4975530000000 1.0
C      1  0.4476470000000  0.4788720000000  0.4912740000000 1.0
C      1  0.4160840000000  0.5154160000000  0.4527450000000 1.0
C      1  0.4143010000000  0.5034150000000  0.5586300000000 1.0
C      1  0.5100880000000  0.5150030000000  0.5482110000000 1.0
C      1  0.5152450000000  0.5002860000000  0.4388990000000 1.0
C      1  0.4110600000000  0.5037500000000  0.4288560000000 1.0
C      1  0.4147470000000  0.5148020000000  0.5839740000000 1.0
C      1  0.4994350000000  0.4270990000000  0.5814690000000 1.0
C      1  0.5034950000000  0.5716760000000  0.4213980000000 1.0
C      1  0.5037260000000  0.6136330000000  0.5048240000000 1.0
C      1  0.5190870000000  0.3976190000000  0.4930210000000 1.0
C      1  0.3979820000000  0.5068670000000  0.4775230000000 1.0
C      1  0.4010370000000  0.4910940000000  0.5323200000000 1.0
C      1  0.5477740000000  0.5142590000000  0.4058370000000 1.0
C      1  0.5342240000000  0.4899070000000  0.5768160000000 1.0
C      1  0.5259500000000  0.4038910000000  0.5439480000000 1.0
C      1  0.5407170000000  0.5809870000000  0.4503700000000 1.0
C      1  0.4880190000000  0.4402660000000  0.5522590000000 1.0
C      1  0.4932720000000  0.5589500000000  0.4512340000000 1.0
C      1  0.5059830000000  0.5180290000000  0.6086130000000 1.0
C      1  0.5019720000000  0.4752880000000  0.4003530000000 1.0
C      1  0.4594680000000  0.5624610000000  0.5843330000000 1.0
C      1  0.4713390000000  0.4232990000000  0.4230520000000 1.0
C      1  0.4472720000000  0.4093090000000  0.4988760000000 1.0
C      1  0.4434680000000  0.5736960000000  0.5027000000000 1.0
C      1  0.5776870000000  0.5429330000000  0.5680090000000 1.0
C      1  0.5846170000000  0.4532530000000  0.4375700000000 1.0
C      1  0.5478190000000  0.5907960000000  0.4876770000000 1.0
C      1  0.5593140000000  0.4265390000000  0.5062230000000 1.0
C      1  0.4546180000000  0.5442660000000  0.4205570000000 1.0
C      1  0.4585550000000  0.4583400000000  0.5859380000000 1.0
C      1  0.5495930000000  0.4909590000000  0.3847610000000 1.0
C      1  0.5412310000000  0.4996860000000  0.6078400000000 1.0
C      1  0.5500510000000  0.4239050000000  0.5341260000000 1.0
C      1  0.5690110000000  0.5742810000000  0.4667530000000 1.0
C      1  0.4260950000000  0.5502570000000  0.4367290000000 1.0
C      1  0.4378240000000  0.4707700000000  0.5680350000000 1.0
C      1  0.5066950000000  0.4242680000000  0.4470080000000 1.0
C      1  0.5011470000000  0.5847830000000  0.5670730000000 1.0
C      1  0.5477230000000  0.4651370000000  0.4457770000000 1.0
C      1  0.5448240000000  0.5346800000000  0.5478040000000 1.0
C      1  0.5098500000000  0.4585570000000  0.5814620000000 1.0
C      1  0.5195900000000  0.5297140000000  0.4031960000000 1.0
C      1  0.4691200000000  0.4027790000000  0.4822410000000 1.0
C      1  0.4630520000000  0.5900530000000  0.5177940000000 1.0
C      1  0.3888130000000  0.4601770000000  0.4571020000000 1.0
C      1  0.3925440000000  0.5369630000000  0.5578240000000 1.0
C      1  0.4171650000000  0.4860740000000  0.5051370000000 1.0
C      1  0.4277100000000  0.5134940000000  0.4926540000000 1.0
C      1  0.4823010000000  0.5081860000000  0.4417930000000 1.0
C      1  0.4890580000000  0.4986710000000  0.5632180000000 1.0
C      1  0.4758100000000  0.4634280000000  0.4192040000000 1.0
C      1  0.4828020000000  0.5387860000000  0.5632950000000 1.0
C      1  0.4833840000000  0.5875130000000  0.5449280000000 1.0
C      1  0.4850740000000  0.4293030000000  0.4729480000000 1.0
C      1  0.4550100000000  0.4359670000000  0.5605300000000 1.0
C      1  0.4613830000000  0.5671320000000  0.4427130000000 1.0
C      1  0.4640010000000  0.5029260000000  0.6025140000000 1.0
C      1  0.4613690000000  0.5009400000000  0.3935420000000 1.0
C      1  0.5640270000000  0.5499900000000  0.4434700000000 1.0
C      1  0.5629820000000  0.4435510000000  0.5540200000000 1.0
C      1  0.4812800000000  0.4886140000000  0.3789630000000 1.0
C      1  0.4801770000000  0.5191560000000  0.6193420000000 1.0
C      1  0.4385720000000  0.5379080000000  0.5846080000000 1.0
C      1  0.4232660000000  0.4801150000000  0.4235900000000 1.0
C      1  0.5639310000000  0.5302890000000  0.4957910000000 1.0
C      1  0.5602780000000  0.4790050000000  0.5090300000000 1.0
C      1  0.4911340000000  0.3853270000000  0.4813190000000 1.0
C      1  0.4802530000000  0.6005290000000  0.4977200000000 1.0
C      1  0.5953310000000  0.5528900000000  0.5267120000000 1.0
C      1  0.5927070000000  0.4400960000000  0.4730620000000 1.0
C      1  0.5264150000000  0.6031270000000  0.4638230000000 1.0
C      1  0.5218960000000  0.3824570000000  0.5195060000000 1.0
C      1  0.4629810000000  0.4383990000000  0.4497540000000 1.0
C      1  0.4591450000000  0.5679050000000  0.5507650000000 1.0
C      1  0.5032050000000  0.4264670000000  0.5001590000000 1.0
C      1  0.5262840000000  0.6002800000000  0.5106880000000 1.0
C      1  0.5600660000000  0.4488000000000  0.4687330000000 1.0
C      1  0.5640410000000  0.5448830000000  0.5265040000000 1.0
C      1  0.5553060000000  0.4931340000000  0.4283260000000 1.0
C      1  0.5571570000000  0.5086920000000  0.5659350000000 1.0
C      1  0.6032370000000  0.5487530000000  0.4980320000000 1.0
C      1  0.5949460000000  0.4612410000000  0.5167260000000 1.0
C      1  0.5030300000000  0.4898750000000  0.5903610000000 1.0
C      1  0.4967700000000  0.5071880000000  0.4110320000000 1.0
C      1  0.4524760000000  0.5014840000000  0.4438190000000 1.0
C      1  0.4426240000000  0.5054720000000  0.5458520000000 1.0
C      1  0.4358580000000  0.4400740000000  0.4612870000000 1.0
C      1  0.4300000000000  0.5642620000000  0.5453570000000 1.0
C      1  0.4828500000000  0.5787940000000  0.4768000000000 1.0
C      1  0.4874280000000  0.4204490000000  0.5249880000000 1.0
C      1  0.4455820000000  0.5314690000000  0.4573110000000 1.0
C      1  0.4522950000000  0.4759180000000  0.5387720000000 1.0
C      1  0.5943870000000  0.5256890000000  0.5437820000000 1.0
C      1  0.5916340000000  0.4729370000000  0.4644460000000 1.0
C      1  0.4654570000000  0.5496040000000  0.4782690000000 1.0
C      1  0.4461830000000  0.4556660000000  0.5160930000000 1.0
C      1  0.4996760000000  0.6015010000000  0.4596140000000 1.0
C      1  0.4951400000000  0.3909230000000  0.5371310000000 1.0
C      1  0.5414590000000  0.5062490000000  0.5043470000000 1.0
END
