TITL C-2622956-4641-384 -0.000645491150904799 125000 -441.67602543574 0 0 80 (C1) n - 1
REM
REM in /nfs/bkarasulu/CARBON/AIRSS/Generating-Clusters/AIREBO/with-SteepDescent/Higher-Symm/SD-CG/HFTN-CG
REM
REM
REM
REM
REM
REM ./C.cell (b20cbc046b6831c77cfcea5457e17084)
REM
REM compiler GCC version 9.2.1 20190827 (Red Hat 9.2.1-1)
REM options -cpp -mtune=generic -march=x86-64 -g -O0 -fpre-include=/usr/include/finclude/math-vector-fortran.h
REM seed 347000224 -2036838299 -996895707 -104280987 -834346319 -453310290 -471900324 19198132 1170599384 -746497614 -104976811 -174768346 477833441 -1975686781 741261208 2103827037 -1028254449 1840689520 -1770384311 -1360293874 1206580461 -704391454 -1698965780 -307689688 -1526738011 614968826 380296467 1569593809 43951230 627781218 257130205 -1202478089 -1423503078
REM
CELL 1.54180   50.00000   50.00000   50.00000   90.00000   90.00000   90.00000
LATT -1
SFAC C  
C      1  0.5646720000000  0.5496570000000  0.5119770000000 1.0
C      1  0.4230420000000  0.4580920000000  0.5048600000000 1.0
C      1  0.4845550000000  0.5347780000000  0.4344730000000 1.0
C      1  0.5216720000000  0.4627750000000  0.4371890000000 1.0
C      1  0.5156430000000  0.5046890000000  0.4728770000000 1.0
C      1  0.4888850000000  0.4908320000000  0.4686190000000 1.0
C      1  0.4356750000000  0.5212470000000  0.4574780000000 1.0
C      1  0.5681300000000  0.4766520000000  0.4619030000000 1.0
C      1  0.4817390000000  0.5833670000000  0.4804030000000 1.0
C      1  0.5113110000000  0.4176930000000  0.4781310000000 1.0
C      1  0.4635890000000  0.5058040000000  0.4520540000000 1.0
C      1  0.5404170000000  0.4925450000000  0.4561860000000 1.0
C      1  0.4635030000000  0.4536630000000  0.4497050000000 1.0
C      1  0.5381230000000  0.5440390000000  0.4492430000000 1.0
C      1  0.5737790000000  0.5276230000000  0.5265710000000 1.0
C      1  0.4342040000000  0.4788010000000  0.5294230000000 1.0
C      1  0.4555750000000  0.4627310000000  0.4997720000000 1.0
C      1  0.5345650000000  0.5421630000000  0.4982470000000 1.0
C      1  0.4950910000000  0.5549960000000  0.5061020000000 1.0
C      1  0.4940370000000  0.4556130000000  0.5073830000000 1.0
C      1  0.5278980000000  0.5915500000000  0.4994900000000 1.0
C      1  0.4616310000000  0.4133680000000  0.4969980000000 1.0
C      1  0.4717260000000  0.5165670000000  0.5633470000000 1.0
C      1  0.5402970000000  0.4669150000000  0.5644880000000 1.0
C      1  0.5555340000000  0.5466630000000  0.4736200000000 1.0
C      1  0.4422460000000  0.4546780000000  0.4702670000000 1.0
C      1  0.5409620000000  0.4356290000000  0.5138710000000 1.0
C      1  0.4557990000000  0.5453780000000  0.5121680000000 1.0
C      1  0.4681100000000  0.4365320000000  0.5471180000000 1.0
C      1  0.5283710000000  0.5637130000000  0.5463090000000 1.0
C      1  0.5492920000000  0.4524600000000  0.5352990000000 1.0
C      1  0.4499060000000  0.5336330000000  0.5435270000000 1.0
C      1  0.4637440000000  0.5131310000000  0.5048190000000 1.0
C      1  0.5423500000000  0.4891170000000  0.5097320000000 1.0
C      1  0.5696440000000  0.5215860000000  0.5526980000000 1.0
C      1  0.4347120000000  0.4811010000000  0.5597610000000 1.0
C      1  0.5285770000000  0.5465860000000  0.5642560000000 1.0
C      1  0.4777030000000  0.4623120000000  0.5560920000000 1.0
C      1  0.4664400000000  0.4848250000000  0.5338430000000 1.0
C      1  0.5322670000000  0.5218060000000  0.5319640000000 1.0
C      1  0.5408640000000  0.4297950000000  0.4843050000000 1.0
C      1  0.4576770000000  0.5626170000000  0.4828780000000 1.0
C      1  0.4864590000000  0.4397550000000  0.4558810000000 1.0
C      1  0.5159730000000  0.5596560000000  0.4510540000000 1.0
C      1  0.5130030000000  0.4302780000000  0.5198220000000 1.0
C      1  0.4726650000000  0.5737600000000  0.5180830000000 1.0
C      1  0.4684210000000  0.4777820000000  0.4368580000000 1.0
C      1  0.5320080000000  0.5189980000000  0.4395190000000 1.0
C      1  0.4993970000000  0.4741680000000  0.5340300000000 1.0
C      1  0.5030330000000  0.5333640000000  0.5268430000000 1.0
C      1  0.4992360000000  0.4862090000000  0.4365270000000 1.0
C      1  0.5050820000000  0.5160530000000  0.4307320000000 1.0
C      1  0.5081990000000  0.4515520000000  0.4783100000000 1.0
C      1  0.4950750000000  0.5543530000000  0.4729670000000 1.0
C      1  0.5240360000000  0.5131110000000  0.5001240000000 1.0
C      1  0.4781760000000  0.4836750000000  0.4958380000000 1.0
C      1  0.4803160000000  0.5998850000000  0.5166330000000 1.0
C      1  0.5041540000000  0.4039900000000  0.5149820000000 1.0
C      1  0.4664440000000  0.4376290000000  0.5158290000000 1.0
C      1  0.5239310000000  0.5657500000000  0.5164210000000 1.0
C      1  0.5545390000000  0.5758450000000  0.4927660000000 1.0
C      1  0.4361160000000  0.4290970000000  0.4911900000000 1.0
C      1  0.4963470000000  0.4940720000000  0.5715460000000 1.0
C      1  0.5240990000000  0.4923130000000  0.5726070000000 1.0
C      1  0.4583940000000  0.5453620000000  0.4535000000000 1.0
C      1  0.5450130000000  0.4519130000000  0.4588100000000 1.0
C      1  0.4188470000000  0.4772900000000  0.4769850000000 1.0
C      1  0.5761140000000  0.5239700000000  0.4785990000000 1.0
C      1  0.4869890000000  0.4020200000000  0.4905770000000 1.0
C      1  0.5017860000000  0.6028180000000  0.4943560000000 1.0
C      1  0.4632820000000  0.4864170000000  0.5736540000000 1.0
C      1  0.5391640000000  0.5162220000000  0.5626280000000 1.0
C      1  0.4748840000000  0.5271930000000  0.4762360000000 1.0
C      1  0.5350250000000  0.4718400000000  0.4835940000000 1.0
C      1  0.5288080000000  0.4784270000000  0.5354540000000 1.0
C      1  0.4825900000000  0.5137140000000  0.5330230000000 1.0
C      1  0.5702390000000  0.5042560000000  0.5062730000000 1.0
C      1  0.4342910000000  0.4983190000000  0.5032050000000 1.0
C      1  0.5841110000000  0.4924300000000  0.4785090000000 1.0
C      1  0.4197990000000  0.5087920000000  0.4765910000000 1.0
END
