TITL C-2622966-9038-503 2.69618670318276e-05 125000 -333.445063388641 0 0 68 (C1) n - 1
REM
REM in /nfs/bkarasulu/CARBON/AIRSS/Generating-Clusters/AIREBO/with-SteepDescent/Higher-Symm/SD-CG/HFTN-CG
REM
REM
REM
REM
REM
REM ./C.cell (b20cbc046b6831c77cfcea5457e17084)
REM
REM compiler GCC version 9.2.1 20190827 (Red Hat 9.2.1-1)
REM options -cpp -mtune=generic -march=x86-64 -g -O0 -fpre-include=/usr/include/finclude/math-vector-fortran.h
REM seed -591143100 -1617012290 534215060 -1603911518 1491550379 1030432491 399381903 -860130268 -159274514 984124252 -1697474484 -1911468859 358609907 284604899 1108881153 -1987443860 -645644856 -1995429374 1600149001 -1611046480 507069685 -1441065277 101306620 -345769893 -120803016 245027779 -1518185643 1947822901 1855552557 -390115165 -688362161 -173185388 635714804
REM
CELL 1.54180   50.00000   50.00000   50.00000   90.00000   90.00000   90.00000
LATT -1
SFAC C  
C      1  0.5203500000000  0.5170620000000  0.4526990000000 1.0
C      1  0.4723590000000  0.5104010000000  0.4534510000000 1.0
C      1  0.5045390000000  0.4723770000000  0.4523530000000 1.0
C      1  0.5250180000000  0.5148080000000  0.5424380000000 1.0
C      1  0.4738570000000  0.5139680000000  0.5422600000000 1.0
C      1  0.5002800000000  0.4703190000000  0.5426380000000 1.0
C      1  0.5711070000000  0.4961520000000  0.5583800000000 1.0
C      1  0.4668270000000  0.5628570000000  0.5587370000000 1.0
C      1  0.4607970000000  0.4398370000000  0.5589610000000 1.0
C      1  0.5718510000000  0.5109960000000  0.4451640000000 1.0
C      1  0.4580840000000  0.5619680000000  0.4435060000000 1.0
C      1  0.4731670000000  0.4312590000000  0.4450320000000 1.0
C      1  0.4641710000000  0.5543360000000  0.5119820000000 1.0
C      1  0.4705460000000  0.4411410000000  0.5124280000000 1.0
C      1  0.5648480000000  0.5031230000000  0.5120590000000 1.0
C      1  0.4759710000000  0.5642740000000  0.4891060000000 1.0
C      1  0.4569950000000  0.4458700000000  0.4890250000000 1.0
C      1  0.5669270000000  0.4886930000000  0.4888650000000 1.0
C      1  0.4458670000000  0.5347340000000  0.5057480000000 1.0
C      1  0.4964900000000  0.4337780000000  0.5074440000000 1.0
C      1  0.5584710000000  0.5293030000000  0.5069590000000 1.0
C      1  0.4462100000000  0.5303440000000  0.4781810000000 1.0
C      1  0.5011790000000  0.4330220000000  0.4803060000000 1.0
C      1  0.5565350000000  0.5335960000000  0.4798160000000 1.0
C      1  0.5507850000000  0.4523750000000  0.4858590000000 1.0
C      1  0.5155290000000  0.5677200000000  0.4859160000000 1.0
C      1  0.4315900000000  0.4764990000000  0.4864880000000 1.0
C      1  0.5479080000000  0.4479110000000  0.5122650000000 1.0
C      1  0.5211010000000  0.5673440000000  0.5123020000000 1.0
C      1  0.4310290000000  0.4825940000000  0.5129850000000 1.0
C      1  0.4715190000000  0.4827320000000  0.4839420000000 1.0
C      1  0.5267700000000  0.4842710000000  0.4836420000000 1.0
C      1  0.4987210000000  0.5315390000000  0.4833210000000 1.0
C      1  0.4708800000000  0.4853720000000  0.5145370000000 1.0
C      1  0.5262900000000  0.4814910000000  0.5144620000000 1.0
C      1  0.5023130000000  0.5316730000000  0.5142650000000 1.0
C      1  0.5170460000000  0.4932040000000  0.4207830000000 1.0
C      1  0.4972900000000  0.5189250000000  0.4202620000000 1.0
C      1  0.4849860000000  0.4893530000000  0.4219380000000 1.0
C      1  0.5152620000000  0.4888460000000  0.5801820000000 1.0
C      1  0.5016700000000  0.5180560000000  0.5801990000000 1.0
C      1  0.4831910000000  0.4916400000000  0.5803670000000 1.0
C      1  0.4622750000000  0.4889300000000  0.5582600000000 1.0
C      1  0.5282910000000  0.4720490000000  0.5580440000000 1.0
C      1  0.5093240000000  0.5378590000000  0.5580020000000 1.0
C      1  0.4634800000000  0.4794060000000  0.4425740000000 1.0
C      1  0.5362350000000  0.4778430000000  0.4413430000000 1.0
C      1  0.5009320000000  0.5420920000000  0.4415580000000 1.0
C      1  0.5346700000000  0.5389070000000  0.5220440000000 1.0
C      1  0.4482500000000  0.5097170000000  0.5218530000000 1.0
C      1  0.5165140000000  0.4498520000000  0.5224110000000 1.0
C      1  0.5286170000000  0.5420720000000  0.4709060000000 1.0
C      1  0.4457870000000  0.5009650000000  0.4711130000000 1.0
C      1  0.5221270000000  0.4530600000000  0.4708800000000 1.0
C      1  0.5048720000000  0.5713040000000  0.4582580000000 1.0
C      1  0.4379520000000  0.4641460000000  0.4590710000000 1.0
C      1  0.5592290000000  0.4600500000000  0.4583720000000 1.0
C      1  0.5139810000000  0.5671010000000  0.5412640000000 1.0
C      1  0.4340840000000  0.4784850000000  0.5423590000000 1.0
C      1  0.5513690000000  0.4533290000000  0.5414960000000 1.0
C      1  0.4741700000000  0.5431270000000  0.4625250000000 1.0
C      1  0.4768330000000  0.4559820000000  0.4633130000000 1.0
C      1  0.5484490000000  0.5009710000000  0.4630880000000 1.0
C      1  0.4827640000000  0.5465810000000  0.5386260000000 1.0
C      1  0.4673370000000  0.4616220000000  0.5386250000000 1.0
C      1  0.5488420000000  0.4905640000000  0.5382530000000 1.0
C      1  0.4986340000000  0.4994540000000  0.4720540000000 1.0
C      1  0.4997370000000  0.4996660000000  0.5254660000000 1.0
END
