TITL C-2622968-4806-634 -7.28665859379286e-05 125000 -252.9215426145 0 0 48 (C1) n - 1
REM
REM in /nfs/bkarasulu/CARBON/AIRSS/Generating-Clusters/AIREBO/with-SteepDescent/Higher-Symm/SD-CG/HFTN-CG
REM
REM
REM
REM
REM
REM ./C.cell (b20cbc046b6831c77cfcea5457e17084)
REM
REM compiler GCC version 9.2.1 20190827 (Red Hat 9.2.1-1)
REM options -cpp -mtune=generic -march=x86-64 -g -O0 -fpre-include=/usr/include/finclude/math-vector-fortran.h
REM seed -1937544790 583229403 -1679487921 -1589529200 1401887242 1888701880 -2089382279 2113777612 -1240699412 -1059953657 -1701338487 1144616534 -138853295 1772555147 1620991712 1786873010 -1839883019 -827143307 814310320 1024286739 -1355022899 -1967410509 -1350014694 -924681051 -2113522832 1643253561 634692235 -667594029 -1729657276 -9962017 1385219576 53679660 -1569447170
REM
CELL 1.54180   50.00000   50.00000   50.00000   90.00000   90.00000   90.00000
LATT -1
SFAC C  
C      1  0.5109010000000  0.4531690000000  0.5155410000000 1.0
C      1  0.4928930000000  0.5150860000000  0.5791930000000 1.0
C      1  0.5503400000000  0.4546680000000  0.4861320000000 1.0
C      1  0.4824250000000  0.5424860000000  0.5512510000000 1.0
C      1  0.4452950000000  0.4932200000000  0.4838630000000 1.0
C      1  0.4664140000000  0.4922980000000  0.5427280000000 1.0
C      1  0.5085270000000  0.5550820000000  0.5137580000000 1.0
C      1  0.5460730000000  0.5047640000000  0.4969690000000 1.0
C      1  0.5445650000000  0.5001650000000  0.4462080000000 1.0
C      1  0.5041730000000  0.4614060000000  0.5460640000000 1.0
C      1  0.5132140000000  0.4902090000000  0.5304130000000 1.0
C      1  0.5415070000000  0.4748920000000  0.5423150000000 1.0
C      1  0.4862310000000  0.4643160000000  0.4971160000000 1.0
C      1  0.5691100000000  0.5051440000000  0.4345070000000 1.0
C      1  0.4336890000000  0.4743230000000  0.5064340000000 1.0
C      1  0.5132800000000  0.4790500000000  0.4590450000000 1.0
C      1  0.4736860000000  0.5581000000000  0.5331120000000 1.0
C      1  0.4756440000000  0.4657470000000  0.5294580000000 1.0
C      1  0.4955180000000  0.5149380000000  0.4257690000000 1.0
C      1  0.4979270000000  0.4533300000000  0.4606150000000 1.0
C      1  0.4771170000000  0.5287240000000  0.4498860000000 1.0
C      1  0.5290930000000  0.5398630000000  0.5326320000000 1.0
C      1  0.4513120000000  0.4528040000000  0.5127260000000 1.0
C      1  0.5208330000000  0.5012590000000  0.5799280000000 1.0
C      1  0.4561010000000  0.5598250000000  0.4884560000000 1.0
C      1  0.4702710000000  0.5186820000000  0.5216200000000 1.0
C      1  0.4706830000000  0.5009700000000  0.5686220000000 1.0
C      1  0.5489940000000  0.5305540000000  0.5069820000000 1.0
C      1  0.5331790000000  0.4431020000000  0.5042250000000 1.0
C      1  0.5238310000000  0.5737540000000  0.4509060000000 1.0
C      1  0.4998780000000  0.5017770000000  0.4796250000000 1.0
C      1  0.4940610000000  0.5319540000000  0.4755310000000 1.0
C      1  0.4714730000000  0.4972970000000  0.4425140000000 1.0
C      1  0.5238190000000  0.4777610000000  0.5669090000000 1.0
C      1  0.4726400000000  0.4828790000000  0.4720700000000 1.0
C      1  0.4988280000000  0.5149910000000  0.5397820000000 1.0
C      1  0.4781890000000  0.5452680000000  0.5019430000000 1.0
C      1  0.4652710000000  0.4509650000000  0.4629300000000 1.0
C      1  0.4917450000000  0.4327420000000  0.4857620000000 1.0
C      1  0.5205580000000  0.5498480000000  0.4643620000000 1.0
C      1  0.5208590000000  0.5235480000000  0.4470480000000 1.0
C      1  0.5184980000000  0.5304010000000  0.5625710000000 1.0
C      1  0.5187230000000  0.4948210000000  0.5019080000000 1.0
C      1  0.4433820000000  0.5049320000000  0.5130570000000 1.0
C      1  0.5440560000000  0.4825430000000  0.4735300000000 1.0
C      1  0.4588770000000  0.4360260000000  0.4906420000000 1.0
C      1  0.5296310000000  0.5495760000000  0.4940130000000 1.0
C      1  0.5166860000000  0.4907430000000  0.4293310000000 1.0
END
