TITL C-2622963-3633-471 -0.000512148605749393 125000 -286.065778261898 0 0 53 (C1) n - 1
REM
REM in /nfs/bkarasulu/CARBON/AIRSS/Generating-Clusters/AIREBO/with-SteepDescent/Higher-Symm/SD-CG/HFTN-CG
REM
REM
REM
REM
REM
REM ./C.cell (b20cbc046b6831c77cfcea5457e17084)
REM
REM compiler GCC version 9.2.1 20190827 (Red Hat 9.2.1-1)
REM options -cpp -mtune=generic -march=x86-64 -g -O0 -fpre-include=/usr/include/finclude/math-vector-fortran.h
REM seed 1937379622 93256986 -1495548763 -1511558166 473885352 -356656686 1730388241 1086177527 1937893356 287762497 -2144256688 -1117177541 918800825 560585560 -533059288 1685519810 -2058153346 142401446 -40667383 -1251884956 -1369386213 -485996848 197828187 -366848978 -381701234 -510750954 -1690913530 -2017628256 -173017530 -198520813 1168431083 -607742469 -924199848
REM
CELL 1.54180   50.00000   50.00000   50.00000   90.00000   90.00000   90.00000
LATT -1
SFAC C  
C      1  0.4792040000000  0.5469240000000  0.5348520000000 1.0
C      1  0.5406120000000  0.5392340000000  0.5588100000000 1.0
C      1  0.5555820000000  0.4889950000000  0.5313700000000 1.0
C      1  0.4954780000000  0.4503610000000  0.5347870000000 1.0
C      1  0.4442770000000  0.4990790000000  0.5357500000000 1.0
C      1  0.4691900000000  0.4496280000000  0.4620810000000 1.0
C      1  0.5339030000000  0.4638390000000  0.4503290000000 1.0
C      1  0.5452570000000  0.5200240000000  0.4668160000000 1.0
C      1  0.4912140000000  0.5481990000000  0.4688840000000 1.0
C      1  0.4407970000000  0.5095100000000  0.4602530000000 1.0
C      1  0.5763440000000  0.5110260000000  0.5378680000000 1.0
C      1  0.5274530000000  0.4423420000000  0.5367290000000 1.0
C      1  0.4456230000000  0.4669830000000  0.5301800000000 1.0
C      1  0.4486050000000  0.5478210000000  0.5293720000000 1.0
C      1  0.5215260000000  0.5649860000000  0.5542840000000 1.0
C      1  0.5669610000000  0.4994710000000  0.4607530000000 1.0
C      1  0.5181880000000  0.5641030000000  0.4694980000000 1.0
C      1  0.4433590000000  0.5410360000000  0.4584330000000 1.0
C      1  0.4388800000000  0.4589090000000  0.4657570000000 1.0
C      1  0.5187270000000  0.4365060000000  0.4596070000000 1.0
C      1  0.5159350000000  0.5278090000000  0.5407120000000 1.0
C      1  0.5282840000000  0.5056360000000  0.5210580000000 1.0
C      1  0.5125910000000  0.4785820000000  0.5292780000000 1.0
C      1  0.4756790000000  0.4929000000000  0.5252390000000 1.0
C      1  0.4911640000000  0.5203370000000  0.5186510000000 1.0
C      1  0.5126640000000  0.4757750000000  0.4741060000000 1.0
C      1  0.5206850000000  0.5057130000000  0.4808190000000 1.0
C      1  0.4971700000000  0.5227520000000  0.4896800000000 1.0
C      1  0.4726930000000  0.5129610000000  0.4707510000000 1.0
C      1  0.4708420000000  0.4799340000000  0.4774200000000 1.0
C      1  0.5332910000000  0.4862210000000  0.5554890000000 1.0
C      1  0.4814100000000  0.4747650000000  0.5538600000000 1.0
C      1  0.4638630000000  0.5027500000000  0.5619290000000 1.0
C      1  0.4862850000000  0.5253480000000  0.5579530000000 1.0
C      1  0.5301260000000  0.5135300000000  0.5752300000000 1.0
C      1  0.5249060000000  0.5273260000000  0.4424030000000 1.0
C      1  0.4966230000000  0.5223830000000  0.4477940000000 1.0
C      1  0.4600030000000  0.4858740000000  0.4451320000000 1.0
C      1  0.4942990000000  0.4661730000000  0.4485250000000 1.0
C      1  0.5155260000000  0.4764680000000  0.4246500000000 1.0
C      1  0.5470880000000  0.4571620000000  0.5317190000000 1.0
C      1  0.4636010000000  0.4497890000000  0.5283180000000 1.0
C      1  0.4341190000000  0.5270670000000  0.5277620000000 1.0
C      1  0.5006500000000  0.5686650000000  0.5408490000000 1.0
C      1  0.5689540000000  0.5331630000000  0.5478140000000 1.0
C      1  0.5404370000000  0.5520910000000  0.4696890000000 1.0
C      1  0.4618170000000  0.5563440000000  0.4657520000000 1.0
C      1  0.4278920000000  0.4812240000000  0.4684120000000 1.0
C      1  0.4951730000000  0.4300460000000  0.4654280000000 1.0
C      1  0.5618520000000  0.4757890000000  0.4539020000000 1.0
C      1  0.5031610000000  0.4972920000000  0.5631510000000 1.0
C      1  0.4885540000000  0.4957270000000  0.4329490000000 1.0
C      1  0.4938130000000  0.4782720000000  0.5013900000000 1.0
END
