TITL C-2622965-4321-191 -0.000831144512736615 125000 -309.216725867106 0 0 58 (C1) n - 1
REM
REM in /nfs/bkarasulu/CARBON/AIRSS/Generating-Clusters/AIREBO/with-SteepDescent/Higher-Symm/SD-CG/HFTN-CG
REM
REM
REM
REM
REM
REM ./C.cell (b20cbc046b6831c77cfcea5457e17084)
REM
REM compiler GCC version 9.2.1 20190827 (Red Hat 9.2.1-1)
REM options -cpp -mtune=generic -march=x86-64 -g -O0 -fpre-include=/usr/include/finclude/math-vector-fortran.h
REM seed -287757964 905446107 -1773088697 -975623929 -1241793845 -31634301 -1054576058 -340197543 1041326581 -1204522157 1051433849 -683788302 2070057002 -1388689084 -1065709998 -2047341654 1394399208 -355711064 -897040112 996119056 372461857 220128871 -81835288 1679646899 -1656760359 -1254155963 691661625 -1637926627 2004089328 -1180124304 -1449687347 1300614407 -1833983837
REM
CELL 1.54180   50.00000   50.00000   50.00000   90.00000   90.00000   90.00000
LATT -1
SFAC C  
C      1  0.4546380000000  0.4907390000000  0.4405780000000 1.0
C      1  0.4699200000000  0.4844490000000  0.5650250000000 1.0
C      1  0.5777520000000  0.4835550000000  0.4880020000000 1.0
C      1  0.4710150000000  0.5242530000000  0.5515000000000 1.0
C      1  0.5581500000000  0.5266730000000  0.4972630000000 1.0
C      1  0.4687450000000  0.5277590000000  0.4367190000000 1.0
C      1  0.5291660000000  0.5015290000000  0.4864910000000 1.0
C      1  0.4712710000000  0.4956780000000  0.4900790000000 1.0
C      1  0.5067810000000  0.5050180000000  0.5255220000000 1.0
C      1  0.5512160000000  0.4885710000000  0.5068180000000 1.0
C      1  0.4824330000000  0.4975850000000  0.4586590000000 1.0
C      1  0.4574830000000  0.4844870000000  0.5363280000000 1.0
C      1  0.4907300000000  0.4648480000000  0.4627310000000 1.0
C      1  0.4700410000000  0.4534670000000  0.5302590000000 1.0
C      1  0.5343780000000  0.4595370000000  0.5122850000000 1.0
C      1  0.5146790000000  0.5644020000000  0.4726690000000 1.0
C      1  0.4684430000000  0.5681730000000  0.4916810000000 1.0
C      1  0.5070930000000  0.5735370000000  0.5285350000000 1.0
C      1  0.4753840000000  0.4572850000000  0.5772850000000 1.0
C      1  0.5737690000000  0.4590720000000  0.4753080000000 1.0
C      1  0.4481420000000  0.4643360000000  0.4450680000000 1.0
C      1  0.5172910000000  0.5037380000000  0.5566050000000 1.0
C      1  0.5423080000000  0.5024650000000  0.4559300000000 1.0
C      1  0.4414010000000  0.5060230000000  0.4911240000000 1.0
C      1  0.5261380000000  0.5645210000000  0.5022830000000 1.0
C      1  0.4869060000000  0.5596070000000  0.4730080000000 1.0
C      1  0.4797860000000  0.5629240000000  0.5213980000000 1.0
C      1  0.5255490000000  0.5234640000000  0.4412760000000 1.0
C      1  0.4393170000000  0.5248780000000  0.5154210000000 1.0
C      1  0.5369010000000  0.5253470000000  0.5421670000000 1.0
C      1  0.4999610000000  0.5145990000000  0.4338230000000 1.0
C      1  0.4468620000000  0.5118330000000  0.5403140000000 1.0
C      1  0.5563750000000  0.5141750000000  0.5259110000000 1.0
C      1  0.5042430000000  0.4722880000000  0.5215660000000 1.0
C      1  0.5147410000000  0.4748440000000  0.4813550000000 1.0
C      1  0.4786490000000  0.4681080000000  0.5006790000000 1.0
C      1  0.5276710000000  0.5505370000000  0.4511100000000 1.0
C      1  0.4493400000000  0.5506020000000  0.5120810000000 1.0
C      1  0.5269740000000  0.5485680000000  0.5326940000000 1.0
C      1  0.4392970000000  0.4722920000000  0.4949040000000 1.0
C      1  0.5235400000000  0.4727990000000  0.5576770000000 1.0
C      1  0.5385650000000  0.4709450000000  0.4497070000000 1.0
C      1  0.5421280000000  0.4547550000000  0.4795050000000 1.0
C      1  0.4593150000000  0.4587800000000  0.4742650000000 1.0
C      1  0.4963430000000  0.4578990000000  0.5513460000000 1.0
C      1  0.5442090000000  0.4595360000000  0.5438180000000 1.0
C      1  0.5136530000000  0.4622450000000  0.4386440000000 1.0
C      1  0.4386560000000  0.4550870000000  0.5172590000000 1.0
C      1  0.4877960000000  0.5076500000000  0.5683310000000 1.0
C      1  0.5670230000000  0.5093330000000  0.4765790000000 1.0
C      1  0.4464560000000  0.5149910000000  0.4590010000000 1.0
C      1  0.4855580000000  0.5326470000000  0.5262830000000 1.0
C      1  0.5249480000000  0.5327930000000  0.4948940000000 1.0
C      1  0.4843330000000  0.5306090000000  0.4667220000000 1.0
C      1  0.4844980000000  0.4289110000000  0.5117060000000 1.0
C      1  0.5161720000000  0.4316670000000  0.5053630000000 1.0
C      1  0.4946520000000  0.4368310000000  0.4816070000000 1.0
C      1  0.4942890000000  0.5181880000000  0.4967670000000 1.0
END
