TITL C-2622953-3516-103 0.00092278724898193 125000 -518.106434657542 0 0 96 (C1) n - 1
REM
REM in /nfs/bkarasulu/CARBON/AIRSS/Generating-Clusters/AIREBO/with-SteepDescent/Higher-Symm/SD-CG/HFTN-CG
REM
REM
REM
REM
REM
REM ./C.cell (b20cbc046b6831c77cfcea5457e17084)
REM
REM compiler GCC version 9.2.1 20190827 (Red Hat 9.2.1-1)
REM options -cpp -mtune=generic -march=x86-64 -g -O0 -fpre-include=/usr/include/finclude/math-vector-fortran.h
REM seed 438577291 -424139762 1606348147 1185106477 -2091284576 -1044738066 -830307170 240330782 -199176925 -906332477 1431202214 1738006417 912299131 1238382618 2070463037 -381586396 77844875 664598321 -922372303 318930981 -1023257593 -1779985603 -729798623 837361138 -1182773655 -1008445547 -51536276 -756971255 217637512 1782398230 2100720217 212999609 1419289171
REM
CELL 1.54180   50.00000   50.00000   50.00000   90.00000   90.00000   90.00000
LATT -1
SFAC C  
C      1  0.5440900000000  0.5899590000000  0.5503930000000 1.0
C      1  0.4424060000000  0.4904390000000  0.4508920000000 1.0
C      1  0.5020230000000  0.4985220000000  0.5376270000000 1.0
C      1  0.4267420000000  0.5354020000000  0.4558460000000 1.0
C      1  0.4160750000000  0.5236020000000  0.4816060000000 1.0
C      1  0.5576770000000  0.4834330000000  0.4622180000000 1.0
C      1  0.4593980000000  0.4993660000000  0.4789630000000 1.0
C      1  0.4320810000000  0.5136390000000  0.4382370000000 1.0
C      1  0.5302860000000  0.4905790000000  0.4229370000000 1.0
C      1  0.5646170000000  0.5283050000000  0.4788090000000 1.0
C      1  0.4975130000000  0.4698130000000  0.4609980000000 1.0
C      1  0.5828980000000  0.4625000000000  0.5240760000000 1.0
C      1  0.5540650000000  0.4249560000000  0.5149840000000 1.0
C      1  0.5626620000000  0.5065650000000  0.5479030000000 1.0
C      1  0.5107260000000  0.5452160000000  0.5575810000000 1.0
C      1  0.4733440000000  0.4950120000000  0.5096690000000 1.0
C      1  0.4516450000000  0.5368400000000  0.5682300000000 1.0
C      1  0.5015580000000  0.5365160000000  0.4090540000000 1.0
C      1  0.5134310000000  0.5665760000000  0.4499870000000 1.0
C      1  0.5642620000000  0.4395500000000  0.4869700000000 1.0
C      1  0.5219030000000  0.5096800000000  0.5042170000000 1.0
C      1  0.4668780000000  0.4366830000000  0.4888430000000 1.0
C      1  0.4444680000000  0.5126170000000  0.5794600000000 1.0
C      1  0.5179330000000  0.5357670000000  0.5256890000000 1.0
C      1  0.4563440000000  0.4633180000000  0.4453620000000 1.0
C      1  0.4819680000000  0.5064770000000  0.4575820000000 1.0
C      1  0.5006820000000  0.4384530000000  0.4543740000000 1.0
C      1  0.5498220000000  0.5470520000000  0.5292230000000 1.0
C      1  0.4643020000000  0.4318560000000  0.5372250000000 1.0
C      1  0.5027810000000  0.5776760000000  0.5356860000000 1.0
C      1  0.5389380000000  0.4867170000000  0.5195600000000 1.0
C      1  0.4834760000000  0.4110250000000  0.5536110000000 1.0
C      1  0.4490840000000  0.5285270000000  0.4881360000000 1.0
C      1  0.4878140000000  0.4167480000000  0.5000770000000 1.0
C      1  0.4946930000000  0.5358580000000  0.4336230000000 1.0
C      1  0.4155470000000  0.4700390000000  0.4959780000000 1.0
C      1  0.5034670000000  0.5385080000000  0.4663920000000 1.0
C      1  0.5682060000000  0.5328960000000  0.5461190000000 1.0
C      1  0.5208280000000  0.5659500000000  0.5093730000000 1.0
C      1  0.4872780000000  0.5225750000000  0.5191420000000 1.0
C      1  0.5567260000000  0.4283710000000  0.4623190000000 1.0
C      1  0.4552750000000  0.4837100000000  0.5651850000000 1.0
C      1  0.4875600000000  0.4796810000000  0.4075810000000 1.0
C      1  0.5481960000000  0.5781900000000  0.5254340000000 1.0
C      1  0.5697200000000  0.4909780000000  0.5227040000000 1.0
C      1  0.5660500000000  0.4433540000000  0.5364590000000 1.0
C      1  0.4479900000000  0.5600310000000  0.4636480000000 1.0
C      1  0.4778530000000  0.5512830000000  0.5647950000000 1.0
C      1  0.4412250000000  0.5674920000000  0.4923820000000 1.0
C      1  0.5277080000000  0.5843780000000  0.4746250000000 1.0
C      1  0.4346850000000  0.4417030000000  0.4986180000000 1.0
C      1  0.5658730000000  0.4966410000000  0.4893750000000 1.0
C      1  0.4589860000000  0.5321840000000  0.5353500000000 1.0
C      1  0.5670650000000  0.5371130000000  0.4499470000000 1.0
C      1  0.4463190000000  0.4704340000000  0.4857240000000 1.0
C      1  0.4536000000000  0.4809800000000  0.5335680000000 1.0
C      1  0.5200030000000  0.5182140000000  0.5707160000000 1.0
C      1  0.4730040000000  0.4573070000000  0.5224830000000 1.0
C      1  0.5226260000000  0.4730180000000  0.5466580000000 1.0
C      1  0.5112480000000  0.4223400000000  0.4805300000000 1.0
C      1  0.5759340000000  0.4643890000000  0.4939330000000 1.0
C      1  0.4807600000000  0.4676940000000  0.4908090000000 1.0
C      1  0.5385060000000  0.5004110000000  0.5590990000000 1.0
C      1  0.4799600000000  0.5686280000000  0.4558470000000 1.0
C      1  0.4748650000000  0.5078000000000  0.5539720000000 1.0
C      1  0.5063640000000  0.4516310000000  0.5258040000000 1.0
C      1  0.4780190000000  0.5453910000000  0.4879300000000 1.0
C      1  0.5446050000000  0.5580420000000  0.4613180000000 1.0
C      1  0.4974830000000  0.5031920000000  0.5769810000000 1.0
C      1  0.5101440000000  0.4776190000000  0.5047500000000 1.0
C      1  0.4303170000000  0.4913970000000  0.5174560000000 1.0
C      1  0.5481790000000  0.4523540000000  0.5553940000000 1.0
C      1  0.5014670000000  0.4740860000000  0.5732770000000 1.0
C      1  0.5200750000000  0.5778380000000  0.5600980000000 1.0
C      1  0.5464880000000  0.5122160000000  0.4147340000000 1.0
C      1  0.4222470000000  0.5520250000000  0.5088170000000 1.0
C      1  0.4786230000000  0.5667030000000  0.5400180000000 1.0
C      1  0.5756390000000  0.4912640000000  0.4426910000000 1.0
C      1  0.5111610000000  0.5074890000000  0.4724380000000 1.0
C      1  0.5013630000000  0.4181340000000  0.5289090000000 1.0
C      1  0.5144540000000  0.4774180000000  0.4042890000000 1.0
C      1  0.4669860000000  0.5362100000000  0.4506730000000 1.0
C      1  0.4789030000000  0.4837780000000  0.4362000000000 1.0
C      1  0.4975440000000  0.5730910000000  0.4855540000000 1.0
C      1  0.5304690000000  0.4056600000000  0.5272140000000 1.0
C      1  0.4756530000000  0.4622850000000  0.5749510000000 1.0
C      1  0.4340840000000  0.5225970000000  0.5172310000000 1.0
C      1  0.5689280000000  0.5165990000000  0.4312640000000 1.0
C      1  0.4053010000000  0.5026560000000  0.4979740000000 1.0
C      1  0.4699900000000  0.4360430000000  0.5683750000000 1.0
C      1  0.5268020000000  0.4370780000000  0.5028550000000 1.0
C      1  0.5433810000000  0.5466330000000  0.4927980000000 1.0
C      1  0.5312550000000  0.4237520000000  0.4551110000000 1.0
C      1  0.4683380000000  0.4406480000000  0.4569310000000 1.0
C      1  0.5272140000000  0.4854210000000  0.4544850000000 1.0
C      1  0.4628730000000  0.5592020000000  0.5150670000000 1.0
END
