TITL C-2622966-9038-199 0.000571241507546733 125000 -371.325659365597 0 0 72 (C1) n - 1
REM
REM in /nfs/bkarasulu/CARBON/AIRSS/Generating-Clusters/AIREBO/with-SteepDescent/Higher-Symm/SD-CG/HFTN-CG
REM
REM
REM
REM
REM
REM ./C.cell (b20cbc046b6831c77cfcea5457e17084)
REM
REM compiler GCC version 9.2.1 20190827 (Red Hat 9.2.1-1)
REM options -cpp -mtune=generic -march=x86-64 -g -O0 -fpre-include=/usr/include/finclude/math-vector-fortran.h
REM seed 606114943 -473004681 -1332384168 -1917666436 -1292833696 286964749 1945010777 -1687422512 -512281087 -974696824 -206596367 980172757 147503298 -279981044 2113939886 834864949 931027348 690224419 -1699081975 -729421657 -178798380 -93405694 -1051224566 299977554 1290733006 -174028864 -1565374097 535810961 1026909970 -1833682932 5719828 1485391285 140456112
REM
CELL 1.54180   50.00000   50.00000   50.00000   90.00000   90.00000   90.00000
LATT -1
SFAC C  
C      1  0.4404650000000  0.5430080000000  0.5159560000000 1.0
C      1  0.4356910000000  0.4677020000000  0.5295960000000 1.0
C      1  0.4355150000000  0.4929490000000  0.4570350000000 1.0
C      1  0.5466390000000  0.5203380000000  0.4599570000000 1.0
C      1  0.5381340000000  0.5243450000000  0.5355650000000 1.0
C      1  0.5482970000000  0.4557530000000  0.4994700000000 1.0
C      1  0.4997480000000  0.4675840000000  0.5046760000000 1.0
C      1  0.5039250000000  0.5088380000000  0.4692450000000 1.0
C      1  0.4997810000000  0.5212810000000  0.5246310000000 1.0
C      1  0.4804000000000  0.4647410000000  0.5540630000000 1.0
C      1  0.4807350000000  0.4711170000000  0.4452520000000 1.0
C      1  0.4854100000000  0.5604010000000  0.5009140000000 1.0
C      1  0.5477160000000  0.4721250000000  0.5483080000000 1.0
C      1  0.5486560000000  0.4682090000000  0.4478680000000 1.0
C      1  0.5465990000000  0.5519450000000  0.5056690000000 1.0
C      1  0.4786000000000  0.4386010000000  0.4856930000000 1.0
C      1  0.4810700000000  0.5428530000000  0.4501130000000 1.0
C      1  0.4780220000000  0.5168960000000  0.5656450000000 1.0
C      1  0.5287200000000  0.5164430000000  0.4346440000000 1.0
C      1  0.5192140000000  0.5466860000000  0.5483950000000 1.0
C      1  0.5257020000000  0.4363330000000  0.5136110000000 1.0
C      1  0.5688120000000  0.5260780000000  0.5344550000000 1.0
C      1  0.5780990000000  0.4611690000000  0.5009190000000 1.0
C      1  0.5770920000000  0.5210540000000  0.4617920000000 1.0
C      1  0.5312210000000  0.4993590000000  0.4812780000000 1.0
C      1  0.5251000000000  0.5182900000000  0.5067550000000 1.0
C      1  0.5281580000000  0.4765360000000  0.5138290000000 1.0
C      1  0.5306570000000  0.5661400000000  0.5229630000000 1.0
C      1  0.5407580000000  0.4440480000000  0.5432560000000 1.0
C      1  0.5404700000000  0.4857150000000  0.4255140000000 1.0
C      1  0.4265650000000  0.4612880000000  0.4942930000000 1.0
C      1  0.4292970000000  0.5276840000000  0.4688250000000 1.0
C      1  0.4279660000000  0.5170720000000  0.5393390000000 1.0
C      1  0.5033550000000  0.5785950000000  0.4804020000000 1.0
C      1  0.5020070000000  0.4730580000000  0.5802060000000 1.0
C      1  0.4991490000000  0.4419620000000  0.4377200000000 1.0
C      1  0.5913660000000  0.5126030000000  0.4839570000000 1.0
C      1  0.5842140000000  0.5140040000000  0.5152830000000 1.0
C      1  0.5905900000000  0.4856740000000  0.5015760000000 1.0
C      1  0.4989110000000  0.4625920000000  0.4727110000000 1.0
C      1  0.4970290000000  0.5392350000000  0.4799210000000 1.0
C      1  0.4932320000000  0.4949370000000  0.5451090000000 1.0
C      1  0.4673420000000  0.4392890000000  0.5356500000000 1.0
C      1  0.4679980000000  0.4981040000000  0.4289230000000 1.0
C      1  0.4694910000000  0.5605370000000  0.5472590000000 1.0
C      1  0.5156190000000  0.5856430000000  0.5079460000000 1.0
C      1  0.5168560000000  0.4522540000000  0.5639610000000 1.0
C      1  0.5151700000000  0.4653890000000  0.4264060000000 1.0
C      1  0.5309450000000  0.5390760000000  0.4805500000000 1.0
C      1  0.5261710000000  0.4950130000000  0.5391810000000 1.0
C      1  0.5321910000000  0.4696840000000  0.4747420000000 1.0
C      1  0.4465630000000  0.4675410000000  0.5558820000000 1.0
C      1  0.4473240000000  0.4681100000000  0.4488820000000 1.0
C      1  0.4542860000000  0.5637250000000  0.5026340000000 1.0
C      1  0.4574210000000  0.4545880000000  0.5069500000000 1.0
C      1  0.4587880000000  0.5176810000000  0.4551550000000 1.0
C      1  0.4599050000000  0.5287430000000  0.5399390000000 1.0
C      1  0.5018380000000  0.5006500000000  0.5836740000000 1.0
C      1  0.4963120000000  0.4249370000000  0.4600820000000 1.0
C      1  0.5029360000000  0.5690520000000  0.4541910000000 1.0
C      1  0.5053730000000  0.4942500000000  0.4414910000000 1.0
C      1  0.4934380000000  0.5532340000000  0.5295420000000 1.0
C      1  0.5034480000000  0.4517230000000  0.5327180000000 1.0
C      1  0.4250080000000  0.5218650000000  0.4999120000000 1.0
C      1  0.4227090000000  0.4929390000000  0.5184180000000 1.0
C      1  0.4221000000000  0.4917240000000  0.4844430000000 1.0
C      1  0.4749070000000  0.5059630000000  0.4806980000000 1.0
C      1  0.4719400000000  0.5126180000000  0.5127240000000 1.0
C      1  0.4727510000000  0.4824150000000  0.5033950000000 1.0
C      1  0.5080720000000  0.5315740000000  0.5729740000000 1.0
C      1  0.5089260000000  0.4236040000000  0.4911380000000 1.0
C      1  0.5110840000000  0.5428350000000  0.4341330000000 1.0
END
