TITL C-2622962-9663-297 -0.00154427151728013 125000 -689.701176188244 0 0 131 (C1) n - 1
REM
REM in /nfs/bkarasulu/CARBON/AIRSS/Generating-Clusters/AIREBO/with-SteepDescent/Higher-Symm/SD-CG/HFTN-CG
REM
REM
REM
REM
REM
REM ./C.cell (b20cbc046b6831c77cfcea5457e17084)
REM
REM compiler GCC version 9.2.1 20190827 (Red Hat 9.2.1-1)
REM options -cpp -mtune=generic -march=x86-64 -g -O0 -fpre-include=/usr/include/finclude/math-vector-fortran.h
REM seed 1679291372 1153116446 -717536954 -1850954980 -2075945772 2131099407 952372264 1555492711 -2035655591 -1174667976 695967299 1163094440 -217722957 852393738 -1194411116 -673930539 -142301211 -820459426 235951165 1391546046 1845486403 516925966 904164325 231096041 745724014 399244326 446282100 752409440 -690225945 790105049 2042731570 -2031578652 -963908011
REM
CELL 1.54180   50.00000   50.00000   50.00000   90.00000   90.00000   90.00000
LATT -1
SFAC C  
C      1  0.5695610000000  0.4469640000000  0.4884740000000 1.0
C      1  0.4582630000000  0.4440560000000  0.5538240000000 1.0
C      1  0.5181490000000  0.5211880000000  0.5483030000000 1.0
C      1  0.4337820000000  0.4991560000000  0.5590580000000 1.0
C      1  0.4481270000000  0.4423100000000  0.4355940000000 1.0
C      1  0.4570020000000  0.5900250000000  0.5193310000000 1.0
C      1  0.5157620000000  0.4285140000000  0.4957820000000 1.0
C      1  0.4413730000000  0.4520180000000  0.4668700000000 1.0
C      1  0.5451440000000  0.5446800000000  0.4308770000000 1.0
C      1  0.4626110000000  0.5295740000000  0.4713850000000 1.0
C      1  0.4649440000000  0.5140730000000  0.5389300000000 1.0
C      1  0.4666600000000  0.4677030000000  0.5312240000000 1.0
C      1  0.5037830000000  0.4935490000000  0.4566360000000 1.0
C      1  0.4627120000000  0.4584020000000  0.4925910000000 1.0
C      1  0.4850120000000  0.4550670000000  0.4429350000000 1.0
C      1  0.4876340000000  0.5682910000000  0.5014520000000 1.0
C      1  0.5317010000000  0.4766500000000  0.5483530000000 1.0
C      1  0.5053060000000  0.4618980000000  0.5387010000000 1.0
C      1  0.4736070000000  0.5087170000000  0.4108690000000 1.0
C      1  0.4805660000000  0.5039860000000  0.6116650000000 1.0
C      1  0.4938260000000  0.5024040000000  0.5366060000000 1.0
C      1  0.4553130000000  0.5242510000000  0.5672220000000 1.0
C      1  0.4140880000000  0.5447950000000  0.5195200000000 1.0
C      1  0.5301190000000  0.4939320000000  0.5749790000000 1.0
C      1  0.5650240000000  0.4235630000000  0.5084850000000 1.0
C      1  0.4315190000000  0.4988680000000  0.4345300000000 1.0
C      1  0.4975150000000  0.6002270000000  0.4797570000000 1.0
C      1  0.5488180000000  0.5820250000000  0.5008740000000 1.0
C      1  0.5739870000000  0.4732810000000  0.4674020000000 1.0
C      1  0.4214660000000  0.5301290000000  0.4629500000000 1.0
C      1  0.4436480000000  0.5059820000000  0.4719440000000 1.0
C      1  0.4173360000000  0.4403640000000  0.4804140000000 1.0
C      1  0.5516780000000  0.5242150000000  0.5003510000000 1.0
C      1  0.4374000000000  0.4388980000000  0.5274580000000 1.0
C      1  0.4572740000000  0.3980810000000  0.4538750000000 1.0
C      1  0.5279730000000  0.4242820000000  0.4643110000000 1.0
C      1  0.5495160000000  0.5158210000000  0.5576360000000 1.0
C      1  0.5361370000000  0.5706770000000  0.4753100000000 1.0
C      1  0.5346710000000  0.5769730000000  0.5256470000000 1.0
C      1  0.4161770000000  0.4317410000000  0.5041130000000 1.0
C      1  0.5865240000000  0.5575010000000  0.4764520000000 1.0
C      1  0.6060520000000  0.5320830000000  0.4890590000000 1.0
C      1  0.5049990000000  0.5399890000000  0.5702250000000 1.0
C      1  0.4695080000000  0.5892670000000  0.4817200000000 1.0
C      1  0.5328150000000  0.5139140000000  0.4220250000000 1.0
C      1  0.5595630000000  0.5625820000000  0.4559540000000 1.0
C      1  0.4505730000000  0.4728000000000  0.4333780000000 1.0
C      1  0.4861410000000  0.4798660000000  0.4804790000000 1.0
C      1  0.4506880000000  0.4736520000000  0.5674060000000 1.0
C      1  0.4731910000000  0.4059100000000  0.5166500000000 1.0
C      1  0.4792130000000  0.5403190000000  0.4218860000000 1.0
C      1  0.5623190000000  0.4540630000000  0.5746670000000 1.0
C      1  0.4294520000000  0.5350330000000  0.4953300000000 1.0
C      1  0.5328150000000  0.4422060000000  0.4371120000000 1.0
C      1  0.4484970000000  0.4828930000000  0.5114150000000 1.0
C      1  0.4623470000000  0.5609800000000  0.5314950000000 1.0
C      1  0.5769610000000  0.5281100000000  0.4627230000000 1.0
C      1  0.4491650000000  0.5248660000000  0.4266410000000 1.0
C      1  0.4406540000000  0.5869590000000  0.4917410000000 1.0
C      1  0.5207870000000  0.5215870000000  0.5143310000000 1.0
C      1  0.5677630000000  0.5304580000000  0.5253430000000 1.0
C      1  0.5935270000000  0.5064580000000  0.4763610000000 1.0
C      1  0.5753340000000  0.4973410000000  0.5487050000000 1.0
C      1  0.5014780000000  0.5002200000000  0.5778890000000 1.0
C      1  0.5134720000000  0.5545210000000  0.5187580000000 1.0
C      1  0.5948860000000  0.5163860000000  0.5315140000000 1.0
C      1  0.4989390000000  0.4185340000000  0.5224430000000 1.0
C      1  0.4817560000000  0.5245210000000  0.5862940000000 1.0
C      1  0.5550020000000  0.4484360000000  0.5258250000000 1.0
C      1  0.4923520000000  0.4394560000000  0.4736530000000 1.0
C      1  0.5020860000000  0.4942240000000  0.5066970000000 1.0
C      1  0.4559210000000  0.4126590000000  0.4309370000000 1.0
C      1  0.4557080000000  0.4263840000000  0.5016360000000 1.0
C      1  0.5088900000000  0.4715550000000  0.4104210000000 1.0
C      1  0.4413620000000  0.5503620000000  0.4446350000000 1.0
C      1  0.5100590000000  0.4235410000000  0.5498250000000 1.0
C      1  0.5000290000000  0.5643190000000  0.4362250000000 1.0
C      1  0.4451440000000  0.5580410000000  0.4778500000000 1.0
C      1  0.5682940000000  0.4774950000000  0.5237980000000 1.0
C      1  0.4988020000000  0.5316780000000  0.4901240000000 1.0
C      1  0.6142900000000  0.5264690000000  0.5156970000000 1.0
C      1  0.4733870000000  0.5771320000000  0.5662470000000 1.0
C      1  0.4284130000000  0.4681590000000  0.5425800000000 1.0
C      1  0.4809230000000  0.4304330000000  0.4230620000000 1.0
C      1  0.5396150000000  0.4952680000000  0.5248210000000 1.0
C      1  0.5147340000000  0.4410180000000  0.5798060000000 1.0
C      1  0.5100920000000  0.4426610000000  0.4145390000000 1.0
C      1  0.5534960000000  0.5483340000000  0.5501470000000 1.0
C      1  0.5371570000000  0.4436200000000  0.5543660000000 1.0
C      1  0.4832010000000  0.4328480000000  0.5684940000000 1.0
C      1  0.5762140000000  0.4660590000000  0.4200760000000 1.0
C      1  0.4853460000000  0.5210510000000  0.4487370000000 1.0
C      1  0.5513040000000  0.4704880000000  0.4413600000000 1.0
C      1  0.4526900000000  0.5579840000000  0.5705800000000 1.0
C      1  0.4893070000000  0.5995740000000  0.5146750000000 1.0
C      1  0.5134230000000  0.4609510000000  0.4578190000000 1.0
C      1  0.5616340000000  0.4991660000000  0.4856720000000 1.0
C      1  0.5872240000000  0.4724060000000  0.4989130000000 1.0
C      1  0.4589080000000  0.4838230000000  0.4622380000000 1.0
C      1  0.5421710000000  0.4081240000000  0.5023640000000 1.0
C      1  0.4714580000000  0.5393750000000  0.5091040000000 1.0
C      1  0.4351390000000  0.5500810000000  0.5443360000000 1.0
C      1  0.5141850000000  0.5334720000000  0.4393750000000 1.0
C      1  0.4157080000000  0.4980750000000  0.4886600000000 1.0
C      1  0.5054150000000  0.4022620000000  0.4677950000000 1.0
C      1  0.5620040000000  0.4824770000000  0.5751290000000 1.0
C      1  0.4939970000000  0.5658370000000  0.5430700000000 1.0
C      1  0.4745510000000  0.6005400000000  0.5455590000000 1.0
C      1  0.5255360000000  0.5627540000000  0.5554330000000 1.0
C      1  0.4081400000000  0.5005210000000  0.4554810000000 1.0
C      1  0.4681750000000  0.5687650000000  0.4472600000000 1.0
C      1  0.5756020000000  0.5736260000000  0.5029030000000 1.0
C      1  0.5259910000000  0.4548050000000  0.5138510000000 1.0
C      1  0.5476250000000  0.5246110000000  0.4582150000000 1.0
C      1  0.4815710000000  0.4788870000000  0.6101900000000 1.0
C      1  0.5318990000000  0.4866770000000  0.4186090000000 1.0
C      1  0.5125170000000  0.5832930000000  0.4616240000000 1.0
C      1  0.5415010000000  0.4526710000000  0.4772500000000 1.0
C      1  0.4810700000000  0.4817310000000  0.4221600000000 1.0
C      1  0.4866900000000  0.4480520000000  0.5149670000000 1.0
C      1  0.4190630000000  0.5207500000000  0.5411100000000 1.0
C      1  0.4843180000000  0.5540070000000  0.4710170000000 1.0
C      1  0.5767950000000  0.5613920000000  0.5287220000000 1.0
C      1  0.5254270000000  0.4783670000000  0.4915460000000 1.0
C      1  0.4834950000000  0.4786780000000  0.5586770000000 1.0
C      1  0.4191920000000  0.4938140000000  0.5222140000000 1.0
C      1  0.4895400000000  0.4607150000000  0.5869160000000 1.0
C      1  0.4738260000000  0.4111310000000  0.4771950000000 1.0
C      1  0.5302590000000  0.5403870000000  0.4805970000000 1.0
C      1  0.4503600000000  0.5155750000000  0.5100000000000 1.0
C      1  0.5371740000000  0.4926080000000  0.4629830000000 1.0
END
