TITL C-2622968-4806-304 0.00519910265647628 125000 -774.481620299527 0 0 142 (C1) n - 1
REM
REM in /nfs/bkarasulu/CARBON/AIRSS/Generating-Clusters/AIREBO/with-SteepDescent/Higher-Symm/SD-CG/HFTN-CG
REM
REM
REM
REM
REM
REM ./C.cell (b20cbc046b6831c77cfcea5457e17084)
REM
REM compiler GCC version 9.2.1 20190827 (Red Hat 9.2.1-1)
REM options -cpp -mtune=generic -march=x86-64 -g -O0 -fpre-include=/usr/include/finclude/math-vector-fortran.h
REM seed 1902789436 -240548400 1241593687 749607417 -768844346 1359930558 -332025860 1998339155 1064747836 -1705144008 -601187304 758352433 333437813 693756859 -1683883586 69693207 993708242 327734467 71010246 2026680344 539973752 1567070995 -1352206776 -180594109 1580484916 -1822601052 -153902971 -1711286843 -113160698 -376618794 -1457856708 946099683 827026845
REM
CELL 1.54180   50.00000   50.00000   50.00000   90.00000   90.00000   90.00000
LATT -1
SFAC C  
C      1  0.4785960000000  0.4824210000000  0.5161160000000 1.0
C      1  0.4728130000000  0.4883830000000  0.4831380000000 1.0
C      1  0.5130610000000  0.5753390000000  0.4457950000000 1.0
C      1  0.5145310000000  0.5722080000000  0.5529220000000 1.0
C      1  0.4142470000000  0.5249900000000  0.4721890000000 1.0
C      1  0.4011220000000  0.5266030000000  0.5340430000000 1.0
C      1  0.4437010000000  0.4835730000000  0.5987040000000 1.0
C      1  0.4588280000000  0.4880120000000  0.4013380000000 1.0
C      1  0.5450000000000  0.5183910000000  0.4192560000000 1.0
C      1  0.5469250000000  0.5158590000000  0.5813800000000 1.0
C      1  0.4885890000000  0.5309690000000  0.5877580000000 1.0
C      1  0.4895570000000  0.5277270000000  0.4060100000000 1.0
C      1  0.5236290000000  0.6050020000000  0.4858590000000 1.0
C      1  0.5251910000000  0.6032950000000  0.5129190000000 1.0
C      1  0.5913900000000  0.4734720000000  0.5127150000000 1.0
C      1  0.5909320000000  0.4698160000000  0.4819000000000 1.0
C      1  0.4801700000000  0.5072860000000  0.5569670000000 1.0
C      1  0.4782140000000  0.5074930000000  0.4446160000000 1.0
C      1  0.4226380000000  0.5738410000000  0.4790770000000 1.0
C      1  0.4270760000000  0.5659770000000  0.5336030000000 1.0
C      1  0.4102750000000  0.5487770000000  0.5187150000000 1.0
C      1  0.4126190000000  0.5486460000000  0.4897750000000 1.0
C      1  0.5154310000000  0.5295080000000  0.4147520000000 1.0
C      1  0.5194010000000  0.5315610000000  0.5854930000000 1.0
C      1  0.4731020000000  0.5966890000000  0.5149010000000 1.0
C      1  0.4717280000000  0.5962430000000  0.4863740000000 1.0
C      1  0.4974980000000  0.5093070000000  0.5200460000000 1.0
C      1  0.5013040000000  0.5061880000000  0.4770160000000 1.0
C      1  0.5781320000000  0.4962450000000  0.4405750000000 1.0
C      1  0.5793980000000  0.4902240000000  0.5613350000000 1.0
C      1  0.5636340000000  0.4207190000000  0.4527870000000 1.0
C      1  0.5680620000000  0.4251030000000  0.5520100000000 1.0
C      1  0.4438130000000  0.5521380000000  0.5592210000000 1.0
C      1  0.4493580000000  0.5443850000000  0.4363890000000 1.0
C      1  0.4130890000000  0.4592740000000  0.5104430000000 1.0
C      1  0.4142830000000  0.4661590000000  0.4833850000000 1.0
C      1  0.5001660000000  0.4198570000000  0.4425780000000 1.0
C      1  0.5036400000000  0.4160020000000  0.5594860000000 1.0
C      1  0.4547980000000  0.4597000000000  0.4861880000000 1.0
C      1  0.4524000000000  0.4521030000000  0.5144540000000 1.0
C      1  0.5067720000000  0.4920650000000  0.4344790000000 1.0
C      1  0.5081780000000  0.4952140000000  0.5668240000000 1.0
C      1  0.5407540000000  0.5423500000000  0.5243750000000 1.0
C      1  0.5403040000000  0.5449310000000  0.4744280000000 1.0
C      1  0.5524260000000  0.5114880000000  0.5161380000000 1.0
C      1  0.5554000000000  0.5177650000000  0.4825940000000 1.0
C      1  0.4677050000000  0.4247360000000  0.4316400000000 1.0
C      1  0.4713690000000  0.4265960000000  0.5615270000000 1.0
C      1  0.4695590000000  0.4785540000000  0.5474450000000 1.0
C      1  0.4629510000000  0.4799510000000  0.4516970000000 1.0
C      1  0.4398680000000  0.4439440000000  0.4382310000000 1.0
C      1  0.4439120000000  0.4406530000000  0.5518110000000 1.0
C      1  0.4960590000000  0.5756760000000  0.5730380000000 1.0
C      1  0.4943280000000  0.5782140000000  0.4254700000000 1.0
C      1  0.4773600000000  0.5575180000000  0.4295140000000 1.0
C      1  0.4727900000000  0.5609400000000  0.5674070000000 1.0
C      1  0.4307660000000  0.4473620000000  0.4668620000000 1.0
C      1  0.4260300000000  0.4354570000000  0.5280100000000 1.0
C      1  0.5224010000000  0.4410540000000  0.5715330000000 1.0
C      1  0.5233010000000  0.4414990000000  0.4302250000000 1.0
C      1  0.4900270000000  0.4754400000000  0.6126390000000 1.0
C      1  0.4963000000000  0.4630960000000  0.3927330000000 1.0
C      1  0.4700480000000  0.4406450000000  0.4678090000000 1.0
C      1  0.4794170000000  0.4421000000000  0.5255670000000 1.0
C      1  0.5361660000000  0.4207340000000  0.5500170000000 1.0
C      1  0.5329420000000  0.4204330000000  0.4524980000000 1.0
C      1  0.5530980000000  0.5578110000000  0.4276940000000 1.0
C      1  0.5610220000000  0.5568820000000  0.5678710000000 1.0
C      1  0.5061980000000  0.4623820000000  0.4452580000000 1.0
C      1  0.5038460000000  0.4634250000000  0.5609980000000 1.0
C      1  0.5038370000000  0.5872240000000  0.5260390000000 1.0
C      1  0.5021450000000  0.5887570000000  0.4729170000000 1.0
C      1  0.5438110000000  0.4296500000000  0.4856100000000 1.0
C      1  0.5484360000000  0.4296470000000  0.5186350000000 1.0
C      1  0.4596510000000  0.5173630000000  0.4184840000000 1.0
C      1  0.4572360000000  0.5248960000000  0.5748710000000 1.0
C      1  0.4596920000000  0.5230490000000  0.4685120000000 1.0
C      1  0.4664470000000  0.5185470000000  0.5281170000000 1.0
C      1  0.4331450000000  0.5023780000000  0.5724150000000 1.0
C      1  0.4303030000000  0.5019490000000  0.4269550000000 1.0
C      1  0.5921920000000  0.5323800000000  0.4841160000000 1.0
C      1  0.5892630000000  0.5288570000000  0.5118950000000 1.0
C      1  0.5447440000000  0.4560200000000  0.4131790000000 1.0
C      1  0.5379490000000  0.4552350000000  0.5939900000000 1.0
C      1  0.4929830000000  0.5386210000000  0.5549150000000 1.0
C      1  0.4935360000000  0.5366380000000  0.4474770000000 1.0
C      1  0.4625010000000  0.5482070000000  0.5309860000000 1.0
C      1  0.4627120000000  0.5537600000000  0.4662560000000 1.0
C      1  0.4196290000000  0.4925180000000  0.4748860000000 1.0
C      1  0.4344270000000  0.4744710000000  0.5293180000000 1.0
C      1  0.5621100000000  0.5246930000000  0.4480560000000 1.0
C      1  0.5586390000000  0.5138240000000  0.5495000000000 1.0
C      1  0.4734920000000  0.4659990000000  0.4069970000000 1.0
C      1  0.4674590000000  0.4699870000000  0.5982090000000 1.0
C      1  0.4888820000000  0.5602160000000  0.5134430000000 1.0
C      1  0.4890110000000  0.5604470000000  0.4833710000000 1.0
C      1  0.5265930000000  0.5442200000000  0.4433150000000 1.0
C      1  0.5324590000000  0.5433740000000  0.5564040000000 1.0
C      1  0.5770160000000  0.5549700000000  0.4439400000000 1.0
C      1  0.5788460000000  0.5629990000000  0.5473580000000 1.0
C      1  0.4250600000000  0.5261790000000  0.4441010000000 1.0
C      1  0.4198680000000  0.5090460000000  0.5430170000000 1.0
C      1  0.5022490000000  0.4040720000000  0.4718770000000 1.0
C      1  0.4962320000000  0.4126690000000  0.5283160000000 1.0
C      1  0.5835670000000  0.5016420000000  0.4724110000000 1.0
C      1  0.5844590000000  0.5003200000000  0.5186590000000 1.0
C      1  0.5248250000000  0.5116170000000  0.4529130000000 1.0
C      1  0.5261810000000  0.5110380000000  0.5478150000000 1.0
C      1  0.5148790000000  0.4796450000000  0.5957980000000 1.0
C      1  0.5190340000000  0.4765820000000  0.4066140000000 1.0
C      1  0.4395550000000  0.4719140000000  0.5608720000000 1.0
C      1  0.4342570000000  0.4774460000000  0.4408660000000 1.0
C      1  0.5124460000000  0.4327460000000  0.4842880000000 1.0
C      1  0.5174640000000  0.4356910000000  0.5150800000000 1.0
C      1  0.4505890000000  0.5797550000000  0.4764550000000 1.0
C      1  0.4537580000000  0.5805040000000  0.5260500000000 1.0
C      1  0.4752710000000  0.4166490000000  0.4796520000000 1.0
C      1  0.4698780000000  0.4147590000000  0.5069280000000 1.0
C      1  0.5492900000000  0.4882580000000  0.4567310000000 1.0
C      1  0.5542890000000  0.4741910000000  0.5492970000000 1.0
C      1  0.5086910000000  0.4598980000000  0.4747170000000 1.0
C      1  0.5046880000000  0.4646340000000  0.5287320000000 1.0
C      1  0.5096700000000  0.3812060000000  0.4906950000000 1.0
C      1  0.5072640000000  0.3846860000000  0.5157200000000 1.0
C      1  0.4417610000000  0.5038570000000  0.5202040000000 1.0
C      1  0.4443530000000  0.5057130000000  0.4899370000000 1.0
C      1  0.5429850000000  0.6171970000000  0.5284110000000 1.0
C      1  0.5385770000000  0.6220170000000  0.4704520000000 1.0
C      1  0.5719580000000  0.4433030000000  0.4722350000000 1.0
C      1  0.5754900000000  0.4480210000000  0.5280040000000 1.0
C      1  0.5258960000000  0.4906050000000  0.5203490000000 1.0
C      1  0.5135140000000  0.4814420000000  0.4900240000000 1.0
C      1  0.5070940000000  0.5385090000000  0.5259810000000 1.0
C      1  0.5084760000000  0.5379830000000  0.4779920000000 1.0
C      1  0.5735570000000  0.5523320000000  0.4740220000000 1.0
C      1  0.5728010000000  0.5477560000000  0.5240920000000 1.0
C      1  0.5444630000000  0.4846730000000  0.5796560000000 1.0
C      1  0.5449610000000  0.4874330000000  0.4237800000000 1.0
C      1  0.4745580000000  0.4565700000000  0.5719680000000 1.0
C      1  0.4776390000000  0.4560970000000  0.4384810000000 1.0
C      1  0.5519510000000  0.4692560000000  0.5157090000000 1.0
C      1  0.5577160000000  0.4727940000000  0.4823680000000 1.0
END
