TITL C-2622958-629-817 -884.43710409838 125000 -783.699761748587 0 0 144 (C1) n - 1
REM
REM in /nfs/bkarasulu/CARBON/AIRSS/Generating-Clusters/AIREBO/with-SteepDescent/Higher-Symm/SD-CG/HFTN-CG
REM
REM
REM
REM
REM
REM ./C.cell (b20cbc046b6831c77cfcea5457e17084)
REM
REM compiler GCC version 9.2.1 20190827 (Red Hat 9.2.1-1)
REM options -cpp -mtune=generic -march=x86-64 -g -O0 -fpre-include=/usr/include/finclude/math-vector-fortran.h
REM seed 1484278593 -273767955 2093704557 627302657 704267674 492086311 928998300 -351041370 1042681740 1609250206 -796490310 -196182328 1205200703 1862427235 1227437180 -267425524 1549837524 1572739355 748859058 618657953 1308369257 787426615 -792073421 -1643344272 -1938175708 868223549 184223901 1773216304 -1279898858 1871245151 -1156085663 355810445 -1949331438
REM
CELL 1.54180   50.00000   50.00000   50.00000   90.00000   90.00000   90.00000
LATT -1
SFAC C  
C      1  0.4609170000000  0.4297090000000  0.5418520000000 1.0
C      1  0.4432350000000  0.5681030000000  0.5430790000000 1.0
C      1  0.5855870000000  0.5042580000000  0.5538330000000 1.0
C      1  0.4731320000000  0.4245490000000  0.4544390000000 1.0
C      1  0.4497520000000  0.5688230000000  0.4548210000000 1.0
C      1  0.5888230000000  0.5097320000000  0.4572740000000 1.0
C      1  0.5275990000000  0.5572470000000  0.4859890000000 1.0
C      1  0.5303540000000  0.4465420000000  0.4810770000000 1.0
C      1  0.4445760000000  0.4976180000000  0.4795010000000 1.0
C      1  0.5246350000000  0.5541020000000  0.5182760000000 1.0
C      1  0.5298820000000  0.4503210000000  0.5113140000000 1.0
C      1  0.4425870000000  0.5094780000000  0.5096250000000 1.0
C      1  0.4420100000000  0.4579760000000  0.4841720000000 1.0
C      1  0.4876600000000  0.5720220000000  0.4938840000000 1.0
C      1  0.5740840000000  0.4682480000000  0.4858510000000 1.0
C      1  0.4466650000000  0.4606290000000  0.5177230000000 1.0
C      1  0.4918790000000  0.5755750000000  0.5257130000000 1.0
C      1  0.5612620000000  0.4782680000000  0.5157530000000 1.0
C      1  0.5261710000000  0.5332700000000  0.4125180000000 1.0
C      1  0.5372160000000  0.4570810000000  0.4156730000000 1.0
C      1  0.4381230000000  0.4946290000000  0.4203320000000 1.0
C      1  0.5198780000000  0.5520110000000  0.5856700000000 1.0
C      1  0.5221920000000  0.4469310000000  0.5929470000000 1.0
C      1  0.4437600000000  0.4959760000000  0.5888440000000 1.0
C      1  0.5089600000000  0.5821360000000  0.4718270000000 1.0
C      1  0.5774560000000  0.4431330000000  0.4661840000000 1.0
C      1  0.4153490000000  0.4622220000000  0.4688820000000 1.0
C      1  0.5117810000000  0.5962680000000  0.5353640000000 1.0
C      1  0.5728640000000  0.4541070000000  0.5346800000000 1.0
C      1  0.4157140000000  0.4601030000000  0.5305920000000 1.0
C      1  0.4896030000000  0.4020210000000  0.4615820000000 1.0
C      1  0.4202570000000  0.5660850000000  0.4685800000000 1.0
C      1  0.5951780000000  0.5369710000000  0.4620500000000 1.0
C      1  0.4776210000000  0.4054160000000  0.5324480000000 1.0
C      1  0.4158800000000  0.5622320000000  0.5377070000000 1.0
C      1  0.5885590000000  0.5183020000000  0.5287920000000 1.0
C      1  0.4743320000000  0.4479490000000  0.5672910000000 1.0
C      1  0.4595990000000  0.5536050000000  0.5685770000000 1.0
C      1  0.5614950000000  0.5094100000000  0.5759650000000 1.0
C      1  0.4783200000000  0.4501790000000  0.4324180000000 1.0
C      1  0.4541200000000  0.5491220000000  0.4287680000000 1.0
C      1  0.5633160000000  0.5005250000000  0.4372440000000 1.0
C      1  0.5200820000000  0.4833880000000  0.3909140000000 1.0
C      1  0.4935860000000  0.4896330000000  0.3953930000000 1.0
C      1  0.4836120000000  0.5160590000000  0.3875200000000 1.0
C      1  0.5191420000000  0.4743700000000  0.5921340000000 1.0
C      1  0.4945590000000  0.4831280000000  0.5995410000000 1.0
C      1  0.4988390000000  0.5278000000000  0.5939340000000 1.0
C      1  0.5541280000000  0.4581910000000  0.5696750000000 1.0
C      1  0.4421280000000  0.4789340000000  0.5529410000000 1.0
C      1  0.5065850000000  0.5439700000000  0.5452780000000 1.0
C      1  0.5417500000000  0.4684440000000  0.4629560000000 1.0
C      1  0.4589630000000  0.4848380000000  0.4529530000000 1.0
C      1  0.5056870000000  0.5584550000000  0.4391860000000 1.0
C      1  0.5331890000000  0.5760030000000  0.4487760000000 1.0
C      1  0.5546200000000  0.4259880000000  0.4569750000000 1.0
C      1  0.4094550000000  0.4909600000000  0.4617560000000 1.0
C      1  0.5376820000000  0.5827060000000  0.5428860000000 1.0
C      1  0.5509500000000  0.4332890000000  0.5473230000000 1.0
C      1  0.4126980000000  0.4918110000000  0.5425160000000 1.0
C      1  0.5002840000000  0.4432960000000  0.5471390000000 1.0
C      1  0.4495370000000  0.5290720000000  0.5485810000000 1.0
C      1  0.5436110000000  0.5304630000000  0.5440110000000 1.0
C      1  0.5049000000000  0.4571630000000  0.4524370000000 1.0
C      1  0.4482330000000  0.5283770000000  0.4543000000000 1.0
C      1  0.5407310000000  0.5220240000000  0.4508040000000 1.0
C      1  0.5423560000000  0.5268630000000  0.4820540000000 1.0
C      1  0.4982430000000  0.4517920000000  0.4840660000000 1.0
C      1  0.4475520000000  0.5422820000000  0.4854490000000 1.0
C      1  0.5521150000000  0.5253460000000  0.5146000000000 1.0
C      1  0.4920220000000  0.4381070000000  0.5145630000000 1.0
C      1  0.4583950000000  0.5359170000000  0.5170590000000 1.0
C      1  0.5043400000000  0.4065010000000  0.5122250000000 1.0
C      1  0.4062000000000  0.5423130000000  0.5200000000000 1.0
C      1  0.5783030000000  0.5452750000000  0.5107580000000 1.0
C      1  0.5099040000000  0.4015250000000  0.4820760000000 1.0
C      1  0.4140480000000  0.5423620000000  0.4903390000000 1.0
C      1  0.5799950000000  0.5526290000000  0.4802490000000 1.0
C      1  0.5943110000000  0.4342550000000  0.4916940000000 1.0
C      1  0.3937560000000  0.4492620000000  0.4868280000000 1.0
C      1  0.5176250000000  0.6097170000000  0.4859690000000 1.0
C      1  0.5919360000000  0.4378330000000  0.5160520000000 1.0
C      1  0.3945700000000  0.4491020000000  0.5118590000000 1.0
C      1  0.5165120000000  0.6145610000000  0.5104080000000 1.0
C      1  0.4268730000000  0.5069890000000  0.4442930000000 1.0
C      1  0.5445560000000  0.5510400000000  0.4336250000000 1.0
C      1  0.5299500000000  0.4371160000000  0.4411750000000 1.0
C      1  0.4248530000000  0.5120890000000  0.5660150000000 1.0
C      1  0.5419250000000  0.5578110000000  0.5607050000000 1.0
C      1  0.5247020000000  0.4277830000000  0.5660450000000 1.0
C      1  0.4867480000000  0.5423860000000  0.5203670000000 1.0
C      1  0.5330110000000  0.4972650000000  0.5162450000000 1.0
C      1  0.4796960000000  0.4693600000000  0.5198010000000 1.0
C      1  0.4803130000000  0.5438960000000  0.4809860000000 1.0
C      1  0.5534560000000  0.4947600000000  0.4804900000000 1.0
C      1  0.4729750000000  0.4695520000000  0.4786750000000 1.0
C      1  0.5071410000000  0.4408510000000  0.4162330000000 1.0
C      1  0.4427010000000  0.5224240000000  0.4110450000000 1.0
C      1  0.5586300000000  0.5261120000000  0.4152710000000 1.0
C      1  0.4959900000000  0.4299810000000  0.5841430000000 1.0
C      1  0.4437350000000  0.5303240000000  0.5876240000000 1.0
C      1  0.5504730000000  0.5365430000000  0.5848350000000 1.0
C      1  0.4904820000000  0.5574610000000  0.5693670000000 1.0
C      1  0.5676860000000  0.4770270000000  0.5843040000000 1.0
C      1  0.4335730000000  0.4641240000000  0.5825470000000 1.0
C      1  0.4826550000000  0.5625560000000  0.4246250000000 1.0
C      1  0.5614550000000  0.4661950000000  0.4377150000000 1.0
C      1  0.4474710000000  0.4641710000000  0.4293720000000 1.0
C      1  0.5095420000000  0.5285060000000  0.4484640000000 1.0
C      1  0.5141000000000  0.4863480000000  0.4406340000000 1.0
C      1  0.4726310000000  0.5104250000000  0.4387830000000 1.0
C      1  0.5188830000000  0.5134450000000  0.5538240000000 1.0
C      1  0.5251950000000  0.4655230000000  0.5536060000000 1.0
C      1  0.4665110000000  0.5010830000000  0.5564410000000 1.0
C      1  0.5373680000000  0.4905440000000  0.4176620000000 1.0
C      1  0.4865270000000  0.4829550000000  0.4242880000000 1.0
C      1  0.4963040000000  0.5227390000000  0.4176780000000 1.0
C      1  0.5335830000000  0.4923910000000  0.5705920000000 1.0
C      1  0.4709940000000  0.4774020000000  0.5804360000000 1.0
C      1  0.4924590000000  0.5151280000000  0.5694560000000 1.0
C      1  0.4591940000000  0.5756740000000  0.5213400000000 1.0
C      1  0.5858480000000  0.4986990000000  0.5082530000000 1.0
C      1  0.4596600000000  0.4312030000000  0.5078950000000 1.0
C      1  0.4549390000000  0.5760540000000  0.4876410000000 1.0
C      1  0.5933680000000  0.4941680000000  0.4794780000000 1.0
C      1  0.4561870000000  0.4304000000000  0.4756400000000 1.0
C      1  0.4789090000000  0.5863180000000  0.4564660000000 1.0
C      1  0.5895670000000  0.4538960000000  0.4381310000000 1.0
C      1  0.4233120000000  0.4483160000000  0.4412920000000 1.0
C      1  0.5016000000000  0.6112690000000  0.5572770000000 1.0
C      1  0.5898540000000  0.4768850000000  0.5510540000000 1.0
C      1  0.4368400000000  0.4463440000000  0.5537430000000 1.0
C      1  0.5210610000000  0.4943310000000  0.4718670000000 1.0
C      1  0.4763100000000  0.4981940000000  0.4917540000000 1.0
C      1  0.4986160000000  0.5180410000000  0.4789130000000 1.0
C      1  0.5132460000000  0.4733500000000  0.5243380000000 1.0
C      1  0.4713130000000  0.4989270000000  0.5245590000000 1.0
C      1  0.5128420000000  0.5236420000000  0.5087950000000 1.0
C      1  0.5562720000000  0.5628120000000  0.4699770000000 1.0
C      1  0.5323250000000  0.4154940000000  0.4746770000000 1.0
C      1  0.4146430000000  0.5136140000000  0.4815200000000 1.0
C      1  0.5560070000000  0.5639560000000  0.5238660000000 1.0
C      1  0.5278460000000  0.4231620000000  0.5264970000000 1.0
C      1  0.4155730000000  0.5140560000000  0.5223720000000 1.0
END
