TITL C-2622959-7779-699 0.0011030227379062 125000 -1006.34863885781 0 0 194 (C1) n - 1
REM
REM in /nfs/bkarasulu/CARBON/AIRSS/Generating-Clusters/AIREBO/with-SteepDescent/Higher-Symm/SD-CG/HFTN-CG
REM
REM
REM
REM
REM
REM ./C.cell (b20cbc046b6831c77cfcea5457e17084)
REM
REM compiler GCC version 9.2.1 20190827 (Red Hat 9.2.1-1)
REM options -cpp -mtune=generic -march=x86-64 -g -O0 -fpre-include=/usr/include/finclude/math-vector-fortran.h
REM seed -654691071 447192788 -477532367 1811099336 1756027419 -1848182387 748635763 1918574884 -1382032592 -1607646572 -1878933599 -711262008 -1617860100 1885156702 -91568543 757262959 -2135525737 -1982706775 508855854 694502760 518476361 -2143174529 1020504691 -273198798 -1630660213 571768307 -1015820339 -381651361 1239841176 1956137967 756411242 574362121 -250306177
REM
CELL 1.54180   50.00000   50.00000   50.00000   90.00000   90.00000   90.00000
LATT -1
SFAC C  
C      1  0.4304710000000  0.4371510000000  0.4557970000000 1.0
C      1  0.4282800000000  0.5626950000000  0.4736620000000 1.0
C      1  0.4297010000000  0.4927500000000  0.5633380000000 1.0
C      1  0.4890060000000  0.4725340000000  0.4627380000000 1.0
C      1  0.4922400000000  0.5550690000000  0.5032070000000 1.0
C      1  0.4872910000000  0.4646230000000  0.5472640000000 1.0
C      1  0.4655160000000  0.5192520000000  0.3966800000000 1.0
C      1  0.4669390000000  0.5858260000000  0.5742840000000 1.0
C      1  0.4677120000000  0.3912020000000  0.5371840000000 1.0
C      1  0.4632630000000  0.5556800000000  0.4321770000000 1.0
C      1  0.4595780000000  0.5254230000000  0.5863240000000 1.0
C      1  0.4651600000000  0.4003640000000  0.4735140000000 1.0
C      1  0.3940230000000  0.5437320000000  0.5448250000000 1.0
C      1  0.3949540000000  0.4335140000000  0.5147910000000 1.0
C      1  0.4037110000000  0.5168730000000  0.4355020000000 1.0
C      1  0.5858270000000  0.4956900000000  0.5486090000000 1.0
C      1  0.5837130000000  0.4661570000000  0.4769810000000 1.0
C      1  0.5908440000000  0.5459780000000  0.4849550000000 1.0
C      1  0.4456370000000  0.5884080000000  0.5267690000000 1.0
C      1  0.4461460000000  0.4353540000000  0.5594830000000 1.0
C      1  0.4445360000000  0.4737020000000  0.4103240000000 1.0
C      1  0.5869650000000  0.5678420000000  0.5087150000000 1.0
C      1  0.5825760000000  0.4665350000000  0.5578930000000 1.0
C      1  0.5811750000000  0.4745920000000  0.4485600000000 1.0
C      1  0.5334380000000  0.5360750000000  0.4026830000000 1.0
C      1  0.5394610000000  0.5683090000000  0.5821120000000 1.0
C      1  0.5370790000000  0.3948270000000  0.5121930000000 1.0
C      1  0.4597530000000  0.4153720000000  0.5026190000000 1.0
C      1  0.4740820000000  0.5277560000000  0.4451210000000 1.0
C      1  0.4689350000000  0.5401590000000  0.5644310000000 1.0
C      1  0.4949040000000  0.6058460000000  0.4864820000000 1.0
C      1  0.4990480000000  0.4590540000000  0.5917050000000 1.0
C      1  0.4942170000000  0.4345800000000  0.4112390000000 1.0
C      1  0.4615940000000  0.4981440000000  0.4217190000000 1.0
C      1  0.4588090000000  0.5664710000000  0.5477340000000 1.0
C      1  0.4582950000000  0.4235900000000  0.5328130000000 1.0
C      1  0.5080410000000  0.5210320000000  0.6080640000000 1.0
C      1  0.5164380000000  0.3986370000000  0.4629060000000 1.0
C      1  0.5096160000000  0.5807720000000  0.4260780000000 1.0
C      1  0.4878980000000  0.6006650000000  0.5182330000000 1.0
C      1  0.4869760000000  0.4331410000000  0.5775340000000 1.0
C      1  0.4812810000000  0.4617620000000  0.4004960000000 1.0
C      1  0.4393540000000  0.6120820000000  0.4874310000000 1.0
C      1  0.4439430000000  0.4588910000000  0.5987760000000 1.0
C      1  0.4306360000000  0.4290740000000  0.4070560000000 1.0
C      1  0.5234530000000  0.4205650000000  0.4959520000000 1.0
C      1  0.5272280000000  0.5420910000000  0.4344240000000 1.0
C      1  0.5346480000000  0.5396630000000  0.5637970000000 1.0
C      1  0.4685190000000  0.4974190000000  0.4550140000000 1.0
C      1  0.4645970000000  0.5510390000000  0.5179860000000 1.0
C      1  0.4697990000000  0.4541110000000  0.5231550000000 1.0
C      1  0.5898600000000  0.4492150000000  0.5309280000000 1.0
C      1  0.5910710000000  0.5059860000000  0.4404250000000 1.0
C      1  0.5974330000000  0.5474050000000  0.5338330000000 1.0
C      1  0.5325650000000  0.5780320000000  0.4953970000000 1.0
C      1  0.5427890000000  0.4480250000000  0.5804840000000 1.0
C      1  0.5301520000000  0.4585800000000  0.4269480000000 1.0
C      1  0.5160270000000  0.6179870000000  0.5263390000000 1.0
C      1  0.5099910000000  0.4098450000000  0.5860080000000 1.0
C      1  0.5065290000000  0.4658110000000  0.3793710000000 1.0
C      1  0.5548610000000  0.4918190000000  0.4464830000000 1.0
C      1  0.5597350000000  0.5542720000000  0.5230000000000 1.0
C      1  0.5538340000000  0.4604780000000  0.5441360000000 1.0
C      1  0.6102240000000  0.4761200000000  0.4897850000000 1.0
C      1  0.6146800000000  0.5259580000000  0.4929270000000 1.0
C      1  0.6110860000000  0.4981640000000  0.5318890000000 1.0
C      1  0.6148180000000  0.5240670000000  0.5213480000000 1.0
C      1  0.6109040000000  0.4728820000000  0.5180820000000 1.0
C      1  0.5977960000000  0.5034580000000  0.4738290000000 1.0
C      1  0.5053160000000  0.5480310000000  0.5788190000000 1.0
C      1  0.4918230000000  0.4082500000000  0.4938500000000 1.0
C      1  0.4945460000000  0.5438920000000  0.4251270000000 1.0
C      1  0.4962810000000  0.5140000000000  0.5046330000000 1.0
C      1  0.4919470000000  0.4873970000000  0.5224480000000 1.0
C      1  0.4999030000000  0.4959630000000  0.4794190000000 1.0
C      1  0.4895070000000  0.4233730000000  0.5463470000000 1.0
C      1  0.4936340000000  0.4900250000000  0.4148370000000 1.0
C      1  0.4902620000000  0.5766230000000  0.5396750000000 1.0
C      1  0.5574860000000  0.4881290000000  0.5969930000000 1.0
C      1  0.5563150000000  0.4294230000000  0.4345990000000 1.0
C      1  0.5533430000000  0.5924300000000  0.4644880000000 1.0
C      1  0.5641460000000  0.4580910000000  0.4273270000000 1.0
C      1  0.5629670000000  0.5743920000000  0.4863920000000 1.0
C      1  0.5634110000000  0.4659460000000  0.5824650000000 1.0
C      1  0.5714250000000  0.5637870000000  0.5762130000000 1.0
C      1  0.5673240000000  0.4053780000000  0.5132410000000 1.0
C      1  0.5640770000000  0.5293490000000  0.3991000000000 1.0
C      1  0.5338640000000  0.4675660000000  0.4749050000000 1.0
C      1  0.5518290000000  0.5413390000000  0.4925570000000 1.0
C      1  0.5397030000000  0.4897820000000  0.5413340000000 1.0
C      1  0.5671770000000  0.5938860000000  0.5395510000000 1.0
C      1  0.5628030000000  0.4105150000000  0.5607130000000 1.0
C      1  0.5572960000000  0.4802020000000  0.4026270000000 1.0
C      1  0.5383250000000  0.4491850000000  0.5014570000000 1.0
C      1  0.5434160000000  0.5296290000000  0.4617170000000 1.0
C      1  0.5409490000000  0.5228300000000  0.5389180000000 1.0
C      1  0.5745820000000  0.5060580000000  0.4106500000000 1.0
C      1  0.5817760000000  0.5722110000000  0.5510690000000 1.0
C      1  0.5761050000000  0.4186370000000  0.5366190000000 1.0
C      1  0.5608690000000  0.4808200000000  0.4924500000000 1.0
C      1  0.5758620000000  0.5175350000000  0.4960640000000 1.0
C      1  0.5665270000000  0.4973000000000  0.5217860000000 1.0
C      1  0.4244190000000  0.4640450000000  0.5768100000000 1.0
C      1  0.4177680000000  0.4455320000000  0.4281990000000 1.0
C      1  0.4219570000000  0.5888800000000  0.4930930000000 1.0
C      1  0.4900590000000  0.4043970000000  0.4542190000000 1.0
C      1  0.4828040000000  0.5806920000000  0.4364000000000 1.0
C      1  0.4828340000000  0.5116120000000  0.5981700000000 1.0
C      1  0.4334170000000  0.4127000000000  0.4737250000000 1.0
C      1  0.4314500000000  0.5567910000000  0.4419220000000 1.0
C      1  0.4312350000000  0.5196530000000  0.5810140000000 1.0
C      1  0.4899120000000  0.4413770000000  0.5012720000000 1.0
C      1  0.5015000000000  0.5322010000000  0.4626600000000 1.0
C      1  0.4982280000000  0.5276740000000  0.5525110000000 1.0
C      1  0.4011400000000  0.4913410000000  0.5449280000000 1.0
C      1  0.4073090000000  0.4594430000000  0.4642130000000 1.0
C      1  0.3965210000000  0.5521960000000  0.4797830000000 1.0
C      1  0.4610210000000  0.5624300000000  0.4798450000000 1.0
C      1  0.4625810000000  0.4910440000000  0.5632520000000 1.0
C      1  0.4613470000000  0.4457220000000  0.4523520000000 1.0
C      1  0.5217650000000  0.4746770000000  0.5167120000000 1.0
C      1  0.5301200000000  0.5000630000000  0.4656020000000 1.0
C      1  0.5267130000000  0.5277550000000  0.5110350000000 1.0
C      1  0.4304650000000  0.4819480000000  0.5299240000000 1.0
C      1  0.4305610000000  0.4818100000000  0.4739800000000 1.0
C      1  0.4297780000000  0.5358850000000  0.4947310000000 1.0
C      1  0.5326240000000  0.4922070000000  0.4228470000000 1.0
C      1  0.5346480000000  0.5728150000000  0.5282180000000 1.0
C      1  0.5332200000000  0.4352310000000  0.5504460000000 1.0
C      1  0.4285000000000  0.4579190000000  0.4980890000000 1.0
C      1  0.4308730000000  0.5201140000000  0.4644830000000 1.0
C      1  0.4281430000000  0.5259410000000  0.5344790000000 1.0
C      1  0.5820510000000  0.4342680000000  0.4802660000000 1.0
C      1  0.5833480000000  0.5552770000000  0.4579660000000 1.0
C      1  0.5821060000000  0.5170280000000  0.5709230000000 1.0
C      1  0.4571790000000  0.4466630000000  0.4189760000000 1.0
C      1  0.4613130000000  0.5898110000000  0.5000220000000 1.0
C      1  0.4646840000000  0.4581920000000  0.5718380000000 1.0
C      1  0.3969460000000  0.5159870000000  0.5253250000000 1.0
C      1  0.3979690000000  0.4724730000000  0.4945400000000 1.0
C      1  0.3984460000000  0.5216960000000  0.4745970000000 1.0
C      1  0.5258280000000  0.5473260000000  0.6051620000000 1.0
C      1  0.5252230000000  0.3827120000000  0.4834090000000 1.0
C      1  0.5195320000000  0.5670680000000  0.4042500000000 1.0
C      1  0.4542300000000  0.4787990000000  0.5057070000000 1.0
C      1  0.4540430000000  0.5055820000000  0.4847130000000 1.0
C      1  0.4523820000000  0.5207420000000  0.5151310000000 1.0
C      1  0.4012230000000  0.4650190000000  0.5260450000000 1.0
C      1  0.4017450000000  0.4926590000000  0.4594830000000 1.0
C      1  0.4025300000000  0.5467450000000  0.5119350000000 1.0
C      1  0.5589180000000  0.5336090000000  0.5856460000000 1.0
C      1  0.5547630000000  0.4161810000000  0.4834310000000 1.0
C      1  0.5548310000000  0.5610440000000  0.4403690000000 1.0
C      1  0.4918080000000  0.4866840000000  0.5801260000000 1.0
C      1  0.4885750000000  0.4316890000000  0.4413000000000 1.0
C      1  0.4832170000000  0.5836640000000  0.4672240000000 1.0
C      1  0.5227280000000  0.6064210000000  0.4856610000000 1.0
C      1  0.5235530000000  0.4519380000000  0.6002720000000 1.0
C      1  0.5218790000000  0.4362690000000  0.4066170000000 1.0
C      1  0.4927650000000  0.3910120000000  0.5231230000000 1.0
C      1  0.4916050000000  0.5294550000000  0.3985610000000 1.0
C      1  0.4930680000000  0.5777240000000  0.5794760000000 1.0
C      1  0.4162210000000  0.5828230000000  0.5219610000000 1.0
C      1  0.4175690000000  0.4432670000000  0.5551490000000 1.0
C      1  0.4166300000000  0.4744240000000  0.4226670000000 1.0
C      1  0.5094460000000  0.5635080000000  0.4751160000000 1.0
C      1  0.5179990000000  0.5021390000000  0.5644740000000 1.0
C      1  0.5138060000000  0.4503250000000  0.4544440000000 1.0
C      1  0.4277650000000  0.4353660000000  0.5235430000000 1.0
C      1  0.4320910000000  0.5018020000000  0.4358430000000 1.0
C      1  0.4247060000000  0.5583900000000  0.5440410000000 1.0
C      1  0.5163940000000  0.5087450000000  0.3978650000000 1.0
C      1  0.5188800000000  0.5790840000000  0.5578870000000 1.0
C      1  0.5181300000000  0.4079770000000  0.5363220000000 1.0
C      1  0.4183910000000  0.4149320000000  0.4980150000000 1.0
C      1  0.4093420000000  0.5435850000000  0.4317500000000 1.0
C      1  0.4152450000000  0.5413120000000  0.5718960000000 1.0
C      1  0.5702260000000  0.5342850000000  0.5464200000000 1.0
C      1  0.5680730000000  0.4448870000000  0.5077480000000 1.0
C      1  0.5705250000000  0.5304890000000  0.4418480000000 1.0
C      1  0.5077120000000  0.5067200000000  0.4409090000000 1.0
C      1  0.5092290000000  0.5502740000000  0.5295660000000 1.0
C      1  0.5085310000000  0.4461520000000  0.5297570000000 1.0
C      1  0.4755180000000  0.5320140000000  0.4846160000000 1.0
C      1  0.4744000000000  0.5082630000000  0.5379380000000 1.0
C      1  0.4691430000000  0.4579680000000  0.4828510000000 1.0
C      1  0.5400310000000  0.6056050000000  0.5315390000000 1.0
C      1  0.5341170000000  0.4097410000000  0.5729350000000 1.0
C      1  0.5286930000000  0.4718050000000  0.3888490000000 1.0
C      1  0.5354060000000  0.5108410000000  0.5913030000000 1.0
C      1  0.5346210000000  0.4236300000000  0.4577880000000 1.0
C      1  0.5273910000000  0.5784620000000  0.4503780000000 1.0
C      1  0.3896740000000  0.5021380000000  0.4974700000000 1.0
C      1  0.5345310000000  0.4994220000000  0.4986930000000 1.0
END
