TITL C-2622962-9663-729 0.000297436856890047 125000 -605.349608721963 0 0 114 (C1) n - 1
REM
REM in /nfs/bkarasulu/CARBON/AIRSS/Generating-Clusters/AIREBO/with-SteepDescent/Higher-Symm/SD-CG/HFTN-CG
REM
REM
REM
REM
REM
REM ./C.cell (b20cbc046b6831c77cfcea5457e17084)
REM
REM compiler GCC version 9.2.1 20190827 (Red Hat 9.2.1-1)
REM options -cpp -mtune=generic -march=x86-64 -g -O0 -fpre-include=/usr/include/finclude/math-vector-fortran.h
REM seed 935179457 -808546621 -801301702 1387917500 1869882240 1984194855 -608055924 -130560984 -1801218525 1495480408 -1396157653 -1020931720 489945378 1074441497 225710882 1895330228 -970620846 1272917863 -1854527544 -1408223618 683863366 1888238002 1387857138 -210703856 2042648240 267881913 1493330990 -568015715 -955767741 698519365 1647330158 1303128921 1840960108
REM
CELL 1.54180   50.00000   50.00000   50.00000   90.00000   90.00000   90.00000
LATT -1
SFAC C  
C      1  0.5670280000000  0.4757430000000  0.5660260000000 1.0
C      1  0.5616230000000  0.5264660000000  0.5690290000000 1.0
C      1  0.4892210000000  0.4659670000000  0.4061590000000 1.0
C      1  0.4627180000000  0.5871830000000  0.4763940000000 1.0
C      1  0.4420920000000  0.5323600000000  0.4303590000000 1.0
C      1  0.4750230000000  0.5645130000000  0.4989740000000 1.0
C      1  0.4675820000000  0.5479710000000  0.4465950000000 1.0
C      1  0.4263470000000  0.5019500000000  0.4983740000000 1.0
C      1  0.4712060000000  0.4506640000000  0.4254550000000 1.0
C      1  0.4958820000000  0.6153380000000  0.5419500000000 1.0
C      1  0.4926200000000  0.5876050000000  0.5390810000000 1.0
C      1  0.4810640000000  0.5101430000000  0.5234770000000 1.0
C      1  0.4182000000000  0.4632810000000  0.4940720000000 1.0
C      1  0.4615620000000  0.5799750000000  0.4505280000000 1.0
C      1  0.5573170000000  0.5557220000000  0.4526880000000 1.0
C      1  0.5128800000000  0.5160320000000  0.5923180000000 1.0
C      1  0.4356410000000  0.5510080000000  0.5034490000000 1.0
C      1  0.4807620000000  0.5247050000000  0.4255920000000 1.0
C      1  0.4709340000000  0.4513280000000  0.5633650000000 1.0
C      1  0.4735080000000  0.4171820000000  0.4611540000000 1.0
C      1  0.4094000000000  0.5123090000000  0.5326670000000 1.0
C      1  0.5083660000000  0.5532020000000  0.5508170000000 1.0
C      1  0.5416750000000  0.4638190000000  0.4499540000000 1.0
C      1  0.4822150000000  0.5679320000000  0.5649840000000 1.0
C      1  0.4122940000000  0.4647070000000  0.4605260000000 1.0
C      1  0.4609910000000  0.4856130000000  0.4700800000000 1.0
C      1  0.5874270000000  0.5382530000000  0.5193350000000 1.0
C      1  0.5228570000000  0.5259520000000  0.4377800000000 1.0
C      1  0.5337810000000  0.5199120000000  0.4681910000000 1.0
C      1  0.4331380000000  0.5259540000000  0.5466760000000 1.0
C      1  0.4464530000000  0.5562230000000  0.5434470000000 1.0
C      1  0.4467620000000  0.4538360000000  0.5447950000000 1.0
C      1  0.5250340000000  0.5542700000000  0.5016860000000 1.0
C      1  0.4875440000000  0.5508640000000  0.5238800000000 1.0
C      1  0.5022000000000  0.5292380000000  0.5027710000000 1.0
C      1  0.4827240000000  0.3976560000000  0.5025100000000 1.0
C      1  0.4148890000000  0.5169980000000  0.4730010000000 1.0
C      1  0.5398300000000  0.4913390000000  0.5296930000000 1.0
C      1  0.5690550000000  0.4798060000000  0.4472980000000 1.0
C      1  0.5226330000000  0.4645870000000  0.5417310000000 1.0
C      1  0.5615030000000  0.5383050000000  0.5413540000000 1.0
C      1  0.4603180000000  0.5785010000000  0.5333390000000 1.0
C      1  0.5112480000000  0.5002460000000  0.4206420000000 1.0
C      1  0.4524660000000  0.5219370000000  0.5929560000000 1.0
C      1  0.4945720000000  0.5273470000000  0.4696290000000 1.0
C      1  0.4521810000000  0.4293150000000  0.4758340000000 1.0
C      1  0.4260520000000  0.4383930000000  0.4722760000000 1.0
C      1  0.5448580000000  0.4698460000000  0.5838590000000 1.0
C      1  0.5258880000000  0.4920420000000  0.4794330000000 1.0
C      1  0.5492500000000  0.4237620000000  0.5698930000000 1.0
C      1  0.5677400000000  0.5446990000000  0.5895000000000 1.0
C      1  0.4851400000000  0.4333360000000  0.4417400000000 1.0
C      1  0.5761340000000  0.5442350000000  0.4878640000000 1.0
C      1  0.4694670000000  0.5130880000000  0.4855610000000 1.0
C      1  0.5434350000000  0.5761300000000  0.4406150000000 1.0
C      1  0.5368500000000  0.4318270000000  0.4976720000000 1.0
C      1  0.5048320000000  0.5232940000000  0.5625660000000 1.0
C      1  0.4267750000000  0.4806630000000  0.4436990000000 1.0
C      1  0.5462730000000  0.4074590000000  0.4548970000000 1.0
C      1  0.5124660000000  0.4479860000000  0.4536640000000 1.0
C      1  0.5075620000000  0.4152740000000  0.5406770000000 1.0
C      1  0.4577550000000  0.4731690000000  0.4396390000000 1.0
C      1  0.5294430000000  0.4467910000000  0.5699140000000 1.0
C      1  0.4634180000000  0.4455810000000  0.5003620000000 1.0
C      1  0.4532310000000  0.5895570000000  0.5063260000000 1.0
C      1  0.4186080000000  0.5318720000000  0.5099110000000 1.0
C      1  0.4268860000000  0.5379680000000  0.4655830000000 1.0
C      1  0.5005390000000  0.4750630000000  0.4369110000000 1.0
C      1  0.4070420000000  0.4834780000000  0.5190510000000 1.0
C      1  0.5179460000000  0.4376040000000  0.5215640000000 1.0
C      1  0.5680560000000  0.4499220000000  0.4641790000000 1.0
C      1  0.4764280000000  0.4907870000000  0.5610360000000 1.0
C      1  0.5104630000000  0.4900640000000  0.5607000000000 1.0
C      1  0.5843230000000  0.5082990000000  0.5026940000000 1.0
C      1  0.4951780000000  0.4488610000000  0.5025010000000 1.0
C      1  0.4942590000000  0.4919470000000  0.4910380000000 1.0
C      1  0.5859390000000  0.5177620000000  0.4711140000000 1.0
C      1  0.5377390000000  0.5049180000000  0.5758290000000 1.0
C      1  0.5566660000000  0.5155600000000  0.5191820000000 1.0
C      1  0.5097950000000  0.4211810000000  0.5654770000000 1.0
C      1  0.5729140000000  0.5075800000000  0.4485750000000 1.0
C      1  0.5739400000000  0.4599900000000  0.5139540000000 1.0
C      1  0.5580570000000  0.4667930000000  0.5382280000000 1.0
C      1  0.4430520000000  0.4294670000000  0.5307400000000 1.0
C      1  0.4838020000000  0.5014500000000  0.4503300000000 1.0
C      1  0.5448250000000  0.5467130000000  0.4806610000000 1.0
C      1  0.4577620000000  0.5432600000000  0.4788080000000 1.0
C      1  0.5014780000000  0.5505700000000  0.4477000000000 1.0
C      1  0.4598020000000  0.5451450000000  0.5720700000000 1.0
C      1  0.5691140000000  0.5713010000000  0.5062060000000 1.0
C      1  0.5000640000000  0.5383060000000  0.4074160000000 1.0
C      1  0.5208990000000  0.5723860000000  0.5278130000000 1.0
C      1  0.5271080000000  0.5088670000000  0.5061800000000 1.0
C      1  0.5217600000000  0.5647380000000  0.4281530000000 1.0
C      1  0.5226350000000  0.4206350000000  0.4712100000000 1.0
C      1  0.4763770000000  0.5302120000000  0.5481530000000 1.0
C      1  0.4776320000000  0.4956810000000  0.4115000000000 1.0
C      1  0.5525350000000  0.5658310000000  0.5282770000000 1.0
C      1  0.5014050000000  0.4829160000000  0.5224650000000 1.0
C      1  0.5565610000000  0.5291420000000  0.4345230000000 1.0
C      1  0.5610420000000  0.4462180000000  0.4940100000000 1.0
C      1  0.5926340000000  0.4791370000000  0.5080300000000 1.0
C      1  0.4471490000000  0.5082310000000  0.5638730000000 1.0
C      1  0.4640520000000  0.4152680000000  0.5144170000000 1.0
C      1  0.5676420000000  0.4210880000000  0.4516240000000 1.0
C      1  0.4846000000000  0.4565240000000  0.5326670000000 1.0
C      1  0.5328910000000  0.5410230000000  0.4089950000000 1.0
C      1  0.5062360000000  0.4645720000000  0.4799280000000 1.0
C      1  0.4458710000000  0.5006610000000  0.4235380000000 1.0
C      1  0.4624990000000  0.4823220000000  0.5311700000000 1.0
C      1  0.4938340000000  0.4046380000000  0.4770610000000 1.0
C      1  0.5791150000000  0.4995300000000  0.5698120000000 1.0
C      1  0.4706110000000  0.4977320000000  0.5938330000000 1.0
C      1  0.4489070000000  0.4763970000000  0.5005420000000 1.0
END
