TITL C-2622963-3633-430 0.00162766760190035 125000 -849.109088104918 0 0 154 (C1) n - 1
REM
REM in /nfs/bkarasulu/CARBON/AIRSS/Generating-Clusters/AIREBO/with-SteepDescent/Higher-Symm/SD-CG/HFTN-CG
REM
REM
REM
REM
REM
REM ./C.cell (b20cbc046b6831c77cfcea5457e17084)
REM
REM compiler GCC version 9.2.1 20190827 (Red Hat 9.2.1-1)
REM options -cpp -mtune=generic -march=x86-64 -g -O0 -fpre-include=/usr/include/finclude/math-vector-fortran.h
REM seed 1029155403 1991921998 -1441890432 879162398 695131818 2134045362 -12016499 -709626041 -1393057528 763106697 303664237 511383379 -874676534 1492302306 1283596870 1789569882 984054115 472653550 -452582752 1239655281 472525399 -1119345259 1105305790 -143709537 -1125822056 1920979366 -170839659 -59868572 -272818749 -1703210103 -1450273101 -846331203 858716544
REM
CELL 1.54180   50.00000   50.00000   50.00000   90.00000   90.00000   90.00000
LATT -1
SFAC C  
C      1  0.5643380000000  0.5604000000000  0.4749580000000 1.0
C      1  0.5185590000000  0.3964860000000  0.4747690000000 1.0
C      1  0.4056460000000  0.5372770000000  0.4671590000000 1.0
C      1  0.4395230000000  0.4417950000000  0.5511250000000 1.0
C      1  0.4786260000000  0.5795950000000  0.5538940000000 1.0
C      1  0.5806540000000  0.4785230000000  0.5489040000000 1.0
C      1  0.4703860000000  0.5089280000000  0.5309740000000 1.0
C      1  0.5219660000000  0.5209390000000  0.5365450000000 1.0
C      1  0.5067560000000  0.4723400000000  0.5376710000000 1.0
C      1  0.6124780000000  0.5686200000000  0.4889120000000 1.0
C      1  0.4853050000000  0.3616270000000  0.4865900000000 1.0
C      1  0.3920150000000  0.5790340000000  0.5119040000000 1.0
C      1  0.5603600000000  0.5533710000000  0.5754240000000 1.0
C      1  0.5094290000000  0.4288760000000  0.5697570000000 1.0
C      1  0.4265910000000  0.5089390000000  0.5820420000000 1.0
C      1  0.5314110000000  0.5520170000000  0.5109830000000 1.0
C      1  0.5261980000000  0.4428410000000  0.5125030000000 1.0
C      1  0.4365560000000  0.4972280000000  0.5139020000000 1.0
C      1  0.4934000000000  0.5123690000000  0.3958840000000 1.0
C      1  0.5228040000000  0.4997220000000  0.4046270000000 1.0
C      1  0.4962250000000  0.4798910000000  0.3963870000000 1.0
C      1  0.4600550000000  0.4517590000000  0.5114960000000 1.0
C      1  0.4773770000000  0.5587500000000  0.5198810000000 1.0
C      1  0.5578940000000  0.4872430000000  0.5155510000000 1.0
C      1  0.4955940000000  0.5783250000000  0.4180730000000 1.0
C      1  0.5845180000000  0.4748730000000  0.4437940000000 1.0
C      1  0.4357180000000  0.4394420000000  0.4369610000000 1.0
C      1  0.5029860000000  0.4687930000000  0.4271040000000 1.0
C      1  0.4763890000000  0.5147240000000  0.4249690000000 1.0
C      1  0.5245060000000  0.5187840000000  0.4313860000000 1.0
C      1  0.5177000000000  0.4752330000000  0.6077920000000 1.0
C      1  0.4742450000000  0.4999300000000  0.6092150000000 1.0
C      1  0.5168060000000  0.5242670000000  0.6041800000000 1.0
C      1  0.4952520000000  0.4143120000000  0.5424920000000 1.0
C      1  0.4232900000000  0.5475670000000  0.5466190000000 1.0
C      1  0.5754460000000  0.5408240000000  0.5399770000000 1.0
C      1  0.5370940000000  0.5837700000000  0.4575450000000 1.0
C      1  0.5480620000000  0.4079940000000  0.4550980000000 1.0
C      1  0.4097120000000  0.5055210000000  0.4556940000000 1.0
C      1  0.5048090000000  0.6035610000000  0.4890670000000 1.0
C      1  0.5776960000000  0.4432920000000  0.4846060000000 1.0
C      1  0.4187930000000  0.4578900000000  0.4691000000000 1.0
C      1  0.5571100000000  0.5015720000000  0.4782250000000 1.0
C      1  0.4766500000000  0.4422610000000  0.4765850000000 1.0
C      1  0.4595410000000  0.5531830000000  0.4852400000000 1.0
C      1  0.4829890000000  0.5324440000000  0.4985100000000 1.0
C      1  0.5309880000000  0.4916610000000  0.4976130000000 1.0
C      1  0.4817120000000  0.4707750000000  0.4944120000000 1.0
C      1  0.5679570000000  0.5088010000000  0.5485660000000 1.0
C      1  0.4711930000000  0.4358560000000  0.5543510000000 1.0
C      1  0.4557400000000  0.5553130000000  0.5532150000000 1.0
C      1  0.4594810000000  0.4839630000000  0.4555310000000 1.0
C      1  0.5018930000000  0.5518620000000  0.4548910000000 1.0
C      1  0.5357590000000  0.4699820000000  0.4594710000000 1.0
C      1  0.5851760000000  0.5351090000000  0.5123280000000 1.0
C      1  0.4853740000000  0.4049620000000  0.5113020000000 1.0
C      1  0.4203910000000  0.5614890000000  0.5184710000000 1.0
C      1  0.5634780000000  0.4593980000000  0.5620340000000 1.0
C      1  0.4349370000000  0.4681830000000  0.5643900000000 1.0
C      1  0.5056520000000  0.5711990000000  0.5615250000000 1.0
C      1  0.4536490000000  0.5145470000000  0.4640870000000 1.0
C      1  0.5313370000000  0.5531040000000  0.4710720000000 1.0
C      1  0.5068300000000  0.4522070000000  0.4634670000000 1.0
C      1  0.6028380000000  0.4647100000000  0.4834620000000 1.0
C      1  0.4116100000000  0.4342550000000  0.4825800000000 1.0
C      1  0.4838080000000  0.5950630000000  0.4743100000000 1.0
C      1  0.4540990000000  0.5351690000000  0.5258500000000 1.0
C      1  0.5491410000000  0.5179030000000  0.5217070000000 1.0
C      1  0.4864860000000  0.4512230000000  0.5306700000000 1.0
C      1  0.4871850000000  0.5406570000000  0.4089060000000 1.0
C      1  0.5482760000000  0.4862360000000  0.4159190000000 1.0
C      1  0.4727090000000  0.4637930000000  0.4143820000000 1.0
C      1  0.4843190000000  0.5251440000000  0.4558700000000 1.0
C      1  0.5287740000000  0.5032560000000  0.4591840000000 1.0
C      1  0.4900050000000  0.4794620000000  0.4561960000000 1.0
C      1  0.4952800000000  0.4344700000000  0.5039630000000 1.0
C      1  0.4440570000000  0.5245690000000  0.4951290000000 1.0
C      1  0.5433850000000  0.5301630000000  0.4905060000000 1.0
C      1  0.3966630000000  0.4882210000000  0.5018700000000 1.0
C      1  0.5405280000000  0.6031930000000  0.5065260000000 1.0
C      1  0.5715780000000  0.4085450000000  0.5032200000000 1.0
C      1  0.5328500000000  0.4263680000000  0.4339090000000 1.0
C      1  0.4273890000000  0.5086490000000  0.4300760000000 1.0
C      1  0.5447920000000  0.5638430000000  0.4353100000000 1.0
C      1  0.5223520000000  0.5088420000000  0.5641190000000 1.0
C      1  0.4988340000000  0.4842860000000  0.5651050000000 1.0
C      1  0.4803760000000  0.5123490000000  0.5598140000000 1.0
C      1  0.4748720000000  0.4995840000000  0.4985560000000 1.0
C      1  0.5101860000000  0.5154260000000  0.5065440000000 1.0
C      1  0.5096230000000  0.4716710000000  0.5054150000000 1.0
C      1  0.5703510000000  0.4958620000000  0.4298920000000 1.0
C      1  0.4629530000000  0.4380370000000  0.4270930000000 1.0
C      1  0.4676570000000  0.5652320000000  0.4157400000000 1.0
C      1  0.5661500000000  0.5168100000000  0.4491890000000 1.0
C      1  0.4799990000000  0.4266940000000  0.4465400000000 1.0
C      1  0.4533030000000  0.5608110000000  0.4400780000000 1.0
C      1  0.4688480000000  0.5432520000000  0.5821840000000 1.0
C      1  0.5577930000000  0.5015640000000  0.5804540000000 1.0
C      1  0.4784880000000  0.4538140000000  0.5822910000000 1.0
C      1  0.4577770000000  0.4221150000000  0.5008700000000 1.0
C      1  0.4474300000000  0.5710030000000  0.5094160000000 1.0
C      1  0.5818330000000  0.5067700000000  0.5015660000000 1.0
C      1  0.5414930000000  0.4164610000000  0.5169680000000 1.0
C      1  0.4082490000000  0.5096580000000  0.5246150000000 1.0
C      1  0.5511970000000  0.5736430000000  0.5173400000000 1.0
C      1  0.4569880000000  0.5122410000000  0.5845010000000 1.0
C      1  0.5411130000000  0.5306230000000  0.5825070000000 1.0
C      1  0.5110770000000  0.4573620000000  0.5818880000000 1.0
C      1  0.5384610000000  0.4795040000000  0.5632580000000 1.0
C      1  0.4660770000000  0.4750210000000  0.5603340000000 1.0
C      1  0.4928150000000  0.5416560000000  0.5590780000000 1.0
C      1  0.5594250000000  0.4358880000000  0.5464930000000 1.0
C      1  0.4142930000000  0.4831480000000  0.5534140000000 1.0
C      1  0.5258000000000  0.5836490000000  0.5463240000000 1.0
C      1  0.4895330000000  0.5256740000000  0.6027520000000 1.0
C      1  0.5324810000000  0.4978400000000  0.6029130000000 1.0
C      1  0.4866380000000  0.4754130000000  0.6072670000000 1.0
C      1  0.4492600000000  0.4569710000000  0.4627580000000 1.0
C      1  0.4734860000000  0.5674450000000  0.4629710000000 1.0
C      1  0.5658940000000  0.4699200000000  0.4694050000000 1.0
C      1  0.4339000000000  0.5363970000000  0.4482210000000 1.0
C      1  0.5625770000000  0.5439430000000  0.4476760000000 1.0
C      1  0.5102590000000  0.4197910000000  0.4554660000000 1.0
C      1  0.5892580000000  0.5548090000000  0.4932210000000 1.0
C      1  0.4956600000000  0.3857310000000  0.4903090000000 1.0
C      1  0.4009120000000  0.5575250000000  0.4906640000000 1.0
C      1  0.5059140000000  0.5484310000000  0.5287320000000 1.0
C      1  0.5390210000000  0.4680490000000  0.5317920000000 1.0
C      1  0.4576280000000  0.4787480000000  0.5279870000000 1.0
C      1  0.5421300000000  0.3955200000000  0.4923030000000 1.0
C      1  0.4104330000000  0.5190240000000  0.4931780000000 1.0
C      1  0.5667460000000  0.5876950000000  0.4917340000000 1.0
C      1  0.4202770000000  0.4425970000000  0.5287560000000 1.0
C      1  0.4807150000000  0.5987030000000  0.5335450000000 1.0
C      1  0.5932430000000  0.4661440000000  0.5275370000000 1.0
C      1  0.4130810000000  0.5172090000000  0.5541490000000 1.0
C      1  0.5557230000000  0.5675420000000  0.5475040000000 1.0
C      1  0.5294020000000  0.4197020000000  0.5461930000000 1.0
C      1  0.5311000000000  0.6042800000000  0.4744410000000 1.0
C      1  0.5688300000000  0.4161200000000  0.4708540000000 1.0
C      1  0.4075780000000  0.4831040000000  0.4727130000000 1.0
C      1  0.5778830000000  0.4371960000000  0.5184290000000 1.0
C      1  0.4059380000000  0.4694820000000  0.5286910000000 1.0
C      1  0.5111930000000  0.6033820000000  0.5225390000000 1.0
C      1  0.5330590000000  0.4598940000000  0.4282050000000 1.0
C      1  0.4556480000000  0.4907090000000  0.4240810000000 1.0
C      1  0.5159400000000  0.5508530000000  0.4239250000000 1.0
C      1  0.5386150000000  0.4384640000000  0.4023840000000 1.0
C      1  0.4328780000000  0.4948890000000  0.3991730000000 1.0
C      1  0.5299570000000  0.5529560000000  0.3946750000000 1.0
C      1  0.4269890000000  0.4282540000000  0.5054510000000 1.0
C      1  0.4596010000000  0.5993930000000  0.5166370000000 1.0
C      1  0.5998710000000  0.4813690000000  0.5051900000000 1.0
C      1  0.4999080000000  0.5041990000000  0.4759990000000 1.0
END
