TITL C-2622960-5345-86 -0.00126933484975432 125000 -236.060869882183 0 0 45 (C1) n - 1
REM
REM in /nfs/bkarasulu/CARBON/AIRSS/Generating-Clusters/AIREBO/with-SteepDescent/Higher-Symm/SD-CG/HFTN-CG
REM
REM
REM
REM
REM
REM ./C.cell (b20cbc046b6831c77cfcea5457e17084)
REM
REM compiler GCC version 9.2.1 20190827 (Red Hat 9.2.1-1)
REM options -cpp -mtune=generic -march=x86-64 -g -O0 -fpre-include=/usr/include/finclude/math-vector-fortran.h
REM seed -1833794973 199543114 159331960 -1793411979 -1572439298 -6283499 -1790905576 -1686264323 1415881379 -1387549436 937646225 -621278207 -1712802226 -692862751 1337908863 1872557575 -1066523609 887242377 -2033901320 -650462964 -196473055 370675214 953883683 -1412003704 594423296 -31710303 -2014450255 959485097 927450981 662124261 -1227930154 249520091 -1731003079
REM
CELL 1.54180   50.00000   50.00000   50.00000   90.00000   90.00000   90.00000
LATT -1
SFAC C  
C      1  0.4662820000000  0.5297130000000  0.4609230000000 1.0
C      1  0.4703100000000  0.4713510000000  0.4633150000000 1.0
C      1  0.4640620000000  0.4536500000000  0.5161050000000 1.0
C      1  0.4672520000000  0.4992630000000  0.5481480000000 1.0
C      1  0.4673950000000  0.5468390000000  0.5139870000000 1.0
C      1  0.4689430000000  0.4145410000000  0.5506910000000 1.0
C      1  0.4894560000000  0.5211120000000  0.5901060000000 1.0
C      1  0.4717970000000  0.5990080000000  0.5121070000000 1.0
C      1  0.4833810000000  0.5371600000000  0.4119870000000 1.0
C      1  0.4785960000000  0.4272280000000  0.4361070000000 1.0
C      1  0.4971120000000  0.5528390000000  0.5051410000000 1.0
C      1  0.4972350000000  0.5363540000000  0.4623700000000 1.0
C      1  0.5009240000000  0.4646560000000  0.4664210000000 1.0
C      1  0.4947470000000  0.4527130000000  0.5244550000000 1.0
C      1  0.4977940000000  0.4911200000000  0.5480340000000 1.0
C      1  0.5487550000000  0.4955870000000  0.4586580000000 1.0
C      1  0.5485210000000  0.4590770000000  0.4926100000000 1.0
C      1  0.5475070000000  0.4789890000000  0.5361450000000 1.0
C      1  0.5442300000000  0.5267100000000  0.5265010000000 1.0
C      1  0.5481340000000  0.5379280000000  0.4802120000000 1.0
C      1  0.4770650000000  0.4753440000000  0.5935260000000 1.0
C      1  0.4885740000000  0.5774530000000  0.5510610000000 1.0
C      1  0.4733270000000  0.5758840000000  0.4376720000000 1.0
C      1  0.4901270000000  0.4681980000000  0.4148270000000 1.0
C      1  0.4810700000000  0.4050660000000  0.5057370000000 1.0
C      1  0.4547500000000  0.5145190000000  0.4802020000000 1.0
C      1  0.4549800000000  0.4858260000000  0.4805530000000 1.0
C      1  0.4532890000000  0.4772510000000  0.5079380000000 1.0
C      1  0.4537630000000  0.5007090000000  0.5246560000000 1.0
C      1  0.4542990000000  0.5237900000000  0.5075580000000 1.0
C      1  0.5256210000000  0.4973910000000  0.4750270000000 1.0
C      1  0.5240400000000  0.4756130000000  0.4943040000000 1.0
C      1  0.5157980000000  0.4843660000000  0.5250450000000 1.0
C      1  0.5235900000000  0.5142600000000  0.5130040000000 1.0
C      1  0.5158680000000  0.5276120000000  0.4836930000000 1.0
C      1  0.4845300000000  0.4543530000000  0.4383820000000 1.0
C      1  0.4763660000000  0.4240850000000  0.5255680000000 1.0
C      1  0.4831990000000  0.4971560000000  0.5772790000000 1.0
C      1  0.4805520000000  0.5755910000000  0.5244190000000 1.0
C      1  0.4796950000000  0.5487370000000  0.4370810000000 1.0
C      1  0.5699540000000  0.5174020000000  0.5177120000000 1.0
C      1  0.5712420000000  0.5227190000000  0.4889270000000 1.0
C      1  0.5728170000000  0.4969510000000  0.4748180000000 1.0
C      1  0.5723710000000  0.4755010000000  0.4953680000000 1.0
C      1  0.5706810000000  0.4883880000000  0.5216240000000 1.0
END
