TITL C-2622966-9038-809 2.41392336526698e-05 125000 -213.796050686675 0 0 38 (C1) n - 1
REM
REM in /nfs/bkarasulu/CARBON/AIRSS/Generating-Clusters/AIREBO/with-SteepDescent/Higher-Symm/SD-CG/HFTN-CG
REM
REM
REM
REM
REM
REM ./C.cell (b20cbc046b6831c77cfcea5457e17084)
REM
REM compiler GCC version 9.2.1 20190827 (Red Hat 9.2.1-1)
REM options -cpp -mtune=generic -march=x86-64 -g -O0 -fpre-include=/usr/include/finclude/math-vector-fortran.h
REM seed -2033172774 -435737230 -1900833662 1338580543 -2003173179 1650204578 1542686128 139512560 1249214341 -731978070 991547056 1229711007 562199507 -1333565876 420135588 -580924264 -386135363 1232591094 1962951258 1215169493 727058729 1631830837 -1278129063 400626595 81454300 -2011116788 1879129441 1673633974 -327442738 -1909181765 1829727011 -2103821246 1086430277
REM
CELL 1.54180   50.00000   50.00000   50.00000   90.00000   90.00000   90.00000
LATT -1
SFAC C  
C      1  0.5716990000000  0.4655570000000  0.5177540000000 1.0
C      1  0.4501080000000  0.5220720000000  0.5358400000000 1.0
C      1  0.5572570000000  0.5264430000000  0.4760450000000 1.0
C      1  0.4456060000000  0.4801260000000  0.4599880000000 1.0
C      1  0.4637910000000  0.5722950000000  0.5145480000000 1.0
C      1  0.5226980000000  0.4394040000000  0.5289540000000 1.0
C      1  0.5154780000000  0.5518610000000  0.4600740000000 1.0
C      1  0.4746610000000  0.4436620000000  0.4707120000000 1.0
C      1  0.4965650000000  0.4747330000000  0.5107040000000 1.0
C      1  0.4896270000000  0.5271950000000  0.5266350000000 1.0
C      1  0.5118440000000  0.5362190000000  0.5066590000000 1.0
C      1  0.4855310000000  0.4803690000000  0.4822850000000 1.0
C      1  0.4771620000000  0.5011350000000  0.5151720000000 1.0
C      1  0.5244190000000  0.4854800000000  0.5177780000000 1.0
C      1  0.5314130000000  0.5092090000000  0.5006490000000 1.0
C      1  0.4674430000000  0.5042940000000  0.4830290000000 1.0
C      1  0.5803730000000  0.4911740000000  0.5125220000000 1.0
C      1  0.4428670000000  0.5024700000000  0.5137740000000 1.0
C      1  0.5654100000000  0.5102650000000  0.4996500000000 1.0
C      1  0.4360800000000  0.4985480000000  0.4831190000000 1.0
C      1  0.4808640000000  0.5773440000000  0.4936790000000 1.0
C      1  0.4986750000000  0.4445470000000  0.5143490000000 1.0
C      1  0.4984500000000  0.5580600000000  0.4846180000000 1.0
C      1  0.4855170000000  0.4312010000000  0.4934210000000 1.0
C      1  0.4936350000000  0.4643250000000  0.4538590000000 1.0
C      1  0.5117720000000  0.5279380000000  0.4436460000000 1.0
C      1  0.4936330000000  0.5181440000000  0.5571570000000 1.0
C      1  0.5268820000000  0.4548570000000  0.5548630000000 1.0
C      1  0.4699010000000  0.4884770000000  0.4464620000000 1.0
C      1  0.5288540000000  0.5103250000000  0.4665470000000 1.0
C      1  0.5270800000000  0.4828950000000  0.5494690000000 1.0
C      1  0.4643440000000  0.5138460000000  0.5594460000000 1.0
C      1  0.5447240000000  0.4594830000000  0.5194300000000 1.0
C      1  0.4628430000000  0.5473150000000  0.5256880000000 1.0
C      1  0.5358490000000  0.5458350000000  0.4834090000000 1.0
C      1  0.4475540000000  0.4518580000000  0.4656570000000 1.0
C      1  0.5167020000000  0.5044100000000  0.5636740000000 1.0
C      1  0.5026860000000  0.4966280000000  0.4503350000000 1.0
END
