TITL C-2622959-7779-439 -12.9039795192874 125000 -1082.33475022945 0 0 192 (C1) n - 1
REM
REM in /nfs/bkarasulu/CARBON/AIRSS/Generating-Clusters/AIREBO/with-SteepDescent/Higher-Symm/SD-CG/HFTN-CG
REM
REM
REM
REM
REM
REM ./C.cell (b20cbc046b6831c77cfcea5457e17084)
REM
REM compiler GCC version 9.2.1 20190827 (Red Hat 9.2.1-1)
REM options -cpp -mtune=generic -march=x86-64 -g -O0 -fpre-include=/usr/include/finclude/math-vector-fortran.h
REM seed 1079222878 -691368639 -1516704249 -736847524 -1172481007 -1495968809 1772666844 1149570941 522141456 -1291413870 -289505689 995263392 917030938 1930582271 -854544405 -772029375 -1311828570 -1992606015 1817418400 1702582408 876132872 142996711 -270563851 -873032333 -844376308 1764714631 -532008636 -2064411420 217978893 1377543580 1776126853 -1854382573 -2105678947
REM
CELL 1.54180   50.00000   50.00000   50.00000   90.00000   90.00000   90.00000
LATT -1
SFAC C  
C      1  0.4320570000000  0.5267160000000  0.5495360000000 1.0
C      1  0.5280510000000  0.5469700000000  0.4281410000000 1.0
C      1  0.5485210000000  0.4335490000000  0.5247890000000 1.0
C      1  0.5644960000000  0.4796120000000  0.5432840000000 1.0
C      1  0.4250550000000  0.4726220000000  0.4480990000000 1.0
C      1  0.5661790000000  0.5215480000000  0.4574880000000 1.0
C      1  0.4766370000000  0.4572030000000  0.4304550000000 1.0
C      1  0.5185120000000  0.4608560000000  0.5583090000000 1.0
C      1  0.4829430000000  0.5450410000000  0.5601800000000 1.0
C      1  0.4489280000000  0.5741690000000  0.5291990000000 1.0
C      1  0.5491680000000  0.5698270000000  0.4679660000000 1.0
C      1  0.4507520000000  0.4305230000000  0.4713930000000 1.0
C      1  0.5267850000000  0.4317540000000  0.5464510000000 1.0
C      1  0.5465970000000  0.5206520000000  0.4334420000000 1.0
C      1  0.4283730000000  0.5488890000000  0.5272020000000 1.0
C      1  0.4737390000000  0.5719700000000  0.5467260000000 1.0
C      1  0.4757280000000  0.4316920000000  0.4513890000000 1.0
C      1  0.5251950000000  0.5713990000000  0.4493210000000 1.0
C      1  0.4495710000000  0.4740180000000  0.4268690000000 1.0
C      1  0.4598420000000  0.5223270000000  0.5655140000000 1.0
C      1  0.5426670000000  0.4777190000000  0.5652080000000 1.0
C      1  0.5594070000000  0.4627440000000  0.5190070000000 1.0
C      1  0.5590930000000  0.5438970000000  0.4797610000000 1.0
C      1  0.4232960000000  0.4505740000000  0.4701920000000 1.0
C      1  0.3897670000000  0.4839700000000  0.4992960000000 1.0
C      1  0.4747870000000  0.5006100000000  0.3963340000000 1.0
C      1  0.4967250000000  0.3925900000000  0.4832190000000 1.0
C      1  0.6074020000000  0.5192290000000  0.5029880000000 1.0
C      1  0.3903340000000  0.5188840000000  0.5016710000000 1.0
C      1  0.6069160000000  0.4792960000000  0.5041970000000 1.0
C      1  0.5266590000000  0.4994590000000  0.3898640000000 1.0
C      1  0.4838760000000  0.4972850000000  0.6083220000000 1.0
C      1  0.5234290000000  0.4976090000000  0.6094420000000 1.0
C      1  0.5008270000000  0.6032420000000  0.4782270000000 1.0
C      1  0.4989760000000  0.6059380000000  0.5189400000000 1.0
C      1  0.4989210000000  0.3933520000000  0.5181850000000 1.0
C      1  0.4686090000000  0.3918650000000  0.5023270000000 1.0
C      1  0.5000280000000  0.4788290000000  0.3945660000000 1.0
C      1  0.3939140000000  0.5020650000000  0.4723220000000 1.0
C      1  0.5269060000000  0.6053430000000  0.4995190000000 1.0
C      1  0.5259520000000  0.3988710000000  0.4994250000000 1.0
C      1  0.4762240000000  0.6103910000000  0.5009850000000 1.0
C      1  0.5033280000000  0.5182820000000  0.3905350000000 1.0
C      1  0.5045200000000  0.4715720000000  0.6077350000000 1.0
C      1  0.5026880000000  0.5244950000000  0.6113350000000 1.0
C      1  0.6156010000000  0.4994120000000  0.4782790000000 1.0
C      1  0.6128180000000  0.5009760000000  0.5297180000000 1.0
C      1  0.3984010000000  0.5000820000000  0.5281880000000 1.0
C      1  0.3972260000000  0.5499170000000  0.5135800000000 1.0
C      1  0.5528200000000  0.5099630000000  0.4017690000000 1.0
C      1  0.5119910000000  0.4011320000000  0.5462530000000 1.0
C      1  0.6069930000000  0.4560850000000  0.5290500000000 1.0
C      1  0.3948770000000  0.4545020000000  0.4885370000000 1.0
C      1  0.6066480000000  0.5443720000000  0.4761650000000 1.0
C      1  0.4429570000000  0.4877620000000  0.3964700000000 1.0
C      1  0.5470020000000  0.4758500000000  0.5981280000000 1.0
C      1  0.4584390000000  0.5176580000000  0.5986070000000 1.0
C      1  0.4909200000000  0.6009050000000  0.5515940000000 1.0
C      1  0.5125900000000  0.6028050000000  0.4458940000000 1.0
C      1  0.4900900000000  0.4009460000000  0.4537830000000 1.0
C      1  0.5560560000000  0.4018110000000  0.5149700000000 1.0
C      1  0.5122500000000  0.5463780000000  0.3981830000000 1.0
C      1  0.4020740000000  0.5139800000000  0.5593070000000 1.0
C      1  0.4482610000000  0.6039030000000  0.5127190000000 1.0
C      1  0.4403830000000  0.4015300000000  0.4860060000000 1.0
C      1  0.5540920000000  0.5955460000000  0.4855310000000 1.0
C      1  0.4921900000000  0.4473900000000  0.4024540000000 1.0
C      1  0.4766340000000  0.5457220000000  0.6048230000000 1.0
C      1  0.5270680000000  0.4480820000000  0.6030290000000 1.0
C      1  0.5963410000000  0.4802350000000  0.5510400000000 1.0
C      1  0.5995310000000  0.5185340000000  0.4552090000000 1.0
C      1  0.3941800000000  0.4855720000000  0.4421100000000 1.0
C      1  0.4088880000000  0.5313030000000  0.5864750000000 1.0
C      1  0.5272580000000  0.5765790000000  0.4008690000000 1.0
C      1  0.5815410000000  0.4099170000000  0.5351450000000 1.0
C      1  0.5942570000000  0.4600090000000  0.5782920000000 1.0
C      1  0.4001460000000  0.4648460000000  0.4178240000000 1.0
C      1  0.5981110000000  0.5331600000000  0.4245450000000 1.0
C      1  0.4793860000000  0.4171960000000  0.4033700000000 1.0
C      1  0.5332070000000  0.4173670000000  0.5944280000000 1.0
C      1  0.4693080000000  0.5783630000000  0.5987320000000 1.0
C      1  0.4179620000000  0.5993810000000  0.5274860000000 1.0
C      1  0.5833460000000  0.5905390000000  0.4691660000000 1.0
C      1  0.4095980000000  0.4039110000000  0.4760110000000 1.0
C      1  0.5305890000000  0.4028080000000  0.5745110000000 1.0
C      1  0.5814550000000  0.5271590000000  0.4067630000000 1.0
C      1  0.4010820000000  0.5809420000000  0.5269660000000 1.0
C      1  0.4730820000000  0.5942070000000  0.5797870000000 1.0
C      1  0.4778350000000  0.4012570000000  0.4225370000000 1.0
C      1  0.5282310000000  0.5951710000000  0.4173430000000 1.0
C      1  0.4187080000000  0.4662940000000  0.4010840000000 1.0
C      1  0.4282010000000  0.5327480000000  0.6023450000000 1.0
C      1  0.5760590000000  0.4583690000000  0.5956130000000 1.0
C      1  0.6010640000000  0.4250920000000  0.5367960000000 1.0
C      1  0.6022870000000  0.5744680000000  0.4659060000000 1.0
C      1  0.3942570000000  0.4235570000000  0.4752640000000 1.0
C      1  0.5753560000000  0.4217520000000  0.4974770000000 1.0
C      1  0.4160970000000  0.4890300000000  0.5744050000000 1.0
C      1  0.4887320000000  0.5669540000000  0.4046230000000 1.0
C      1  0.4278800000000  0.5964480000000  0.4889780000000 1.0
C      1  0.5727490000000  0.5803480000000  0.5063330000000 1.0
C      1  0.4256700000000  0.4119940000000  0.5124810000000 1.0
C      1  0.5888420000000  0.5055440000000  0.5724820000000 1.0
C      1  0.4016120000000  0.5130510000000  0.4285020000000 1.0
C      1  0.5966810000000  0.4906280000000  0.4359880000000 1.0
C      1  0.5173460000000  0.4287100000000  0.4080480000000 1.0
C      1  0.4972870000000  0.4347310000000  0.5934840000000 1.0
C      1  0.5046340000000  0.5606680000000  0.5935050000000 1.0
C      1  0.4110740000000  0.5698760000000  0.4899560000000 1.0
C      1  0.4937070000000  0.4172300000000  0.5694020000000 1.0
C      1  0.5733390000000  0.4889940000000  0.4154560000000 1.0
C      1  0.5974060000000  0.4407190000000  0.5002640000000 1.0
C      1  0.5948890000000  0.5602980000000  0.5024550000000 1.0
C      1  0.4027010000000  0.4341100000000  0.5128280000000 1.0
C      1  0.5088380000000  0.5793370000000  0.5701350000000 1.0
C      1  0.5154980000000  0.4092600000000  0.4330820000000 1.0
C      1  0.4890570000000  0.5883170000000  0.4277600000000 1.0
C      1  0.4264710000000  0.5135920000000  0.4097970000000 1.0
C      1  0.4394250000000  0.4896110000000  0.5956570000000 1.0
C      1  0.5678860000000  0.5026270000000  0.5963790000000 1.0
C      1  0.5207370000000  0.4553320000000  0.4940340000000 1.0
C      1  0.4541420000000  0.4973150000000  0.5213830000000 1.0
C      1  0.4959350000000  0.5223170000000  0.4579440000000 1.0
C      1  0.4701780000000  0.5431710000000  0.4966570000000 1.0
C      1  0.5181210000000  0.5503780000000  0.4996830000000 1.0
C      1  0.4720050000000  0.4559870000000  0.4953520000000 1.0
C      1  0.5378920000000  0.5068960000000  0.5181110000000 1.0
C      1  0.4506760000000  0.4996250000000  0.4733790000000 1.0
C      1  0.5351290000000  0.5013970000000  0.4789280000000 1.0
C      1  0.4935930000000  0.4825200000000  0.4562690000000 1.0
C      1  0.5018090000000  0.4761370000000  0.5368650000000 1.0
C      1  0.4926660000000  0.5243040000000  0.5389140000000 1.0
C      1  0.4543910000000  0.5179770000000  0.4976480000000 1.0
C      1  0.4970130000000  0.4575340000000  0.5137250000000 1.0
C      1  0.5196990000000  0.5008700000000  0.4553550000000 1.0
C      1  0.5381040000000  0.4782760000000  0.5010820000000 1.0
C      1  0.5367590000000  0.5290670000000  0.4953440000000 1.0
C      1  0.4534660000000  0.4783770000000  0.4970800000000 1.0
C      1  0.4928700000000  0.5428440000000  0.5169220000000 1.0
C      1  0.4949560000000  0.4609350000000  0.4742400000000 1.0
C      1  0.4946340000000  0.5461050000000  0.4774280000000 1.0
C      1  0.4717780000000  0.5030600000000  0.4543080000000 1.0
C      1  0.4777290000000  0.4972130000000  0.5367630000000 1.0
C      1  0.5167550000000  0.5050610000000  0.5390390000000 1.0
C      1  0.5362780000000  0.4292160000000  0.4939740000000 1.0
C      1  0.4292830000000  0.4955000000000  0.5372480000000 1.0
C      1  0.4967680000000  0.5418340000000  0.4346040000000 1.0
C      1  0.4544220000000  0.5678620000000  0.4973800000000 1.0
C      1  0.5300040000000  0.5769300000000  0.5130240000000 1.0
C      1  0.4695160000000  0.4251570000000  0.4992400000000 1.0
C      1  0.5653850000000  0.5098500000000  0.5325820000000 1.0
C      1  0.4238850000000  0.5041140000000  0.4604870000000 1.0
C      1  0.5668250000000  0.4999290000000  0.4837240000000 1.0
C      1  0.5048890000000  0.4760430000000  0.4270200000000 1.0
C      1  0.4939010000000  0.4709180000000  0.5771960000000 1.0
C      1  0.5036060000000  0.5241890000000  0.5773440000000 1.0
C      1  0.4305810000000  0.5359740000000  0.4977190000000 1.0
C      1  0.4974740000000  0.4364350000000  0.5347790000000 1.0
C      1  0.5355490000000  0.4885570000000  0.4306520000000 1.0
C      1  0.5772250000000  0.4743900000000  0.4940680000000 1.0
C      1  0.5757210000000  0.5253600000000  0.5031980000000 1.0
C      1  0.4323960000000  0.4576380000000  0.5005050000000 1.0
C      1  0.5038170000000  0.5685430000000  0.5321270000000 1.0
C      1  0.5078190000000  0.4352700000000  0.4620670000000 1.0
C      1  0.4945970000000  0.5728770000000  0.4641610000000 1.0
C      1  0.4619470000000  0.5056820000000  0.4261970000000 1.0
C      1  0.4837940000000  0.4980450000000  0.5683970000000 1.0
C      1  0.5317180000000  0.5072660000000  0.5667110000000 1.0
C      1  0.5358600000000  0.4263970000000  0.4526060000000 1.0
C      1  0.4277820000000  0.4468430000000  0.5309290000000 1.0
C      1  0.4480430000000  0.5338680000000  0.4241730000000 1.0
C      1  0.4660470000000  0.5778380000000  0.4494600000000 1.0
C      1  0.5316190000000  0.5660340000000  0.5512120000000 1.0
C      1  0.4712960000000  0.4299790000000  0.5500600000000 1.0
C      1  0.5770610000000  0.5478930000000  0.5286330000000 1.0
C      1  0.4249090000000  0.5495080000000  0.4690880000000 1.0
C      1  0.5809370000000  0.4519970000000  0.4719870000000 1.0
C      1  0.5551050000000  0.4640220000000  0.4259250000000 1.0
C      1  0.4450260000000  0.4633000000000  0.5791340000000 1.0
C      1  0.5555440000000  0.5270100000000  0.5776430000000 1.0
C      1  0.4234580000000  0.5323330000000  0.4449140000000 1.0
C      1  0.4520840000000  0.4248570000000  0.5286800000000 1.0
C      1  0.5411320000000  0.4383690000000  0.4242280000000 1.0
C      1  0.5826270000000  0.4644440000000  0.4447720000000 1.0
C      1  0.5779890000000  0.5307220000000  0.5547830000000 1.0
C      1  0.4280120000000  0.4674420000000  0.5514200000000 1.0
C      1  0.5562860000000  0.5731490000000  0.5336290000000 1.0
C      1  0.5590080000000  0.4282330000000  0.4709310000000 1.0
C      1  0.4433400000000  0.5766850000000  0.4675150000000 1.0
C      1  0.4678990000000  0.5547020000000  0.4269330000000 1.0
C      1  0.4709190000000  0.4491870000000  0.5766390000000 1.0
C      1  0.5297290000000  0.5459410000000  0.5763700000000 1.0
END
