TITL C-2622953-3516-425 0.00153028092806895 125000 -786.187357439077 0 0 148 (C1) n - 1
REM
REM in /nfs/bkarasulu/CARBON/AIRSS/Generating-Clusters/AIREBO/with-SteepDescent/Higher-Symm/SD-CG/HFTN-CG
REM
REM
REM
REM
REM
REM ./C.cell (b20cbc046b6831c77cfcea5457e17084)
REM
REM compiler GCC version 9.2.1 20190827 (Red Hat 9.2.1-1)
REM options -cpp -mtune=generic -march=x86-64 -g -O0 -fpre-include=/usr/include/finclude/math-vector-fortran.h
REM seed 2040219355 -1617501425 -1497054235 -1901518100 373584639 734737225 1581548698 500415903 -1579136165 656407496 352822492 -1710613127 1182737478 650777099 1555668388 -1963961291 -1525640102 887550730 1655980952 -1213035917 -1714374925 2100241846 -1471649874 1348846458 372361929 -1087256289 -677096137 937748441 -32129589 997847151 1788270614 913664355 1949029603
REM
CELL 1.54180   50.00000   50.00000   50.00000   90.00000   90.00000   90.00000
LATT -1
SFAC C  
C      1  0.5192230000000  0.5122560000000  0.4429960000000 1.0
C      1  0.4852400000000  0.5109510000000  0.4436260000000 1.0
C      1  0.4947450000000  0.4784750000000  0.4472430000000 1.0
C      1  0.5109400000000  0.5081570000000  0.5656880000000 1.0
C      1  0.4731910000000  0.5208100000000  0.5633890000000 1.0
C      1  0.4965820000000  0.4763630000000  0.5640620000000 1.0
C      1  0.5865220000000  0.5185200000000  0.5161730000000 1.0
C      1  0.4408510000000  0.5701230000000  0.5080180000000 1.0
C      1  0.4785220000000  0.4131650000000  0.5150710000000 1.0
C      1  0.5886330000000  0.5167860000000  0.4826050000000 1.0
C      1  0.4408160000000  0.5697160000000  0.4737480000000 1.0
C      1  0.4885720000000  0.4204810000000  0.4831860000000 1.0
C      1  0.4746240000000  0.5574070000000  0.4175460000000 1.0
C      1  0.4684180000000  0.4505600000000  0.4377340000000 1.0
C      1  0.5549410000000  0.4987840000000  0.4312420000000 1.0
C      1  0.4764520000000  0.5558380000000  0.5820980000000 1.0
C      1  0.4694140000000  0.4613640000000  0.6211850000000 1.0
C      1  0.5426690000000  0.4879580000000  0.5790410000000 1.0
C      1  0.5491970000000  0.5135170000000  0.4880180000000 1.0
C      1  0.4664520000000  0.5408440000000  0.4822240000000 1.0
C      1  0.4744690000000  0.4490030000000  0.4832200000000 1.0
C      1  0.5467250000000  0.5182590000000  0.5180640000000 1.0
C      1  0.4706880000000  0.5443260000000  0.5125950000000 1.0
C      1  0.4844130000000  0.4521680000000  0.5145060000000 1.0
C      1  0.5626220000000  0.5369490000000  0.4364680000000 1.0
C      1  0.4434090000000  0.5398440000000  0.4342420000000 1.0
C      1  0.4994310000000  0.4266340000000  0.4424680000000 1.0
C      1  0.5594180000000  0.5228740000000  0.5557200000000 1.0
C      1  0.4407090000000  0.5427440000000  0.5574410000000 1.0
C      1  0.4950650000000  0.4317710000000  0.5621260000000 1.0
C      1  0.5097150000000  0.4261850000000  0.4172650000000 1.0
C      1  0.5550800000000  0.5476840000000  0.4125830000000 1.0
C      1  0.4292410000000  0.5265530000000  0.4147500000000 1.0
C      1  0.4985740000000  0.4403250000000  0.5886090000000 1.0
C      1  0.5553400000000  0.5379440000000  0.5828940000000 1.0
C      1  0.4288920000000  0.5221330000000  0.5737680000000 1.0
C      1  0.4820250000000  0.4683640000000  0.5937680000000 1.0
C      1  0.5366540000000  0.5143300000000  0.5871020000000 1.0
C      1  0.4752660000000  0.5253080000000  0.5970300000000 1.0
C      1  0.4818770000000  0.4731600000000  0.4161800000000 1.0
C      1  0.5267150000000  0.4994520000000  0.4122950000000 1.0
C      1  0.4830500000000  0.5249750000000  0.4127200000000 1.0
C      1  0.4122410000000  0.5253580000000  0.5116260000000 1.0
C      1  0.5317090000000  0.4101550000000  0.5192080000000 1.0
C      1  0.5718410000000  0.5680970000000  0.5142710000000 1.0
C      1  0.4096470000000  0.5281280000000  0.4820980000000 1.0
C      1  0.5326630000000  0.3976820000000  0.4929330000000 1.0
C      1  0.5698300000000  0.5677030000000  0.4863920000000 1.0
C      1  0.4053310000000  0.4944800000000  0.5178780000000 1.0
C      1  0.5557850000000  0.4225300000000  0.5269550000000 1.0
C      1  0.5613940000000  0.5864470000000  0.5330540000000 1.0
C      1  0.3972680000000  0.4993400000000  0.4855400000000 1.0
C      1  0.5494610000000  0.4014590000000  0.4638590000000 1.0
C      1  0.5556860000000  0.5873930000000  0.4739860000000 1.0
C      1  0.5973560000000  0.4387090000000  0.5072440000000 1.0
C      1  0.5024710000000  0.6112570000000  0.5260710000000 1.0
C      1  0.4123640000000  0.4511360000000  0.5057910000000 1.0
C      1  0.5850880000000  0.4336800000000  0.4796960000000 1.0
C      1  0.5063990000000  0.6137840000000  0.4967300000000 1.0
C      1  0.4138820000000  0.4527000000000  0.4744590000000 1.0
C      1  0.5702920000000  0.5422650000000  0.5230470000000 1.0
C      1  0.4374710000000  0.5399740000000  0.5184750000000 1.0
C      1  0.5068880000000  0.4285460000000  0.5242040000000 1.0
C      1  0.5652210000000  0.5397300000000  0.4762280000000 1.0
C      1  0.4354690000000  0.5375890000000  0.4729880000000 1.0
C      1  0.5191690000000  0.4233100000000  0.4773100000000 1.0
C      1  0.5524560000000  0.4301870000000  0.4816250000000 1.0
C      1  0.5267360000000  0.5925160000000  0.4877370000000 1.0
C      1  0.4101090000000  0.4790810000000  0.4621710000000 1.0
C      1  0.5580980000000  0.4462530000000  0.5078320000000 1.0
C      1  0.5146120000000  0.5803750000000  0.5170990000000 1.0
C      1  0.4325660000000  0.4742700000000  0.5203850000000 1.0
C      1  0.5250780000000  0.4930690000000  0.5253510000000 1.0
C      1  0.4924730000000  0.5268100000000  0.5261680000000 1.0
C      1  0.4838700000000  0.4812830000000  0.5249270000000 1.0
C      1  0.5228330000000  0.4962070000000  0.4790950000000 1.0
C      1  0.4942960000000  0.5254070000000  0.4796370000000 1.0
C      1  0.4817720000000  0.4813070000000  0.4845910000000 1.0
C      1  0.4367710000000  0.4740930000000  0.5541320000000 1.0
C      1  0.5436520000000  0.4517910000000  0.5622960000000 1.0
C      1  0.5173720000000  0.5594580000000  0.5546460000000 1.0
C      1  0.4339480000000  0.4884500000000  0.4464120000000 1.0
C      1  0.5379170000000  0.4508420000000  0.4395720000000 1.0
C      1  0.5183600000000  0.5593970000000  0.4397920000000 1.0
C      1  0.5037900000000  0.5360210000000  0.5839010000000 1.0
C      1  0.4688680000000  0.4954280000000  0.5856390000000 1.0
C      1  0.5211800000000  0.4730340000000  0.5873080000000 1.0
C      1  0.5124850000000  0.5261690000000  0.4037680000000 1.0
C      1  0.4658030000000  0.4975090000000  0.4081520000000 1.0
C      1  0.5117680000000  0.4739580000000  0.4058230000000 1.0
C      1  0.5607470000000  0.4288340000000  0.5525620000000 1.0
C      1  0.5359640000000  0.5826340000000  0.5411840000000 1.0
C      1  0.4035790000000  0.4780140000000  0.5473460000000 1.0
C      1  0.5522650000000  0.4223660000000  0.4426350000000 1.0
C      1  0.5299530000000  0.5835380000000  0.4550960000000 1.0
C      1  0.3791050000000  0.4887680000000  0.4589980000000 1.0
C      1  0.4575980000000  0.5976400000000  0.5306070000000 1.0
C      1  0.4425650000000  0.4176290000000  0.5314090000000 1.0
C      1  0.6040400000000  0.4846690000000  0.5267050000000 1.0
C      1  0.4755730000000  0.5898780000000  0.4660540000000 1.0
C      1  0.4421510000000  0.4110490000000  0.4649610000000 1.0
C      1  0.5891460000000  0.4813810000000  0.4644240000000 1.0
C      1  0.4449170000000  0.4431700000000  0.4757680000000 1.0
C      1  0.5600970000000  0.4832770000000  0.4803140000000 1.0
C      1  0.4881800000000  0.5654750000000  0.4836540000000 1.0
C      1  0.4509410000000  0.4462210000000  0.5150240000000 1.0
C      1  0.5800030000000  0.4671780000000  0.5005690000000 1.0
C      1  0.4835470000000  0.5730620000000  0.5137630000000 1.0
C      1  0.4150350000000  0.4242870000000  0.4574480000000 1.0
C      1  0.5946610000000  0.4508290000000  0.4600060000000 1.0
C      1  0.4871420000000  0.6178630000000  0.4776200000000 1.0
C      1  0.4123000000000  0.4279460000000  0.5212320000000 1.0
C      1  0.6086230000000  0.4570500000000  0.5290850000000 1.0
C      1  0.4781030000000  0.6137790000000  0.5399370000000 1.0
C      1  0.5172930000000  0.5476860000000  0.4843080000000 1.0
C      1  0.4585380000000  0.5027180000000  0.4863350000000 1.0
C      1  0.5313750000000  0.4656760000000  0.4854110000000 1.0
C      1  0.5185460000000  0.5465880000000  0.5169130000000 1.0
C      1  0.4561040000000  0.4955510000000  0.5166270000000 1.0
C      1  0.5312950000000  0.4622510000000  0.5169600000000 1.0
C      1  0.5279040000000  0.5287880000000  0.5443590000000 1.0
C      1  0.4536270000000  0.5183980000000  0.5375180000000 1.0
C      1  0.5143020000000  0.4541910000000  0.5452890000000 1.0
C      1  0.5364750000000  0.5372970000000  0.4582200000000 1.0
C      1  0.4534370000000  0.5149220000000  0.4551000000000 1.0
C      1  0.5116750000000  0.4522800000000  0.4611440000000 1.0
C      1  0.5777090000000  0.4982440000000  0.5410470000000 1.0
C      1  0.4557860000000  0.5670140000000  0.5415420000000 1.0
C      1  0.4711310000000  0.4290400000000  0.5442990000000 1.0
C      1  0.5784900000000  0.5107180000000  0.4506800000000 1.0
C      1  0.4633620000000  0.5630010000000  0.4491620000000 1.0
C      1  0.4702000000000  0.4211310000000  0.4541750000000 1.0
C      1  0.5343050000000  0.4830720000000  0.4498230000000 1.0
C      1  0.4912480000000  0.5435920000000  0.4510510000000 1.0
C      1  0.4624490000000  0.4761560000000  0.4570490000000 1.0
C      1  0.5487880000000  0.4831130000000  0.5477340000000 1.0
C      1  0.4843750000000  0.5502220000000  0.5495040000000 1.0
C      1  0.4687760000000  0.4632300000000  0.5494900000000 1.0
C      1  0.5282760000000  0.4441950000000  0.5917270000000 1.0
C      1  0.5299130000000  0.5535670000000  0.5840910000000 1.0
C      1  0.4400330000000  0.4969100000000  0.5744570000000 1.0
C      1  0.5253430000000  0.4500740000000  0.4108330000000 1.0
C      1  0.5264670000000  0.5497960000000  0.4113240000000 1.0
C      1  0.4384960000000  0.4993100000000  0.4163050000000 1.0
C      1  0.4429300000000  0.4173140000000  0.4979180000000 1.0
C      1  0.4622210000000  0.5936740000000  0.4971390000000 1.0
C      1  0.6033320000000  0.4903400000000  0.4940610000000 1.0
C      1  0.5003460000000  0.5023270000000  0.5038780000000 1.0
END
