TITL C-2622957-9142-138 0.0011126843149848 125000 -770.991960328297 0 0 148 (C1) n - 1
REM
REM in /nfs/bkarasulu/CARBON/AIRSS/Generating-Clusters/AIREBO/with-SteepDescent/Higher-Symm/SD-CG/HFTN-CG
REM
REM
REM
REM
REM
REM ./C.cell (b20cbc046b6831c77cfcea5457e17084)
REM
REM compiler GCC version 9.2.1 20190827 (Red Hat 9.2.1-1)
REM options -cpp -mtune=generic -march=x86-64 -g -O0 -fpre-include=/usr/include/finclude/math-vector-fortran.h
REM seed 1542134213 1306981177 349679958 -225626321 696702233 168977171 1262233285 -1207085283 -2065146868 617187431 -480869611 -1400649715 -1673494132 -1852536515 1894663325 -1699365585 1109129352 1641912283 -2026717770 -371257601 1673473549 -919906346 -240493367 206538667 -1334763956 -318784966 1899232651 930334569 -1680147334 -694428523 -624277917 -1561859008 1944826374
REM
CELL 1.54180   50.00000   50.00000   50.00000   90.00000   90.00000   90.00000
LATT -1
SFAC C  
C      1  0.4865240000000  0.5304980000000  0.5835730000000 1.0
C      1  0.4897650000000  0.5912540000000  0.4687120000000 1.0
C      1  0.4826670000000  0.4662940000000  0.4056560000000 1.0
C      1  0.4831830000000  0.4032320000000  0.5299720000000 1.0
C      1  0.5203040000000  0.5371330000000  0.4122650000000 1.0
C      1  0.5143710000000  0.5957040000000  0.5236480000000 1.0
C      1  0.5178520000000  0.4645340000000  0.5949300000000 1.0
C      1  0.5126460000000  0.4077550000000  0.4647520000000 1.0
C      1  0.5175510000000  0.5610860000000  0.4295510000000 1.0
C      1  0.5160200000000  0.4407740000000  0.4573490000000 1.0
C      1  0.5247620000000  0.4400950000000  0.5727720000000 1.0
C      1  0.5214250000000  0.5775650000000  0.5500820000000 1.0
C      1  0.4714630000000  0.5508990000000  0.5623500000000 1.0
C      1  0.4758150000000  0.4286930000000  0.5498730000000 1.0
C      1  0.4677450000000  0.4493700000000  0.4310990000000 1.0
C      1  0.4885990000000  0.5647800000000  0.4473970000000 1.0
C      1  0.4764340000000  0.4455460000000  0.5205500000000 1.0
C      1  0.4653120000000  0.5192230000000  0.5516250000000 1.0
C      1  0.4691130000000  0.5552240000000  0.4731940000000 1.0
C      1  0.4727520000000  0.4761730000000  0.4464040000000 1.0
C      1  0.5379250000000  0.4403270000000  0.4833490000000 1.0
C      1  0.5363360000000  0.5158200000000  0.4501420000000 1.0
C      1  0.5290330000000  0.5586590000000  0.5228590000000 1.0
C      1  0.5306680000000  0.4695350000000  0.5575490000000 1.0
C      1  0.4321270000000  0.4774720000000  0.4305410000000 1.0
C      1  0.4337130000000  0.4369060000000  0.5250970000000 1.0
C      1  0.4308160000000  0.5267000000000  0.5812280000000 1.0
C      1  0.4322500000000  0.5684410000000  0.4807480000000 1.0
C      1  0.5682690000000  0.4807240000000  0.5652130000000 1.0
C      1  0.5727320000000  0.4253220000000  0.4728020000000 1.0
C      1  0.5733080000000  0.5205520000000  0.4357190000000 1.0
C      1  0.5678930000000  0.5671610000000  0.5188640000000 1.0
C      1  0.4405410000000  0.5393890000000  0.4651360000000 1.0
C      1  0.4310340000000  0.4629570000000  0.4612890000000 1.0
C      1  0.4429700000000  0.4625440000000  0.5405090000000 1.0
C      1  0.4340810000000  0.5324660000000  0.5487410000000 1.0
C      1  0.5550480000000  0.5414400000000  0.5370180000000 1.0
C      1  0.5584350000000  0.4591130000000  0.5408660000000 1.0
C      1  0.5631550000000  0.4576860000000  0.4685650000000 1.0
C      1  0.5580750000000  0.5393420000000  0.4591740000000 1.0
C      1  0.4679370000000  0.4576890000000  0.5575750000000 1.0
C      1  0.4646730000000  0.5520280000000  0.5290470000000 1.0
C      1  0.4555580000000  0.5392730000000  0.4358190000000 1.0
C      1  0.4463130000000  0.4360420000000  0.4471480000000 1.0
C      1  0.5464740000000  0.4595550000000  0.4396380000000 1.0
C      1  0.5301190000000  0.5586860000000  0.4584890000000 1.0
C      1  0.5323360000000  0.5490860000000  0.5611430000000 1.0
C      1  0.5351880000000  0.4342950000000  0.5409280000000 1.0
C      1  0.5304600000000  0.4116000000000  0.5000140000000 1.0
C      1  0.5282350000000  0.4948280000000  0.5715360000000 1.0
C      1  0.5356430000000  0.5755350000000  0.4967400000000 1.0
C      1  0.5280160000000  0.4994370000000  0.4214400000000 1.0
C      1  0.4727330000000  0.4217470000000  0.4965250000000 1.0
C      1  0.4753360000000  0.5010600000000  0.4232680000000 1.0
C      1  0.4678110000000  0.5751550000000  0.4974860000000 1.0
C      1  0.4692780000000  0.4956730000000  0.5760040000000 1.0
C      1  0.5192850000000  0.4739720000000  0.4507630000000 1.0
C      1  0.5190660000000  0.4497120000000  0.5152210000000 1.0
C      1  0.5138050000000  0.5275390000000  0.5477380000000 1.0
C      1  0.5098900000000  0.5493280000000  0.4809660000000 1.0
C      1  0.4899630000000  0.4777610000000  0.5471640000000 1.0
C      1  0.5019090000000  0.4560210000000  0.4842700000000 1.0
C      1  0.4866150000000  0.5308310000000  0.4468040000000 1.0
C      1  0.4930490000000  0.5477110000000  0.5108000000000 1.0
C      1  0.4782060000000  0.5791410000000  0.5726880000000 1.0
C      1  0.4753780000000  0.5861770000000  0.4245070000000 1.0
C      1  0.4874930000000  0.4284940000000  0.4170530000000 1.0
C      1  0.4862270000000  0.4111670000000  0.5737480000000 1.0
C      1  0.5020940000000  0.5865600000000  0.4167770000000 1.0
C      1  0.5021390000000  0.5874430000000  0.5722610000000 1.0
C      1  0.5092380000000  0.4156730000000  0.5829820000000 1.0
C      1  0.5094640000000  0.4240880000000  0.4284580000000 1.0
C      1  0.5829770000000  0.5568340000000  0.4974370000000 1.0
C      1  0.5891980000000  0.5008960000000  0.4485040000000 1.0
C      1  0.5878690000000  0.4402800000000  0.4945860000000 1.0
C      1  0.5820360000000  0.5021080000000  0.5529180000000 1.0
C      1  0.4182120000000  0.5597160000000  0.5042800000000 1.0
C      1  0.4129830000000  0.5071720000000  0.5556870000000 1.0
C      1  0.4129730000000  0.4454800000000  0.5079640000000 1.0
C      1  0.4130480000000  0.4912670000000  0.4556040000000 1.0
C      1  0.4959100000000  0.5231890000000  0.4075340000000 1.0
C      1  0.4830460000000  0.4061770000000  0.4705820000000 1.0
C      1  0.4918420000000  0.4767590000000  0.5931370000000 1.0
C      1  0.4829540000000  0.6004240000000  0.5286890000000 1.0
C      1  0.5084660000000  0.5428640000000  0.6011480000000 1.0
C      1  0.5098260000000  0.3976260000000  0.5232070000000 1.0
C      1  0.5093980000000  0.4750140000000  0.4066900000000 1.0
C      1  0.5168410000000  0.6053220000000  0.4593870000000 1.0
C      1  0.5177890000000  0.5153750000000  0.5200310000000 1.0
C      1  0.5133630000000  0.5190250000000  0.4740640000000 1.0
C      1  0.5251670000000  0.4891120000000  0.4773590000000 1.0
C      1  0.5172890000000  0.4831390000000  0.5092340000000 1.0
C      1  0.4829820000000  0.5105820000000  0.4738750000000 1.0
C      1  0.4840100000000  0.5180940000000  0.5231810000000 1.0
C      1  0.4842990000000  0.4771630000000  0.5135530000000 1.0
C      1  0.4777330000000  0.4774710000000  0.4801760000000 1.0
C      1  0.5591440000000  0.5208430000000  0.4859990000000 1.0
C      1  0.5578690000000  0.4867070000000  0.4855090000000 1.0
C      1  0.5496490000000  0.4797060000000  0.5177560000000 1.0
C      1  0.5519560000000  0.5136320000000  0.5176760000000 1.0
C      1  0.4514650000000  0.5224400000000  0.5143200000000 1.0
C      1  0.4465510000000  0.4884400000000  0.5196040000000 1.0
C      1  0.4445490000000  0.4815770000000  0.4863510000000 1.0
C      1  0.4533870000000  0.5141580000000  0.4822430000000 1.0
C      1  0.5832630000000  0.4481680000000  0.5254170000000 1.0
C      1  0.5767350000000  0.5287520000000  0.5582980000000 1.0
C      1  0.5757560000000  0.5633500000000  0.4710630000000 1.0
C      1  0.5889630000000  0.4715210000000  0.4512820000000 1.0
C      1  0.4103150000000  0.4443070000000  0.4790560000000 1.0
C      1  0.4135130000000  0.5243100000000  0.4590190000000 1.0
C      1  0.4243900000000  0.5576970000000  0.5340470000000 1.0
C      1  0.4189300000000  0.4775440000000  0.5559120000000 1.0
C      1  0.4698380000000  0.5361670000000  0.4054690000000 1.0
C      1  0.4608630000000  0.4060780000000  0.4541720000000 1.0
C      1  0.4679640000000  0.4581180000000  0.5881880000000 1.0
C      1  0.4627050000000  0.5848120000000  0.5358080000000 1.0
C      1  0.5329490000000  0.5479850000000  0.5906710000000 1.0
C      1  0.5342680000000  0.4044030000000  0.5389130000000 1.0
C      1  0.5363700000000  0.4631270000000  0.4076010000000 1.0
C      1  0.5385540000000  0.5889860000000  0.4592020000000 1.0
C      1  0.4524900000000  0.4444780000000  0.6057400000000 1.0
C      1  0.4353760000000  0.5815580000000  0.5442900000000 1.0
C      1  0.4450010000000  0.5550830000000  0.4075180000000 1.0
C      1  0.4349900000000  0.4058760000000  0.4362890000000 1.0
C      1  0.5566070000000  0.4399630000000  0.4136730000000 1.0
C      1  0.5667770000000  0.5881770000000  0.4609800000000 1.0
C      1  0.5554340000000  0.5549420000000  0.6045360000000 1.0
C      1  0.5512720000000  0.3868910000000  0.5509280000000 1.0
C      1  0.5902830000000  0.4965140000000  0.4823330000000 1.0
C      1  0.5931870000000  0.4725360000000  0.5051420000000 1.0
C      1  0.5834010000000  0.5007070000000  0.5214720000000 1.0
C      1  0.5898400000000  0.5260070000000  0.4996900000000 1.0
C      1  0.4172530000000  0.5021670000000  0.5244350000000 1.0
C      1  0.4128250000000  0.4766240000000  0.5024330000000 1.0
C      1  0.4062660000000  0.5050690000000  0.4860980000000 1.0
C      1  0.4188210000000  0.5287220000000  0.5071600000000 1.0
C      1  0.4520640000000  0.4146830000000  0.5211130000000 1.0
C      1  0.4554740000000  0.5200650000000  0.5926950000000 1.0
C      1  0.4553380000000  0.5924360000000  0.4734360000000 1.0
C      1  0.4528030000000  0.4811560000000  0.4123190000000 1.0
C      1  0.5461680000000  0.4041950000000  0.4707830000000 1.0
C      1  0.5510000000000  0.5226360000000  0.4142410000000 1.0
C      1  0.5485930000000  0.5930300000000  0.5215670000000 1.0
C      1  0.5484330000000  0.4794170000000  0.5917780000000 1.0
C      1  0.5018990000000  0.5011430000000  0.4402780000000 1.0
C      1  0.5017160000000  0.5778460000000  0.4976080000000 1.0
C      1  0.5029920000000  0.4275660000000  0.4978700000000 1.0
C      1  0.5000660000000  0.5049080000000  0.5650340000000 1.0
END
