TITL C-2622962-9663-300 0.00236763167262478 125000 -802.625307031689 0 0 148 (C1) n - 1
REM
REM in /nfs/bkarasulu/CARBON/AIRSS/Generating-Clusters/AIREBO/with-SteepDescent/Higher-Symm/SD-CG/HFTN-CG
REM
REM
REM
REM
REM
REM ./C.cell (b20cbc046b6831c77cfcea5457e17084)
REM
REM compiler GCC version 9.2.1 20190827 (Red Hat 9.2.1-1)
REM options -cpp -mtune=generic -march=x86-64 -g -O0 -fpre-include=/usr/include/finclude/math-vector-fortran.h
REM seed 978380311 -1832542040 977374689 861615097 2482636 1911825573 -999371396 -1221227930 -956905545 1098743849 1792635600 951489524 -1522215699 103493245 -737447119 2047708515 -1576553352 -1063025970 532756438 172472487 1476773701 1531983699 512875682 1710069392 -1578408407 -1450346359 72669146 -1926753935 -584060607 7201415 2086869633 654869023 1489195505
REM
CELL 1.54180   50.00000   50.00000   50.00000   90.00000   90.00000   90.00000
LATT -1
SFAC C  
C      1  0.5291210000000  0.4881760000000  0.5184220000000 1.0
C      1  0.5366490000000  0.4948330000000  0.4768520000000 1.0
C      1  0.5299520000000  0.5318490000000  0.5093720000000 1.0
C      1  0.4930720000000  0.4816230000000  0.5668250000000 1.0
C      1  0.5058840000000  0.4394170000000  0.4685340000000 1.0
C      1  0.5043360000000  0.5606910000000  0.4894710000000 1.0
C      1  0.4377660000000  0.4212480000000  0.5210960000000 1.0
C      1  0.4594000000000  0.5211300000000  0.4195610000000 1.0
C      1  0.4375760000000  0.5619730000000  0.5537870000000 1.0
C      1  0.5120110000000  0.4867820000000  0.4465260000000 1.0
C      1  0.5143300000000  0.5571800000000  0.5372900000000 1.0
C      1  0.5180630000000  0.4507730000000  0.5263090000000 1.0
C      1  0.5518540000000  0.5207010000000  0.4293250000000 1.0
C      1  0.5435800000000  0.5450810000000  0.5473170000000 1.0
C      1  0.5539240000000  0.4291550000000  0.5172160000000 1.0
C      1  0.5449620000000  0.4541610000000  0.4699250000000 1.0
C      1  0.5572860000000  0.5433210000000  0.4702440000000 1.0
C      1  0.5509260000000  0.4958280000000  0.5571430000000 1.0
C      1  0.3923210000000  0.5139210000000  0.4803720000000 1.0
C      1  0.3996910000000  0.5233360000000  0.5296090000000 1.0
C      1  0.3953360000000  0.4689090000000  0.5085480000000 1.0
C      1  0.4698420000000  0.4596810000000  0.5611730000000 1.0
C      1  0.4674740000000  0.4571000000000  0.4377320000000 1.0
C      1  0.4788520000000  0.5822560000000  0.4959400000000 1.0
C      1  0.4980010000000  0.4929160000000  0.5967090000000 1.0
C      1  0.5040290000000  0.4212260000000  0.4442420000000 1.0
C      1  0.5106010000000  0.5788300000000  0.4545500000000 1.0
C      1  0.4654060000000  0.4054830000000  0.5084320000000 1.0
C      1  0.4807690000000  0.5466330000000  0.4162820000000 1.0
C      1  0.4625740000000  0.5612390000000  0.5702250000000 1.0
C      1  0.5625800000000  0.5659610000000  0.5176010000000 1.0
C      1  0.5674410000000  0.4563850000000  0.5434740000000 1.0
C      1  0.5675530000000  0.4842610000000  0.4339160000000 1.0
C      1  0.5584220000000  0.4282300000000  0.4844440000000 1.0
C      1  0.5570250000000  0.5580870000000  0.4422080000000 1.0
C      1  0.5687160000000  0.5224390000000  0.5686100000000 1.0
C      1  0.6105780000000  0.5171770000000  0.5202730000000 1.0
C      1  0.6035580000000  0.4884740000000  0.5033630000000 1.0
C      1  0.6029220000000  0.5001300000000  0.4708590000000 1.0
C      1  0.5212170000000  0.5984840000000  0.5065750000000 1.0
C      1  0.5217300000000  0.4552300000000  0.5758910000000 1.0
C      1  0.5234360000000  0.4574890000000  0.4199960000000 1.0
C      1  0.5017810000000  0.6007970000000  0.4789910000000 1.0
C      1  0.5214530000000  0.4744480000000  0.5985930000000 1.0
C      1  0.5232530000000  0.4279120000000  0.4241320000000 1.0
C      1  0.5001000000000  0.5132390000000  0.5558510000000 1.0
C      1  0.5205030000000  0.4371250000000  0.4965950000000 1.0
C      1  0.5248060000000  0.5176530000000  0.4449130000000 1.0
C      1  0.5695490000000  0.5175380000000  0.4840500000000 1.0
C      1  0.5706340000000  0.4946580000000  0.5324990000000 1.0
C      1  0.5696310000000  0.4665590000000  0.4879930000000 1.0
C      1  0.5295940000000  0.5249190000000  0.4767640000000 1.0
C      1  0.5296200000000  0.5152030000000  0.5390450000000 1.0
C      1  0.5240840000000  0.4698590000000  0.4917110000000 1.0
C      1  0.3939060000000  0.5327140000000  0.5022240000000 1.0
C      1  0.4023370000000  0.4893460000000  0.5312940000000 1.0
C      1  0.3962870000000  0.4823150000000  0.4814610000000 1.0
C      1  0.4098750000000  0.4632930000000  0.4567600000000 1.0
C      1  0.4017760000000  0.5616930000000  0.4906970000000 1.0
C      1  0.4170610000000  0.4707410000000  0.5530590000000 1.0
C      1  0.4610720000000  0.5194190000000  0.4859050000000 1.0
C      1  0.4503090000000  0.4756520000000  0.5185660000000 1.0
C      1  0.4590310000000  0.4848040000000  0.4650990000000 1.0
C      1  0.5079210000000  0.4769600000000  0.4080160000000 1.0
C      1  0.5166520000000  0.6121790000000  0.5329200000000 1.0
C      1  0.5059430000000  0.4338510000000  0.5681320000000 1.0
C      1  0.5341400000000  0.5881840000000  0.4772540000000 1.0
C      1  0.5519810000000  0.4690650000000  0.5983690000000 1.0
C      1  0.5537180000000  0.4315310000000  0.4187090000000 1.0
C      1  0.4450230000000  0.4725690000000  0.5488120000000 1.0
C      1  0.4367970000000  0.4632430000000  0.4510660000000 1.0
C      1  0.4329330000000  0.5688790000000  0.4789790000000 1.0
C      1  0.4394270000000  0.5723700000000  0.5273890000000 1.0
C      1  0.4335750000000  0.4257940000000  0.5510520000000 1.0
C      1  0.4418540000000  0.4991600000000  0.4218220000000 1.0
C      1  0.5942580000000  0.4620650000000  0.5233010000000 1.0
C      1  0.5917800000000  0.5060680000000  0.4436490000000 1.0
C      1  0.5877710000000  0.5430520000000  0.5184780000000 1.0
C      1  0.4322240000000  0.4659790000000  0.4936580000000 1.0
C      1  0.4361790000000  0.5313780000000  0.4660630000000 1.0
C      1  0.4407120000000  0.5165260000000  0.5475590000000 1.0
C      1  0.4530950000000  0.4414260000000  0.4985450000000 1.0
C      1  0.4624820000000  0.5361810000000  0.4496610000000 1.0
C      1  0.4679760000000  0.5246740000000  0.5549830000000 1.0
C      1  0.4068230000000  0.5225240000000  0.4578230000000 1.0
C      1  0.4206230000000  0.5372260000000  0.5504550000000 1.0
C      1  0.4142060000000  0.4413980000000  0.5070950000000 1.0
C      1  0.4563620000000  0.4307580000000  0.5672440000000 1.0
C      1  0.4489600000000  0.4722150000000  0.4135310000000 1.0
C      1  0.4539340000000  0.5934800000000  0.5161670000000 1.0
C      1  0.5669890000000  0.4717300000000  0.5749630000000 1.0
C      1  0.5718980000000  0.4521790000000  0.4234990000000 1.0
C      1  0.5590140000000  0.5709800000000  0.4840630000000 1.0
C      1  0.5217490000000  0.5005480000000  0.3996560000000 1.0
C      1  0.5201840000000  0.5932970000000  0.5530340000000 1.0
C      1  0.5188000000000  0.4159260000000  0.5469100000000 1.0
C      1  0.4696150000000  0.5344450000000  0.5854850000000 1.0
C      1  0.4654510000000  0.4198380000000  0.4775680000000 1.0
C      1  0.4812750000000  0.5636150000000  0.4461760000000 1.0
C      1  0.5565320000000  0.4714350000000  0.5149870000000 1.0
C      1  0.5645790000000  0.4895210000000  0.4673930000000 1.0
C      1  0.5561600000000  0.5141560000000  0.5118180000000 1.0
C      1  0.4784440000000  0.5076140000000  0.4519150000000 1.0
C      1  0.4822140000000  0.5377980000000  0.5300200000000 1.0
C      1  0.4764430000000  0.4577770000000  0.5127520000000 1.0
C      1  0.5164630000000  0.3921330000000  0.5136760000000 1.0
C      1  0.5184660000000  0.5421100000000  0.4253090000000 1.0
C      1  0.5048560000000  0.5564840000000  0.5817120000000 1.0
C      1  0.5842220000000  0.4344040000000  0.5062510000000 1.0
C      1  0.5782500000000  0.5325400000000  0.4380080000000 1.0
C      1  0.5755030000000  0.5438470000000  0.5489080000000 1.0
C      1  0.4729410000000  0.4258750000000  0.4508140000000 1.0
C      1  0.4591140000000  0.5742000000000  0.4697870000000 1.0
C      1  0.4804790000000  0.5144520000000  0.6029530000000 1.0
C      1  0.4321410000000  0.5008890000000  0.5237780000000 1.0
C      1  0.4278630000000  0.4935010000000  0.4755640000000 1.0
C      1  0.4312140000000  0.5191550000000  0.4976560000000 1.0
C      1  0.5092760000000  0.5317750000000  0.5814570000000 1.0
C      1  0.5343550000000  0.4094240000000  0.5004800000000 1.0
C      1  0.5309000000000  0.5651530000000  0.4342070000000 1.0
C      1  0.4516130000000  0.6202900000000  0.5208800000000 1.0
C      1  0.4604300000000  0.4179510000000  0.5912360000000 1.0
C      1  0.4461620000000  0.4609980000000  0.3888080000000 1.0
C      1  0.5503840000000  0.4271470000000  0.5469300000000 1.0
C      1  0.5501910000000  0.4998190000000  0.4090280000000 1.0
C      1  0.5462350000000  0.5787930000000  0.5452020000000 1.0
C      1  0.4815830000000  0.5410190000000  0.4983370000000 1.0
C      1  0.5014240000000  0.4788990000000  0.5357070000000 1.0
C      1  0.4886950000000  0.4669770000000  0.4624240000000 1.0
C      1  0.5357080000000  0.4660450000000  0.5509750000000 1.0
C      1  0.5390640000000  0.4689950000000  0.4444770000000 1.0
C      1  0.5294450000000  0.5656570000000  0.5099320000000 1.0
C      1  0.4852810000000  0.5704660000000  0.5271930000000 1.0
C      1  0.4886380000000  0.4411000000000  0.5397670000000 1.0
C      1  0.4840790000000  0.4848740000000  0.4272300000000 1.0
C      1  0.5029900000000  0.5226060000000  0.4069880000000 1.0
C      1  0.4910200000000  0.5769620000000  0.5600770000000 1.0
C      1  0.4915640000000  0.4096280000000  0.5272220000000 1.0
C      1  0.4983680000000  0.5236820000000  0.4742960000000 1.0
C      1  0.4937940000000  0.5078450000000  0.5228740000000 1.0
C      1  0.4921730000000  0.4736860000000  0.4928820000000 1.0
C      1  0.5996850000000  0.5262730000000  0.4914010000000 1.0
C      1  0.5973450000000  0.5003900000000  0.5408970000000 1.0
C      1  0.6023030000000  0.4573190000000  0.4898050000000 1.0
C      1  0.4234140000000  0.5014500000000  0.4428000000000 1.0
C      1  0.4287270000000  0.5517300000000  0.5070940000000 1.0
C      1  0.4111660000000  0.4430720000000  0.5573000000000 1.0
C      1  0.4858910000000  0.5016060000000  0.4957020000000 1.0
END
