TITL C-2622962-9663-484 0.000207774951408996 125000 -911.526224667059 0 0 167 (C1) n - 1
REM
REM in /nfs/bkarasulu/CARBON/AIRSS/Generating-Clusters/AIREBO/with-SteepDescent/Higher-Symm/SD-CG/HFTN-CG
REM
REM
REM
REM
REM
REM ./C.cell (b20cbc046b6831c77cfcea5457e17084)
REM
REM compiler GCC version 9.2.1 20190827 (Red Hat 9.2.1-1)
REM options -cpp -mtune=generic -march=x86-64 -g -O0 -fpre-include=/usr/include/finclude/math-vector-fortran.h
REM seed -1182767618 500480555 -265780705 -1758565615 1683607040 1640706855 -328902199 2090621495 -974992159 746798952 1442977389 1975679087 -587582736 295714576 -992575288 1181194412 889235218 -1519397277 1101578836 1289504383 -849773715 2142464029 -1330822148 -807615803 1304388345 432906789 -2086296925 390915097 -1501823964 -219510607 573611663 1452268595 -1875197555
REM
CELL 1.54180   50.00000   50.00000   50.00000   90.00000   90.00000   90.00000
LATT -1
SFAC C  
C      1  0.4855880000000  0.5240740000000  0.5949670000000 1.0
C      1  0.5279260000000  0.5003930000000  0.5955030000000 1.0
C      1  0.4858130000000  0.4746950000000  0.5949600000000 1.0
C      1  0.4866810000000  0.5178440000000  0.4090980000000 1.0
C      1  0.5382880000000  0.5039520000000  0.4071000000000 1.0
C      1  0.4812650000000  0.4634530000000  0.4044570000000 1.0
C      1  0.5112070000000  0.4002760000000  0.4314930000000 1.0
C      1  0.4017440000000  0.5469460000000  0.4324690000000 1.0
C      1  0.5894400000000  0.5572270000000  0.4320120000000 1.0
C      1  0.5102800000000  0.4003830000000  0.5466080000000 1.0
C      1  0.4091710000000  0.5410720000000  0.5475460000000 1.0
C      1  0.5811580000000  0.5577400000000  0.5473510000000 1.0
C      1  0.5322810000000  0.5338940000000  0.4151340000000 1.0
C      1  0.5121930000000  0.4589040000000  0.4078050000000 1.0
C      1  0.4574700000000  0.5074500000000  0.4147400000000 1.0
C      1  0.5308570000000  0.5322040000000  0.5918510000000 1.0
C      1  0.5119020000000  0.4561660000000  0.5921490000000 1.0
C      1  0.4563690000000  0.5107920000000  0.5915870000000 1.0
C      1  0.5831060000000  0.5659270000000  0.4572090000000 1.0
C      1  0.5183040000000  0.3970860000000  0.4575850000000 1.0
C      1  0.3979730000000  0.5378920000000  0.4580610000000 1.0
C      1  0.5864360000000  0.5664400000000  0.5214470000000 1.0
C      1  0.5160160000000  0.3933870000000  0.5202450000000 1.0
C      1  0.3986120000000  0.5409490000000  0.5217790000000 1.0
C      1  0.4026060000000  0.4204970000000  0.5104640000000 1.0
C      1  0.4807940000000  0.6232870000000  0.5098630000000 1.0
C      1  0.6271830000000  0.4497680000000  0.4990220000000 1.0
C      1  0.4027530000000  0.4311580000000  0.4611460000000 1.0
C      1  0.4886330000000  0.6175850000000  0.4604770000000 1.0
C      1  0.6027810000000  0.4726680000000  0.4574090000000 1.0
C      1  0.5277060000000  0.4906140000000  0.4858670000000 1.0
C      1  0.4769930000000  0.4800180000000  0.4859220000000 1.0
C      1  0.4921850000000  0.5298990000000  0.4869400000000 1.0
C      1  0.5285460000000  0.4931450000000  0.5183530000000 1.0
C      1  0.4795550000000  0.4774240000000  0.5178720000000 1.0
C      1  0.4907680000000  0.5289940000000  0.5183630000000 1.0
C      1  0.5557280000000  0.4794100000000  0.4789440000000 1.0
C      1  0.4509000000000  0.4605340000000  0.4761050000000 1.0
C      1  0.4891580000000  0.5618740000000  0.4757430000000 1.0
C      1  0.5584660000000  0.4856160000000  0.5284240000000 1.0
C      1  0.4574630000000  0.4554170000000  0.5273630000000 1.0
C      1  0.4830210000000  0.5593520000000  0.5273200000000 1.0
C      1  0.4879260000000  0.4411970000000  0.5641560000000 1.0
C      1  0.4560230000000  0.5395480000000  0.5641100000000 1.0
C      1  0.5560010000000  0.5184300000000  0.5643290000000 1.0
C      1  0.4831310000000  0.4402070000000  0.4402480000000 1.0
C      1  0.4567930000000  0.5453860000000  0.4382040000000 1.0
C      1  0.5608590000000  0.5102600000000  0.4395110000000 1.0
C      1  0.5289970000000  0.5800820000000  0.4316470000000 1.0
C      1  0.5575080000000  0.4334740000000  0.4296340000000 1.0
C      1  0.4131370000000  0.4811500000000  0.4325470000000 1.0
C      1  0.5163210000000  0.5932350000000  0.5754220000000 1.0
C      1  0.5724040000000  0.4394860000000  0.5786900000000 1.0
C      1  0.4111930000000  0.4670540000000  0.5752220000000 1.0
C      1  0.4486910000000  0.4282040000000  0.4864010000000 1.0
C      1  0.4630610000000  0.5797470000000  0.4868650000000 1.0
C      1  0.5852880000000  0.4899210000000  0.4889140000000 1.0
C      1  0.4564670000000  0.4269440000000  0.5162860000000 1.0
C      1  0.4580890000000  0.5743070000000  0.5167290000000 1.0
C      1  0.5844500000000  0.4987080000000  0.5180040000000 1.0
C      1  0.4269140000000  0.5035200000000  0.4478650000000 1.0
C      1  0.5399880000000  0.5575960000000  0.4486040000000 1.0
C      1  0.5317510000000  0.4321440000000  0.4441150000000 1.0
C      1  0.4149740000000  0.4937330000000  0.5638910000000 1.0
C      1  0.5371770000000  0.5766570000000  0.5635500000000 1.0
C      1  0.5476480000000  0.4291430000000  0.5671690000000 1.0
C      1  0.5241640000000  0.4455640000000  0.5229590000000 1.0
C      1  0.4425910000000  0.5085040000000  0.5197640000000 1.0
C      1  0.5355920000000  0.5449720000000  0.5197440000000 1.0
C      1  0.5211720000000  0.4344210000000  0.4958400000000 1.0
C      1  0.4394030000000  0.5175130000000  0.4908670000000 1.0
C      1  0.5442650000000  0.5425980000000  0.4906670000000 1.0
C      1  0.5226840000000  0.5208530000000  0.4758990000000 1.0
C      1  0.5040430000000  0.4724980000000  0.4722250000000 1.0
C      1  0.4693550000000  0.5105120000000  0.4763650000000 1.0
C      1  0.5190970000000  0.5205330000000  0.5298990000000 1.0
C      1  0.5084630000000  0.4719140000000  0.5294480000000 1.0
C      1  0.4721380000000  0.5064220000000  0.5297140000000 1.0
C      1  0.4847560000000  0.4105870000000  0.5575880000000 1.0
C      1  0.4310210000000  0.5576030000000  0.5585080000000 1.0
C      1  0.5842740000000  0.5308440000000  0.5591060000000 1.0
C      1  0.4858560000000  0.4117310000000  0.4261060000000 1.0
C      1  0.4274640000000  0.5576940000000  0.4263680000000 1.0
C      1  0.5858660000000  0.5293810000000  0.4266500000000 1.0
C      1  0.5381430000000  0.4730750000000  0.5875630000000 1.0
C      1  0.4572280000000  0.4796340000000  0.5867680000000 1.0
C      1  0.5034460000000  0.5470340000000  0.5868390000000 1.0
C      1  0.5360640000000  0.4767440000000  0.4184710000000 1.0
C      1  0.4588910000000  0.4764000000000  0.4186820000000 1.0
C      1  0.5011860000000  0.5420550000000  0.4206310000000 1.0
C      1  0.4324300000000  0.5186030000000  0.5502550000000 1.0
C      1  0.5500550000000  0.5491920000000  0.5499830000000 1.0
C      1  0.5184860000000  0.4310460000000  0.5518700000000 1.0
C      1  0.4370190000000  0.5307080000000  0.4596450000000 1.0
C      1  0.5583160000000  0.5349840000000  0.4606560000000 1.0
C      1  0.5063620000000  0.4392260000000  0.4656090000000 1.0
C      1  0.5593990000000  0.5712710000000  0.4804090000000 1.0
C      1  0.5375650000000  0.4103750000000  0.4792250000000 1.0
C      1  0.4070690000000  0.5146750000000  0.4807160000000 1.0
C      1  0.5657510000000  0.5814970000000  0.5099210000000 1.0
C      1  0.5404300000000  0.4024510000000  0.5101650000000 1.0
C      1  0.3954770000000  0.5154650000000  0.5105340000000 1.0
C      1  0.5059240000000  0.4687080000000  0.5611060000000 1.0
C      1  0.4707000000000  0.5103120000000  0.5607470000000 1.0
C      1  0.5233640000000  0.5197810000000  0.5610900000000 1.0
C      1  0.5014440000000  0.4688080000000  0.4385160000000 1.0
C      1  0.4708160000000  0.5153160000000  0.4450230000000 1.0
C      1  0.5275930000000  0.5159440000000  0.4436420000000 1.0
C      1  0.4692350000000  0.3957550000000  0.5139590000000 1.0
C      1  0.4246070000000  0.5801620000000  0.5158870000000 1.0
C      1  0.6070680000000  0.5240620000000  0.5167100000000 1.0
C      1  0.4652770000000  0.4099520000000  0.4688870000000 1.0
C      1  0.4391450000000  0.5750580000000  0.4695860000000 1.0
C      1  0.5940310000000  0.5123090000000  0.4706790000000 1.0
C      1  0.6001250000000  0.5133130000000  0.5444920000000 1.0
C      1  0.4622160000000  0.4055070000000  0.5421680000000 1.0
C      1  0.4377600000000  0.5800010000000  0.5435190000000 1.0
C      1  0.6005300000000  0.5105550000000  0.4445150000000 1.0
C      1  0.4626900000000  0.4032360000000  0.4425820000000 1.0
C      1  0.4368710000000  0.5804360000000  0.4431620000000 1.0
C      1  0.4375840000000  0.5149820000000  0.3931750000000 1.0
C      1  0.5445730000000  0.5531160000000  0.3948170000000 1.0
C      1  0.5222890000000  0.4400400000000  0.3863020000000 1.0
C      1  0.4360430000000  0.5208160000000  0.6112660000000 1.0
C      1  0.5497020000000  0.5450940000000  0.6113290000000 1.0
C      1  0.5131030000000  0.4341010000000  0.6124910000000 1.0
C      1  0.5635050000000  0.4887900000000  0.5612410000000 1.0
C      1  0.4589800000000  0.4503670000000  0.5598590000000 1.0
C      1  0.4777380000000  0.5606680000000  0.5597160000000 1.0
C      1  0.5669270000000  0.4803010000000  0.4468470000000 1.0
C      1  0.4540860000000  0.4470320000000  0.4450550000000 1.0
C      1  0.4783220000000  0.5653010000000  0.4436860000000 1.0
C      1  0.4226280000000  0.4667100000000  0.4940700000000 1.0
C      1  0.5098840000000  0.5824860000000  0.4933380000000 1.0
C      1  0.5706180000000  0.4532240000000  0.4947300000000 1.0
C      1  0.4301640000000  0.4772270000000  0.5246380000000 1.0
C      1  0.5146990000000  0.5713890000000  0.5244560000000 1.0
C      1  0.5574680000000  0.4517070000000  0.5260620000000 1.0
C      1  0.4303740000000  0.4596980000000  0.4240320000000 1.0
C      1  0.5024590000000  0.5756050000000  0.4220250000000 1.0
C      1  0.5639200000000  0.4589670000000  0.4205400000000 1.0
C      1  0.4348750000000  0.4550830000000  0.5836460000000 1.0
C      1  0.4940190000000  0.5788460000000  0.5836540000000 1.0
C      1  0.5706050000000  0.4662720000000  0.5859770000000 1.0
C      1  0.4446480000000  0.4808450000000  0.5551930000000 1.0
C      1  0.5112730000000  0.5571640000000  0.5553280000000 1.0
C      1  0.5446860000000  0.4608710000000  0.5564980000000 1.0
C      1  0.4487260000000  0.4827990000000  0.4504990000000 1.0
C      1  0.5108210000000  0.5509510000000  0.4520030000000 1.0
C      1  0.5375700000000  0.4632430000000  0.4495020000000 1.0
C      1  0.5437150000000  0.5891180000000  0.5248920000000 1.0
C      1  0.5581230000000  0.4177320000000  0.5247690000000 1.0
C      1  0.3999570000000  0.4928000000000  0.5257700000000 1.0
C      1  0.5355110000000  0.5930340000000  0.4846820000000 1.0
C      1  0.5659530000000  0.4264350000000  0.4835850000000 1.0
C      1  0.4002380000000  0.4833440000000  0.4858660000000 1.0
C      1  0.5860960000000  0.5416470000000  0.4791290000000 1.0
C      1  0.4950940000000  0.4092090000000  0.4769760000000 1.0
C      1  0.4191970000000  0.5526010000000  0.4786490000000 1.0
C      1  0.5982150000000  0.5471650000000  0.5049880000000 1.0
C      1  0.4942710000000  0.3945910000000  0.5029140000000 1.0
C      1  0.4091330000000  0.5604730000000  0.5048760000000 1.0
C      1  0.4852660000000  0.6031430000000  0.4872420000000 1.0
C      1  0.4171280000000  0.4350100000000  0.4878380000000 1.0
C      1  0.6026830000000  0.4622260000000  0.4878310000000 1.0
C      1  0.4997690000000  0.4993280000000  0.5745600000000 1.0
C      1  0.5003500000000  0.5013670000000  0.4348200000000 1.0
END
