TITL C-2622961-1971-503 -9.02230431014978e-05 125000 -1098.09560093254 0 0 200 (C1) n - 1
REM
REM in /nfs/bkarasulu/CARBON/AIRSS/Generating-Clusters/AIREBO/with-SteepDescent/Higher-Symm/SD-CG/HFTN-CG
REM
REM
REM
REM
REM
REM ./C.cell (b20cbc046b6831c77cfcea5457e17084)
REM
REM compiler GCC version 9.2.1 20190827 (Red Hat 9.2.1-1)
REM options -cpp -mtune=generic -march=x86-64 -g -O0 -fpre-include=/usr/include/finclude/math-vector-fortran.h
REM seed 1724256179 -1470966826 1958130356 -1038909660 1952018970 -1431497123 428200534 -944937045 1097394367 -594463238 -442363547 1066297304 -1047337748 1284924565 597647675 305234104 -452055170 1564793276 253308750 -1893383623 -1911231249 -1155174389 892488823 -1233835899 1858407605 546366595 831711242 1159462164 780782370 1432501644 1277274798 -1432516521 -887123838
REM
CELL 1.54180   50.00000   50.00000   50.00000   90.00000   90.00000   90.00000
LATT -1
SFAC C  
C      1  0.4399060000000  0.5199220000000  0.5645450000000 1.0
C      1  0.4947950000000  0.4778840000000  0.5797060000000 1.0
C      1  0.5490690000000  0.5324590000000  0.5753840000000 1.0
C      1  0.5887330000000  0.4735420000000  0.5329080000000 1.0
C      1  0.5857310000000  0.5231070000000  0.4826130000000 1.0
C      1  0.5681680000000  0.4682500000000  0.4301440000000 1.0
C      1  0.5054410000000  0.5211540000000  0.4222510000000 1.0
C      1  0.4491920000000  0.4718240000000  0.4184670000000 1.0
C      1  0.4072280000000  0.5272980000000  0.4637630000000 1.0
C      1  0.4178410000000  0.4768430000000  0.5158160000000 1.0
C      1  0.4659490000000  0.5091810000000  0.5200400000000 1.0
C      1  0.4943830000000  0.4988850000000  0.5250000000000 1.0
C      1  0.5035030000000  0.5247400000000  0.5230520000000 1.0
C      1  0.5336870000000  0.4961950000000  0.5211680000000 1.0
C      1  0.5480440000000  0.5131970000000  0.4954580000000 1.0
C      1  0.5358980000000  0.4838750000000  0.4832610000000 1.0
C      1  0.5148120000000  0.5050930000000  0.4750880000000 1.0
C      1  0.4918440000000  0.4881990000000  0.4686720000000 1.0
C      1  0.4647990000000  0.5052380000000  0.4789790000000 1.0
C      1  0.4536220000000  0.4876630000000  0.5023990000000 1.0
C      1  0.5978690000000  0.4577980000000  0.4263840000000 1.0
C      1  0.5347820000000  0.5301240000000  0.4075590000000 1.0
C      1  0.4672510000000  0.4676060000000  0.3909830000000 1.0
C      1  0.4077220000000  0.5396560000000  0.4320920000000 1.0
C      1  0.3927260000000  0.4660260000000  0.4980280000000 1.0
C      1  0.4130620000000  0.5400780000000  0.5699830000000 1.0
C      1  0.4705520000000  0.4680260000000  0.6014450000000 1.0
C      1  0.5343140000000  0.5347600000000  0.6059310000000 1.0
C      1  0.5887110000000  0.4647470000000  0.5657510000000 1.0
C      1  0.6154290000000  0.5359770000000  0.4930400000000 1.0
C      1  0.4569850000000  0.5995780000000  0.4657180000000 1.0
C      1  0.4498690000000  0.4015600000000  0.5000880000000 1.0
C      1  0.4549340000000  0.5959210000000  0.5271420000000 1.0
C      1  0.4785520000000  0.4044200000000  0.5499530000000 1.0
C      1  0.5142080000000  0.5990170000000  0.5458370000000 1.0
C      1  0.5371380000000  0.4051930000000  0.5297820000000 1.0
C      1  0.5523960000000  0.5939470000000  0.4989780000000 1.0
C      1  0.5437240000000  0.4034890000000  0.4730860000000 1.0
C      1  0.5117310000000  0.5975540000000  0.4560160000000 1.0
C      1  0.4841830000000  0.4046460000000  0.4535100000000 1.0
C      1  0.4547200000000  0.5443570000000  0.5821430000000 1.0
C      1  0.5110190000000  0.4532130000000  0.5965720000000 1.0
C      1  0.5725430000000  0.5540660000000  0.5728420000000 1.0
C      1  0.6002390000000  0.4488230000000  0.5130140000000 1.0
C      1  0.5863320000000  0.5498300000000  0.4615960000000 1.0
C      1  0.5472200000000  0.4514670000000  0.4138560000000 1.0
C      1  0.4885770000000  0.5480590000000  0.4104910000000 1.0
C      1  0.4282820000000  0.4503200000000  0.4278220000000 1.0
C      1  0.3984120000000  0.5496860000000  0.4852580000000 1.0
C      1  0.4129790000000  0.4540690000000  0.5403500000000 1.0
C      1  0.4610800000000  0.5378130000000  0.4104330000000 1.0
C      1  0.4034080000000  0.4621560000000  0.4382970000000 1.0
C      1  0.3877660000000  0.5380210000000  0.5084400000000 1.0
C      1  0.4123620000000  0.4636530000000  0.5665010000000 1.0
C      1  0.4727160000000  0.5338210000000  0.5999000000000 1.0
C      1  0.5369770000000  0.4645060000000  0.5942140000000 1.0
C      1  0.5968990000000  0.5421300000000  0.5590270000000 1.0
C      1  0.6114560000000  0.4595860000000  0.4891120000000 1.0
C      1  0.5870520000000  0.5369460000000  0.4333320000000 1.0
C      1  0.5272670000000  0.4648760000000  0.4007810000000 1.0
C      1  0.4483910000000  0.4751570000000  0.5306660000000 1.0
C      1  0.4711680000000  0.5178150000000  0.5513370000000 1.0
C      1  0.5184230000000  0.4684010000000  0.5571200000000 1.0
C      1  0.5488450000000  0.5268600000000  0.5418270000000 1.0
C      1  0.5671590000000  0.4800010000000  0.5074300000000 1.0
C      1  0.5576480000000  0.5181000000000  0.4641070000000 1.0
C      1  0.5287210000000  0.4768830000000  0.4507270000000 1.0
C      1  0.4797710000000  0.5178250000000  0.4443310000000 1.0
C      1  0.4465480000000  0.4719730000000  0.4663200000000 1.0
C      1  0.4370680000000  0.5216840000000  0.4897900000000 1.0
C      1  0.4651750000000  0.5375370000000  0.5022020000000 1.0
C      1  0.4791550000000  0.4624130000000  0.5197920000000 1.0
C      1  0.4811990000000  0.5438840000000  0.5319500000000 1.0
C      1  0.5121650000000  0.4699510000000  0.5233370000000 1.0
C      1  0.5306960000000  0.5347230000000  0.5141510000000 1.0
C      1  0.5389850000000  0.4611300000000  0.5043210000000 1.0
C      1  0.5174490000000  0.5354940000000  0.4828260000000 1.0
C      1  0.4999060000000  0.4590010000000  0.4532210000000 1.0
C      1  0.4848790000000  0.5312160000000  0.4751990000000 1.0
C      1  0.4734470000000  0.4674190000000  0.4866430000000 1.0
C      1  0.5569710000000  0.4919430000000  0.4506850000000 1.0
C      1  0.5098750000000  0.4879800000000  0.4283140000000 1.0
C      1  0.4619570000000  0.4910570000000  0.4427470000000 1.0
C      1  0.4273770000000  0.5000530000000  0.4666000000000 1.0
C      1  0.4168910000000  0.5111590000000  0.5138950000000 1.0
C      1  0.4465630000000  0.4871290000000  0.5584310000000 1.0
C      1  0.4916200000000  0.5107240000000  0.5714350000000 1.0
C      1  0.5333210000000  0.4977710000000  0.5501490000000 1.0
C      1  0.5711140000000  0.5026450000000  0.5331460000000 1.0
C      1  0.5849630000000  0.4891110000000  0.4841380000000 1.0
C      1  0.4927620000000  0.5639420000000  0.5539030000000 1.0
C      1  0.5153410000000  0.4347770000000  0.5530940000000 1.0
C      1  0.5479180000000  0.5609470000000  0.5388460000000 1.0
C      1  0.5549870000000  0.4385700000000  0.4893320000000 1.0
C      1  0.5314960000000  0.5615410000000  0.4698920000000 1.0
C      1  0.5138530000000  0.4293760000000  0.4440100000000 1.0
C      1  0.4768910000000  0.5684940000000  0.4500500000000 1.0
C      1  0.4503370000000  0.4387130000000  0.4723700000000 1.0
C      1  0.4437040000000  0.5609200000000  0.5116160000000 1.0
C      1  0.4628650000000  0.4391820000000  0.5385510000000 1.0
C      1  0.4826800000000  0.6108340000000  0.5399660000000 1.0
C      1  0.5122680000000  0.4005750000000  0.5524460000000 1.0
C      1  0.5383840000000  0.6105620000000  0.5248650000000 1.0
C      1  0.5572350000000  0.4018420000000  0.5042550000000 1.0
C      1  0.5432580000000  0.5976480000000  0.4673660000000 1.0
C      1  0.5171390000000  0.3962490000000  0.4530680000000 1.0
C      1  0.4856700000000  0.6113230000000  0.4516530000000 1.0
C      1  0.4626580000000  0.3889770000000  0.4712050000000 1.0
C      1  0.4413600000000  0.5968280000000  0.4958400000000 1.0
C      1  0.4592400000000  0.3886370000000  0.5276600000000 1.0
C      1  0.5247660000000  0.5075960000000  0.6122780000000 1.0
C      1  0.5857490000000  0.4925840000000  0.5741570000000 1.0
C      1  0.6210850000000  0.5083420000000  0.5014710000000 1.0
C      1  0.6140330000000  0.4801330000000  0.4223990000000 1.0
C      1  0.5491030000000  0.5072340000000  0.3983220000000 1.0
C      1  0.4753710000000  0.4961780000000  0.3874150000000 1.0
C      1  0.4117850000000  0.5114310000000  0.4225380000000 1.0
C      1  0.3784730000000  0.4902450000000  0.4937880000000 1.0
C      1  0.3911500000000  0.5226990000000  0.5743040000000 1.0
C      1  0.4503670000000  0.4907310000000  0.6066520000000 1.0
C      1  0.5136460000000  0.5845890000000  0.4873950000000 1.0
C      1  0.5013780000000  0.4252100000000  0.4744350000000 1.0
C      1  0.4819530000000  0.5821590000000  0.4784280000000 1.0
C      1  0.4735790000000  0.4230480000000  0.4885960000000 1.0
C      1  0.4737190000000  0.5762890000000  0.5071670000000 1.0
C      1  0.4817050000000  0.4207180000000  0.5202640000000 1.0
C      1  0.4992390000000  0.5783790000000  0.5241780000000 1.0
C      1  0.5120580000000  0.4258200000000  0.5218910000000 1.0
C      1  0.5312620000000  0.5731070000000  0.5142160000000 1.0
C      1  0.5254330000000  0.4234650000000  0.4936460000000 1.0
C      1  0.3827040000000  0.5038150000000  0.4690030000000 1.0
C      1  0.3807190000000  0.5048490000000  0.5489010000000 1.0
C      1  0.4290540000000  0.5015590000000  0.5910410000000 1.0
C      1  0.4988040000000  0.4963280000000  0.6080130000000 1.0
C      1  0.5630770000000  0.5031570000000  0.5857330000000 1.0
C      1  0.6125710000000  0.4977400000000  0.5261390000000 1.0
C      1  0.6213300000000  0.4968920000000  0.4483890000000 1.0
C      1  0.5716490000000  0.4958870000000  0.4106460000000 1.0
C      1  0.5018790000000  0.5044270000000  0.3928440000000 1.0
C      1  0.4326780000000  0.4998500000000  0.4084340000000 1.0
C      1  0.5816670000000  0.5767900000000  0.4957420000000 1.0
C      1  0.5627060000000  0.4184480000000  0.4512680000000 1.0
C      1  0.5226290000000  0.5761590000000  0.4337630000000 1.0
C      1  0.4711260000000  0.4212000000000  0.4287400000000 1.0
C      1  0.4312150000000  0.5797090000000  0.4602390000000 1.0
C      1  0.4254790000000  0.4217970000000  0.5031880000000 1.0
C      1  0.4428380000000  0.5776490000000  0.5498770000000 1.0
C      1  0.4779900000000  0.4213960000000  0.5794170000000 1.0
C      1  0.5258760000000  0.5799470000000  0.5695270000000 1.0
C      1  0.5643780000000  0.4208010000000  0.5386310000000 1.0
C      1  0.5408230000000  0.4293500000000  0.4300510000000 1.0
C      1  0.4929860000000  0.5703120000000  0.4270480000000 1.0
C      1  0.4433260000000  0.4304380000000  0.4428380000000 1.0
C      1  0.4204170000000  0.5705820000000  0.4904100000000 1.0
C      1  0.4319390000000  0.4331550000000  0.5335810000000 1.0
C      1  0.4628900000000  0.5662040000000  0.5661640000000 1.0
C      1  0.5052330000000  0.4293930000000  0.5822000000000 1.0
C      1  0.5581280000000  0.5793900000000  0.5647550000000 1.0
C      1  0.5787720000000  0.4277450000000  0.5088650000000 1.0
C      1  0.5632270000000  0.5706230000000  0.4684330000000 1.0
C      1  0.5453340000000  0.4895340000000  0.6034320000000 1.0
C      1  0.5976950000000  0.5112990000000  0.5524420000000 1.0
C      1  0.6181310000000  0.4891780000000  0.4769330000000 1.0
C      1  0.5971290000000  0.5091630000000  0.4276910000000 1.0
C      1  0.5275610000000  0.4902010000000  0.3891690000000 1.0
C      1  0.4544130000000  0.5143670000000  0.3968350000000 1.0
C      1  0.4025860000000  0.4926230000000  0.4445500000000 1.0
C      1  0.3833970000000  0.5081610000000  0.5189370000000 1.0
C      1  0.4037880000000  0.4919130000000  0.5703180000000 1.0
C      1  0.4732810000000  0.5090710000000  0.6126300000000 1.0
C      1  0.4700140000000  0.4629360000000  0.5618220000000 1.0
C      1  0.5205050000000  0.5468560000000  0.5638180000000 1.0
C      1  0.5611480000000  0.4540390000000  0.5368120000000 1.0
C      1  0.5790500000000  0.5466790000000  0.5055590000000 1.0
C      1  0.5597760000000  0.4512440000000  0.4583800000000 1.0
C      1  0.5203350000000  0.5430040000000  0.4436490000000 1.0
C      1  0.4740020000000  0.4544340000000  0.4339200000000 1.0
C      1  0.4353070000000  0.5462360000000  0.4607190000000 1.0
C      1  0.4366540000000  0.4534750000000  0.4997930000000 1.0
C      1  0.4402940000000  0.5360680000000  0.5346090000000 1.0
C      1  0.5750540000000  0.4355230000000  0.5673830000000 1.0
C      1  0.6130200000000  0.5636100000000  0.4934620000000 1.0
C      1  0.5925780000000  0.4335680000000  0.4451960000000 1.0
C      1  0.5431440000000  0.5585920000000  0.4153460000000 1.0
C      1  0.4781070000000  0.4367590000000  0.3992810000000 1.0
C      1  0.4139950000000  0.5666440000000  0.4338660000000 1.0
C      1  0.4023090000000  0.4401780000000  0.4858980000000 1.0
C      1  0.4181310000000  0.5642480000000  0.5520840000000 1.0
C      1  0.4611170000000  0.4394120000000  0.5927910000000 1.0
C      1  0.5202500000000  0.5639900000000  0.5990720000000 1.0
C      1  0.4993690000000  0.5394390000000  0.5879130000000 1.0
C      1  0.5493420000000  0.4582180000000  0.5670010000000 1.0
C      1  0.5767790000000  0.5446830000000  0.5341970000000 1.0
C      1  0.5906070000000  0.4610660000000  0.4655120000000 1.0
C      1  0.5540380000000  0.5392740000000  0.4411220000000 1.0
C      1  0.4997380000000  0.4596410000000  0.4124940000000 1.0
C      1  0.4599160000000  0.5436970000000  0.4439520000000 1.0
C      1  0.4158880000000  0.4572700000000  0.4651770000000 1.0
C      1  0.4085750000000  0.5398390000000  0.5304230000000 1.0
C      1  0.4400950000000  0.4592740000000  0.5775640000000 1.0
END
