TITL C-2622961-1971-590 -0.000758534220108608 125000 -302.930850299322 0 0 56 (C1) n - 1
REM
REM in /nfs/bkarasulu/CARBON/AIRSS/Generating-Clusters/AIREBO/with-SteepDescent/Higher-Symm/SD-CG/HFTN-CG
REM
REM
REM
REM
REM
REM ./C.cell (b20cbc046b6831c77cfcea5457e17084)
REM
REM compiler GCC version 9.2.1 20190827 (Red Hat 9.2.1-1)
REM options -cpp -mtune=generic -march=x86-64 -g -O0 -fpre-include=/usr/include/finclude/math-vector-fortran.h
REM seed -669532564 280786243 -100873938 451909948 1535822896 113123515 -1695709533 511957054 838072770 -436658945 213802001 1573365890 -1215797762 674292518 -404930075 550780386 1352035259 1847346640 -402867734 -936626491 1073881364 76259426 -250916190 -454889316 551765565 -2031800879 1164048972 -407316208 528182425 238184904 -241830063 939952113 -1914691532
REM
CELL 1.54180   50.00000   50.00000   50.00000   90.00000   90.00000   90.00000
LATT -1
SFAC C  
C      1  0.5233230000000  0.4738270000000  0.4274410000000 1.0
C      1  0.5226360000000  0.5713850000000  0.5107540000000 1.0
C      1  0.5254730000000  0.4539140000000  0.5608860000000 1.0
C      1  0.4478920000000  0.5066160000000  0.5261490000000 1.0
C      1  0.4559890000000  0.4636020000000  0.5035500000000 1.0
C      1  0.4568850000000  0.5260480000000  0.4788390000000 1.0
C      1  0.4764130000000  0.5294290000000  0.5595440000000 1.0
C      1  0.4753490000000  0.4365600000000  0.4983600000000 1.0
C      1  0.4808000000000  0.5395930000000  0.4394970000000 1.0
C      1  0.4861310000000  0.5055400000000  0.5712590000000 1.0
C      1  0.4852350000000  0.4343880000000  0.4687430000000 1.0
C      1  0.4929290000000  0.5603820000000  0.4547700000000 1.0
C      1  0.4974740000000  0.5456280000000  0.5504670000000 1.0
C      1  0.5001780000000  0.4331750000000  0.5149940000000 1.0
C      1  0.5008880000000  0.5229150000000  0.4290070000000 1.0
C      1  0.5078720000000  0.4894470000000  0.4697070000000 1.0
C      1  0.5097890000000  0.5248430000000  0.5035490000000 1.0
C      1  0.5069050000000  0.4803280000000  0.5208070000000 1.0
C      1  0.5033960000000  0.4515380000000  0.5385500000000 1.0
C      1  0.5010060000000  0.4942870000000  0.4367580000000 1.0
C      1  0.4994990000000  0.5517860000000  0.5214390000000 1.0
C      1  0.4334250000000  0.5273500000000  0.4352100000000 1.0
C      1  0.4284620000000  0.5418820000000  0.5573820000000 1.0
C      1  0.4223220000000  0.4185300000000  0.5059710000000 1.0
C      1  0.5061910000000  0.4881920000000  0.5539500000000 1.0
C      1  0.5008710000000  0.4585630000000  0.4567220000000 1.0
C      1  0.5045600000000  0.5508460000000  0.4819140000000 1.0
C      1  0.5281730000000  0.4560850000000  0.4856660000000 1.0
C      1  0.5337240000000  0.5340320000000  0.4605330000000 1.0
C      1  0.5346880000000  0.5157810000000  0.5507430000000 1.0
C      1  0.4486950000000  0.5329530000000  0.5096160000000 1.0
C      1  0.4567590000000  0.4776720000000  0.5310930000000 1.0
C      1  0.4554600000000  0.4846850000000  0.4649530000000 1.0
C      1  0.5669580000000  0.5439180000000  0.4802820000000 1.0
C      1  0.5660890000000  0.4910780000000  0.5513030000000 1.0
C      1  0.5639070000000  0.4611880000000  0.4686540000000 1.0
C      1  0.5644870000000  0.4737360000000  0.4910460000000 1.0
C      1  0.5670620000000  0.5187000000000  0.4760960000000 1.0
C      1  0.5666220000000  0.5043870000000  0.5296970000000 1.0
C      1  0.5227740000000  0.5379220000000  0.5609140000000 1.0
C      1  0.5225170000000  0.4336500000000  0.4993360000000 1.0
C      1  0.5262480000000  0.5344830000000  0.4345360000000 1.0
C      1  0.4425890000000  0.4334350000000  0.5032380000000 1.0
C      1  0.4560300000000  0.5314460000000  0.4500300000000 1.0
C      1  0.4502850000000  0.5276490000000  0.5491610000000 1.0
C      1  0.5347430000000  0.4585250000000  0.4534930000000 1.0
C      1  0.5378100000000  0.5572820000000  0.4850140000000 1.0
C      1  0.5373030000000  0.4846380000000  0.5641690000000 1.0
C      1  0.5343460000000  0.4855810000000  0.5014220000000 1.0
C      1  0.5372370000000  0.5041510000000  0.4730790000000 1.0
C      1  0.5375450000000  0.5150700000000  0.5180560000000 1.0
C      1  0.4763120000000  0.5460480000000  0.4987130000000 1.0
C      1  0.4784830000000  0.4705610000000  0.5469350000000 1.0
C      1  0.4758370000000  0.4784590000000  0.4484650000000 1.0
C      1  0.4947400000000  0.4978430000000  0.4968800000000 1.0
C      1  0.4608300000000  0.4968160000000  0.4962630000000 1.0
END
