TITL C-2622965-4321-423 -0.000349569039794586 125000 -396.8295841123 0 0 74 (C1) n - 1
REM
REM in /nfs/bkarasulu/CARBON/AIRSS/Generating-Clusters/AIREBO/with-SteepDescent/Higher-Symm/SD-CG/HFTN-CG
REM
REM
REM
REM
REM
REM ./C.cell (b20cbc046b6831c77cfcea5457e17084)
REM
REM compiler GCC version 9.2.1 20190827 (Red Hat 9.2.1-1)
REM options -cpp -mtune=generic -march=x86-64 -g -O0 -fpre-include=/usr/include/finclude/math-vector-fortran.h
REM seed 784985917 179959804 386992149 -393077274 -1073409366 1063854816 746907658 1132132821 919012447 -1016410922 -618793012 -1899093606 1750346120 1227507867 940458464 -353654261 305080911 -2943714 -1204223216 -1763987420 -1618087854 299395771 -965991586 761183214 -677641561 -1307260717 -1457011729 1923126286 1046027592 -1110741200 1405586636 -1191846281 1218737977
REM
CELL 1.54180   50.00000   50.00000   50.00000   90.00000   90.00000   90.00000
LATT -1
SFAC C  
C      1  0.4094390000000  0.5606270000000  0.4734140000000 1.0
C      1  0.4160900000000  0.5507760000000  0.5380200000000 1.0
C      1  0.5416780000000  0.4703890000000  0.4885630000000 1.0
C      1  0.5253580000000  0.4732480000000  0.5166150000000 1.0
C      1  0.5203210000000  0.5127660000000  0.5146550000000 1.0
C      1  0.5217570000000  0.5099430000000  0.4887950000000 1.0
C      1  0.4566470000000  0.4778810000000  0.4751970000000 1.0
C      1  0.4627600000000  0.4798670000000  0.5305180000000 1.0
C      1  0.4569480000000  0.5214640000000  0.5571220000000 1.0
C      1  0.4561750000000  0.5075910000000  0.4476790000000 1.0
C      1  0.4402280000000  0.4497930000000  0.4681580000000 1.0
C      1  0.4333290000000  0.4652740000000  0.5397990000000 1.0
C      1  0.5108340000000  0.4880460000000  0.4149270000000 1.0
C      1  0.5081820000000  0.4952510000000  0.5886100000000 1.0
C      1  0.5874570000000  0.4658040000000  0.4716120000000 1.0
C      1  0.5804990000000  0.4531490000000  0.5448190000000 1.0
C      1  0.4929380000000  0.4706670000000  0.5774150000000 1.0
C      1  0.4923170000000  0.4675850000000  0.4188640000000 1.0
C      1  0.5585400000000  0.4512060000000  0.5189320000000 1.0
C      1  0.5658230000000  0.4488740000000  0.4858030000000 1.0
C      1  0.4818500000000  0.5238910000000  0.5801450000000 1.0
C      1  0.4803370000000  0.5110380000000  0.4262100000000 1.0
C      1  0.4653410000000  0.4809030000000  0.4248010000000 1.0
C      1  0.4761380000000  0.4945270000000  0.5652080000000 1.0
C      1  0.5074810000000  0.4326650000000  0.4748630000000 1.0
C      1  0.5159820000000  0.4212200000000  0.5003720000000 1.0
C      1  0.5699660000000  0.5130140000000  0.5186250000000 1.0
C      1  0.5703670000000  0.5187550000000  0.4881970000000 1.0
C      1  0.4867000000000  0.4517870000000  0.4785550000000 1.0
C      1  0.4936940000000  0.4195790000000  0.5187560000000 1.0
C      1  0.5530230000000  0.5410370000000  0.4498460000000 1.0
C      1  0.5564870000000  0.5411150000000  0.5479510000000 1.0
C      1  0.5088810000000  0.5652310000000  0.5156270000000 1.0
C      1  0.5085880000000  0.5613550000000  0.4650160000000 1.0
C      1  0.4929320000000  0.4456840000000  0.5659660000000 1.0
C      1  0.5011670000000  0.4424900000000  0.4268260000000 1.0
C      1  0.5473330000000  0.4986170000000  0.4733500000000 1.0
C      1  0.5430780000000  0.4975210000000  0.5325280000000 1.0
C      1  0.4339060000000  0.5803260000000  0.4722580000000 1.0
C      1  0.4347910000000  0.5761530000000  0.5371620000000 1.0
C      1  0.5032510000000  0.5155350000000  0.4014960000000 1.0
C      1  0.4949880000000  0.5131920000000  0.6096250000000 1.0
C      1  0.4957520000000  0.5139860000000  0.5350480000000 1.0
C      1  0.4980370000000  0.5115590000000  0.4696370000000 1.0
C      1  0.5629730000000  0.5489570000000  0.4806420000000 1.0
C      1  0.5579300000000  0.5447600000000  0.5157980000000 1.0
C      1  0.5631150000000  0.4152000000000  0.4846770000000 1.0
C      1  0.5440070000000  0.4230020000000  0.5066890000000 1.0
C      1  0.5804430000000  0.4920770000000  0.4691000000000 1.0
C      1  0.5724210000000  0.4805170000000  0.5300030000000 1.0
C      1  0.4865550000000  0.5404850000000  0.4764590000000 1.0
C      1  0.4887810000000  0.5487940000000  0.5073980000000 1.0
C      1  0.4678770000000  0.5315010000000  0.5265280000000 1.0
C      1  0.4564260000000  0.5307720000000  0.4717710000000 1.0
C      1  0.5405460000000  0.5161350000000  0.4472720000000 1.0
C      1  0.5412930000000  0.5190030000000  0.5563100000000 1.0
C      1  0.4444560000000  0.4896770000000  0.5574400000000 1.0
C      1  0.4423800000000  0.4760070000000  0.4464090000000 1.0
C      1  0.4545620000000  0.5044520000000  0.4875120000000 1.0
C      1  0.4592610000000  0.5046930000000  0.5125830000000 1.0
C      1  0.4960720000000  0.4280790000000  0.5455350000000 1.0
C      1  0.5131800000000  0.4289620000000  0.4475480000000 1.0
C      1  0.5335040000000  0.5646090000000  0.4755360000000 1.0
C      1  0.5351210000000  0.5640780000000  0.5048910000000 1.0
C      1  0.4389540000000  0.5506810000000  0.4870700000000 1.0
C      1  0.4430700000000  0.5506330000000  0.5173280000000 1.0
C      1  0.4442450000000  0.6036940000000  0.4649290000000 1.0
C      1  0.4406620000000  0.6005890000000  0.5458280000000 1.0
C      1  0.4930670000000  0.4838860000000  0.5174560000000 1.0
C      1  0.4883230000000  0.4832240000000  0.4849810000000 1.0
C      1  0.4675170000000  0.4197660000000  0.5058470000000 1.0
C      1  0.4620810000000  0.4391820000000  0.4853550000000 1.0
C      1  0.5123410000000  0.5152730000000  0.5633520000000 1.0
C      1  0.5114430000000  0.5099330000000  0.4401680000000 1.0
END
