TITL C-2622965-4321-613 0.000260282374334879 125000 -937.856933512619 0 0 176 (C1) n - 1
REM
REM in /nfs/bkarasulu/CARBON/AIRSS/Generating-Clusters/AIREBO/with-SteepDescent/Higher-Symm/SD-CG/HFTN-CG
REM
REM
REM
REM
REM
REM ./C.cell (b20cbc046b6831c77cfcea5457e17084)
REM
REM compiler GCC version 9.2.1 20190827 (Red Hat 9.2.1-1)
REM options -cpp -mtune=generic -march=x86-64 -g -O0 -fpre-include=/usr/include/finclude/math-vector-fortran.h
REM seed 1881142051 1231206153 -768058465 -1024632394 -86711718 -1908813031 1800733300 -691290444 339245810 1444074499 1757305516 -3489187 445484102 147241480 1838660003 -1558845912 2041487265 -1607138552 -196609942 64431290 -1452908852 -2066384984 -2104303578 -1870809479 812415132 -1479019839 2123545702 1827913594 728202061 1448752044 1529524999 1902565620 1802347931
REM
CELL 1.54180   50.00000   50.00000   50.00000   90.00000   90.00000   90.00000
LATT -1
SFAC C  
C      1  0.5922300000000  0.5540070000000  0.4884540000000 1.0
C      1  0.5119760000000  0.5588560000000  0.5898360000000 1.0
C      1  0.4067340000000  0.5545830000000  0.5144960000000 1.0
C      1  0.4859910000000  0.5471330000000  0.4062210000000 1.0
C      1  0.6192640000000  0.5049450000000  0.4835480000000 1.0
C      1  0.5196860000000  0.4593440000000  0.6232770000000 1.0
C      1  0.3821200000000  0.5010910000000  0.5238060000000 1.0
C      1  0.4865600000000  0.4874800000000  0.3798040000000 1.0
C      1  0.5630790000000  0.5288080000000  0.4369690000000 1.0
C      1  0.5574070000000  0.5259930000000  0.5605590000000 1.0
C      1  0.4401410000000  0.5280190000000  0.5637210000000 1.0
C      1  0.4384550000000  0.5319530000000  0.4367690000000 1.0
C      1  0.5349760000000  0.4232300000000  0.4235330000000 1.0
C      1  0.5865930000000  0.4309240000000  0.5547930000000 1.0
C      1  0.4616260000000  0.4208540000000  0.5718440000000 1.0
C      1  0.4110010000000  0.4391170000000  0.4625390000000 1.0
C      1  0.5094710000000  0.6105010000000  0.4701850000000 1.0
C      1  0.5257450000000  0.6202690000000  0.5235350000000 1.0
C      1  0.4974030000000  0.6121550000000  0.5151280000000 1.0
C      1  0.4870220000000  0.6136520000000  0.4887060000000 1.0
C      1  0.5147660000000  0.4799700000000  0.5966980000000 1.0
C      1  0.4142500000000  0.5032540000000  0.5128710000000 1.0
C      1  0.4923300000000  0.4868250000000  0.4190030000000 1.0
C      1  0.5800440000000  0.5050760000000  0.4906810000000 1.0
C      1  0.5440910000000  0.4311740000000  0.3941510000000 1.0
C      1  0.6058500000000  0.4468230000000  0.5495550000000 1.0
C      1  0.4478950000000  0.4287070000000  0.5989730000000 1.0
C      1  0.3806400000000  0.4466910000000  0.4570360000000 1.0
C      1  0.4521820000000  0.5449950000000  0.5876730000000 1.0
C      1  0.4194610000000  0.5552420000000  0.4526950000000 1.0
C      1  0.5483750000000  0.5511040000000  0.4159060000000 1.0
C      1  0.5700940000000  0.5550950000000  0.5483720000000 1.0
C      1  0.4625600000000  0.4701460000000  0.5621940000000 1.0
C      1  0.4251050000000  0.4806910000000  0.4601480000000 1.0
C      1  0.5394910000000  0.4734610000000  0.4351480000000 1.0
C      1  0.5710480000000  0.4806630000000  0.5408970000000 1.0
C      1  0.5008250000000  0.5804160000000  0.5253420000000 1.0
C      1  0.4741260000000  0.5541790000000  0.4946490000000 1.0
C      1  0.4984140000000  0.5600090000000  0.4760180000000 1.0
C      1  0.5169210000000  0.5725490000000  0.4979920000000 1.0
C      1  0.5149540000000  0.4621180000000  0.4557810000000 1.0
C      1  0.5634790000000  0.4578750000000  0.5186500000000 1.0
C      1  0.4835250000000  0.4575500000000  0.5392450000000 1.0
C      1  0.4376690000000  0.4606590000000  0.4828280000000 1.0
C      1  0.5348050000000  0.5736730000000  0.5457040000000 1.0
C      1  0.4529850000000  0.5713400000000  0.5378520000000 1.0
C      1  0.4573490000000  0.5659330000000  0.4460510000000 1.0
C      1  0.5445280000000  0.5709620000000  0.4602620000000 1.0
C      1  0.4359740000000  0.5274650000000  0.5147100000000 1.0
C      1  0.4911140000000  0.5173030000000  0.4315060000000 1.0
C      1  0.5610310000000  0.5293690000000  0.4845710000000 1.0
C      1  0.5178820000000  0.5295440000000  0.5636970000000 1.0
C      1  0.5996720000000  0.5134370000000  0.5170500000000 1.0
C      1  0.5023470000000  0.5058060000000  0.6034130000000 1.0
C      1  0.3909280000000  0.5131760000000  0.4895540000000 1.0
C      1  0.5157210000000  0.5024500000000  0.4017900000000 1.0
C      1  0.5407040000000  0.5534590000000  0.5716820000000 1.0
C      1  0.4290770000000  0.5495330000000  0.5396420000000 1.0
C      1  0.4566240000000  0.5529980000000  0.4171690000000 1.0
C      1  0.5722540000000  0.5512200000000  0.4610610000000 1.0
C      1  0.5202410000000  0.4523740000000  0.4855370000000 1.0
C      1  0.5174380000000  0.4567450000000  0.5182210000000 1.0
C      1  0.4716190000000  0.4500750000000  0.5112490000000 1.0
C      1  0.4898380000000  0.4370280000000  0.4882830000000 1.0
C      1  0.4233070000000  0.4411150000000  0.5030890000000 1.0
C      1  0.4865570000000  0.4526490000000  0.4396500000000 1.0
C      1  0.5927810000000  0.4427710000000  0.5103000000000 1.0
C      1  0.5120750000000  0.4527660000000  0.5571150000000 1.0
C      1  0.4385700000000  0.4941650000000  0.5600210000000 1.0
C      1  0.4400630000000  0.4976800000000  0.4347500000000 1.0
C      1  0.5648410000000  0.4949440000000  0.4424770000000 1.0
C      1  0.5573070000000  0.4942660000000  0.5655150000000 1.0
C      1  0.4122130000000  0.4792480000000  0.5683420000000 1.0
C      1  0.4373690000000  0.4818600000000  0.4074210000000 1.0
C      1  0.5918350000000  0.4799680000000  0.4364620000000 1.0
C      1  0.5590130000000  0.4749470000000  0.5915260000000 1.0
C      1  0.5155400000000  0.5290500000000  0.5238220000000 1.0
C      1  0.4839780000000  0.5326110000000  0.5149790000000 1.0
C      1  0.4977060000000  0.5179540000000  0.4887770000000 1.0
C      1  0.5273270000000  0.5108670000000  0.5005190000000 1.0
C      1  0.4497760000000  0.4288020000000  0.5206810000000 1.0
C      1  0.4706980000000  0.4309660000000  0.4605020000000 1.0
C      1  0.5421660000000  0.4322710000000  0.4751910000000 1.0
C      1  0.5324870000000  0.4342040000000  0.5369880000000 1.0
C      1  0.5599110000000  0.4886560000000  0.4731430000000 1.0
C      1  0.5267130000000  0.4797100000000  0.5684780000000 1.0
C      1  0.4398030000000  0.4879060000000  0.5278590000000 1.0
C      1  0.4680910000000  0.4821130000000  0.4398250000000 1.0
C      1  0.4620050000000  0.5775620000000  0.5080670000000 1.0
C      1  0.4849280000000  0.5768180000000  0.4541310000000 1.0
C      1  0.5347790000000  0.5944690000000  0.4829510000000 1.0
C      1  0.5157460000000  0.6004350000000  0.5484620000000 1.0
C      1  0.5576840000000  0.5866240000000  0.5261470000000 1.0
C      1  0.4700590000000  0.5846690000000  0.5629770000000 1.0
C      1  0.4425210000000  0.5849820000000  0.4689490000000 1.0
C      1  0.5258160000000  0.5828670000000  0.4347500000000 1.0
C      1  0.4831960000000  0.5582990000000  0.5359850000000 1.0
C      1  0.4628030000000  0.5431530000000  0.4674480000000 1.0
C      1  0.5217290000000  0.5472760000000  0.4609410000000 1.0
C      1  0.5312190000000  0.5550020000000  0.5199910000000 1.0
C      1  0.5337760000000  0.5211220000000  0.4720640000000 1.0
C      1  0.5247740000000  0.5033820000000  0.5441360000000 1.0
C      1  0.4628020000000  0.5120570000000  0.5211140000000 1.0
C      1  0.4783200000000  0.5152500000000  0.4629500000000 1.0
C      1  0.4955300000000  0.4866530000000  0.4586780000000 1.0
C      1  0.5469200000000  0.4709900000000  0.4954590000000 1.0
C      1  0.5031750000000  0.4828450000000  0.5324870000000 1.0
C      1  0.4568700000000  0.4776240000000  0.5016730000000 1.0
C      1  0.4752720000000  0.4959120000000  0.5444720000000 1.0
C      1  0.4521190000000  0.4963730000000  0.4735970000000 1.0
C      1  0.5263710000000  0.4997280000000  0.4522920000000 1.0
C      1  0.5479820000000  0.4946130000000  0.5201690000000 1.0
C      1  0.5461330000000  0.6064160000000  0.5091710000000 1.0
C      1  0.4872950000000  0.6060430000000  0.5611150000000 1.0
C      1  0.4615620000000  0.5983690000000  0.4874530000000 1.0
C      1  0.5033000000000  0.5963680000000  0.4462010000000 1.0
C      1  0.4756420000000  0.3953330000000  0.5149370000000 1.0
C      1  0.4864070000000  0.4033520000000  0.4847430000000 1.0
C      1  0.5200230000000  0.4009540000000  0.4848180000000 1.0
C      1  0.5092430000000  0.3919900000000  0.5148950000000 1.0
C      1  0.5932850000000  0.5692270000000  0.4436320000000 1.0
C      1  0.5600430000000  0.5650260000000  0.5925630000000 1.0
C      1  0.4067060000000  0.5643270000000  0.5592570000000 1.0
C      1  0.4397390000000  0.5671860000000  0.3961300000000 1.0
C      1  0.5488270000000  0.5050480000000  0.3960480000000 1.0
C      1  0.5958020000000  0.5261890000000  0.5484030000000 1.0
C      1  0.4762970000000  0.5078780000000  0.5955820000000 1.0
C      1  0.4013630000000  0.5167040000000  0.4644210000000 1.0
C      1  0.3987820000000  0.4671200000000  0.4774610000000 1.0
C      1  0.5274600000000  0.4542680000000  0.4111670000000 1.0
C      1  0.5998940000000  0.4707610000000  0.5282460000000 1.0
C      1  0.4708080000000  0.4500470000000  0.5851940000000 1.0
C      1  0.4415100000000  0.4314380000000  0.4691530000000 1.0
C      1  0.5284750000000  0.4136290000000  0.4546010000000 1.0
C      1  0.5635680000000  0.4293420000000  0.5339690000000 1.0
C      1  0.4688740000000  0.4124910000000  0.5436080000000 1.0
C      1  0.5491150000000  0.4504540000000  0.5977040000000 1.0
C      1  0.4025980000000  0.4598670000000  0.5555880000000 1.0
C      1  0.4475130000000  0.4600500000000  0.4010050000000 1.0
C      1  0.6018790000000  0.4604710000000  0.4487500000000 1.0
C      1  0.5178020000000  0.5276320000000  0.5963060000000 1.0
C      1  0.3878720000000  0.5332070000000  0.5142000000000 1.0
C      1  0.4874190000000  0.5180110000000  0.3949030000000 1.0
C      1  0.6096650000000  0.5318410000000  0.4919550000000 1.0
C      1  0.4210420000000  0.4177950000000  0.5351660000000 1.0
C      1  0.4654810000000  0.4201760000000  0.4286760000000 1.0
C      1  0.5729880000000  0.4287910000000  0.4792340000000 1.0
C      1  0.5233990000000  0.4163750000000  0.5715450000000 1.0
C      1  0.5540360000000  0.4002040000000  0.4846990000000 1.0
C      1  0.5200340000000  0.4045650000000  0.5394040000000 1.0
C      1  0.4420220000000  0.3959160000000  0.5168100000000 1.0
C      1  0.4835350000000  0.4009510000000  0.4509740000000 1.0
C      1  0.6013340000000  0.4792190000000  0.4966420000000 1.0
C      1  0.4969280000000  0.4511300000000  0.5991620000000 1.0
C      1  0.3972040000000  0.4743940000000  0.5070960000000 1.0
C      1  0.4992690000000  0.4626120000000  0.3992020000000 1.0
C      1  0.5582060000000  0.5441350000000  0.5115110000000 1.0
C      1  0.4896650000000  0.5403010000000  0.5608880000000 1.0
C      1  0.4371280000000  0.5405400000000  0.4880950000000 1.0
C      1  0.5144110000000  0.5384800000000  0.4327940000000 1.0
C      1  0.5959990000000  0.4520790000000  0.4777060000000 1.0
C      1  0.5259240000000  0.4358690000000  0.5915530000000 1.0
C      1  0.4042490000000  0.4495560000000  0.5275930000000 1.0
C      1  0.4731880000000  0.4448520000000  0.4092840000000 1.0
C      1  0.5041380000000  0.4235750000000  0.4361500000000 1.0
C      1  0.5745380000000  0.4130520000000  0.5085940000000 1.0
C      1  0.4967570000000  0.4226990000000  0.5528950000000 1.0
C      1  0.4296100000000  0.4103650000000  0.4915050000000 1.0
C      1  0.4187370000000  0.5665700000000  0.4848230000000 1.0
C      1  0.5162720000000  0.5617700000000  0.4113880000000 1.0
C      1  0.5804290000000  0.5662050000000  0.5178170000000 1.0
C      1  0.4795330000000  0.5626200000000  0.5819440000000 1.0
C      1  0.4306970000000  0.5196650000000  0.4662270000000 1.0
C      1  0.5347700000000  0.5149990000000  0.4257390000000 1.0
C      1  0.5685470000000  0.5202320000000  0.5289520000000 1.0
C      1  0.4707980000000  0.5169970000000  0.5661980000000 1.0
END
