TITL C-2622956-4641-320 0.00432560222993434 125000 -547.268440005772 0 0 98 (C1) n - 1
REM
REM in /nfs/bkarasulu/CARBON/AIRSS/Generating-Clusters/AIREBO/with-SteepDescent/Higher-Symm/SD-CG/HFTN-CG
REM
REM
REM
REM
REM
REM ./C.cell (b20cbc046b6831c77cfcea5457e17084)
REM
REM compiler GCC version 9.2.1 20190827 (Red Hat 9.2.1-1)
REM options -cpp -mtune=generic -march=x86-64 -g -O0 -fpre-include=/usr/include/finclude/math-vector-fortran.h
REM seed -1798191825 1228964815 1651375750 -1592647953 -2052789775 -823980660 187075418 -302689421 -1557329758 -213250689 -1448778415 784672890 132415994 -660877283 564246384 1648221471 840684936 495338234 -157065418 -378546572 -2024926071 -1246156755 1622418112 226304321 1449112782 1064936553 1399740463 -1209067297 996149365 -1769275781 -693457583 488577656 -744215238
REM
CELL 1.54180   50.00000   50.00000   50.00000   90.00000   90.00000   90.00000
LATT -1
SFAC C  
C      1  0.5725880000000  0.5359910000000  0.5048790000000 1.0
C      1  0.5128510000000  0.5244580000000  0.4822160000000 1.0
C      1  0.4235050000000  0.5068530000000  0.4480660000000 1.0
C      1  0.4943030000000  0.5032980000000  0.5419690000000 1.0
C      1  0.4448340000000  0.5623020000000  0.4905990000000 1.0
C      1  0.4476030000000  0.4505900000000  0.5364910000000 1.0
C      1  0.5245470000000  0.5139530000000  0.4565150000000 1.0
C      1  0.5464780000000  0.4912060000000  0.4637180000000 1.0
C      1  0.4687820000000  0.4593430000000  0.4384040000000 1.0
C      1  0.4587920000000  0.5639330000000  0.5217030000000 1.0
C      1  0.4352760000000  0.5409650000000  0.5147640000000 1.0
C      1  0.4911900000000  0.4200500000000  0.5248220000000 1.0
C      1  0.5642300000000  0.4671560000000  0.5506900000000 1.0
C      1  0.4589570000000  0.5185770000000  0.4918440000000 1.0
C      1  0.5230460000000  0.5150370000000  0.4246370000000 1.0
C      1  0.5350590000000  0.5227510000000  0.5252460000000 1.0
C      1  0.4983900000000  0.5846490000000  0.4634530000000 1.0
C      1  0.5130380000000  0.5857280000000  0.5227940000000 1.0
C      1  0.5991620000000  0.5037830000000  0.4715630000000 1.0
C      1  0.4476420000000  0.4588100000000  0.4973470000000 1.0
C      1  0.5270850000000  0.5013270000000  0.5026730000000 1.0
C      1  0.4854250000000  0.4023650000000  0.4973870000000 1.0
C      1  0.5447580000000  0.5625230000000  0.4465370000000 1.0
C      1  0.5395780000000  0.5014190000000  0.5753940000000 1.0
C      1  0.5563630000000  0.4306510000000  0.5206690000000 1.0
C      1  0.4898130000000  0.4870740000000  0.4866270000000 1.0
C      1  0.5184680000000  0.4458740000000  0.5649340000000 1.0
C      1  0.5730180000000  0.4698240000000  0.4956320000000 1.0
C      1  0.4110910000000  0.5213640000000  0.5070740000000 1.0
C      1  0.4866740000000  0.5252980000000  0.5741280000000 1.0
C      1  0.5404940000000  0.5332360000000  0.5830080000000 1.0
C      1  0.5865880000000  0.5334100000000  0.4623670000000 1.0
C      1  0.4397540000000  0.5492970000000  0.4631930000000 1.0
C      1  0.5521640000000  0.4496550000000  0.5674580000000 1.0
C      1  0.4947060000000  0.5903190000000  0.5425050000000 1.0
C      1  0.5577930000000  0.4617130000000  0.5207560000000 1.0
C      1  0.5119790000000  0.4292660000000  0.5002960000000 1.0
C      1  0.4831470000000  0.5318390000000  0.4725680000000 1.0
C      1  0.4517000000000  0.5256680000000  0.5403070000000 1.0
C      1  0.4704810000000  0.4121130000000  0.4786640000000 1.0
C      1  0.4777070000000  0.5574160000000  0.4943160000000 1.0
C      1  0.5126670000000  0.4677080000000  0.4213540000000 1.0
C      1  0.4756340000000  0.5063060000000  0.4256410000000 1.0
C      1  0.4662660000000  0.4421990000000  0.4743380000000 1.0
C      1  0.5205280000000  0.4446040000000  0.4390340000000 1.0
C      1  0.4777030000000  0.4783170000000  0.5318900000000 1.0
C      1  0.5189890000000  0.5684680000000  0.4461890000000 1.0
C      1  0.4233810000000  0.4619450000000  0.5333500000000 1.0
C      1  0.4766480000000  0.5014530000000  0.4587200000000 1.0
C      1  0.5008860000000  0.5796470000000  0.4933090000000 1.0
C      1  0.5162580000000  0.4824250000000  0.4508460000000 1.0
C      1  0.5213750000000  0.4780070000000  0.5587530000000 1.0
C      1  0.5875130000000  0.5096000000000  0.5153630000000 1.0
C      1  0.4529990000000  0.4952950000000  0.5250160000000 1.0
C      1  0.4500860000000  0.4887820000000  0.4857710000000 1.0
C      1  0.4253360000000  0.4907960000000  0.5059550000000 1.0
C      1  0.5378230000000  0.4183710000000  0.5088220000000 1.0
C      1  0.5449350000000  0.4450870000000  0.4609210000000 1.0
C      1  0.5144220000000  0.4393720000000  0.4723940000000 1.0
C      1  0.5384330000000  0.4299270000000  0.5874850000000 1.0
C      1  0.4155590000000  0.4866020000000  0.5454270000000 1.0
C      1  0.4991990000000  0.4639970000000  0.5097720000000 1.0
C      1  0.5271420000000  0.4758510000000  0.5252090000000 1.0
C      1  0.5588110000000  0.5457640000000  0.4688290000000 1.0
C      1  0.4803830000000  0.5404600000000  0.5457720000000 1.0
C      1  0.4747980000000  0.5723180000000  0.5462360000000 1.0
C      1  0.4714790000000  0.4971570000000  0.5664210000000 1.0
C      1  0.5039070000000  0.5359460000000  0.5214860000000 1.0
C      1  0.5043210000000  0.4969200000000  0.4155870000000 1.0
C      1  0.4281610000000  0.5211660000000  0.4776250000000 1.0
C      1  0.4874440000000  0.5559190000000  0.4489330000000 1.0
C      1  0.4584160000000  0.5490670000000  0.4416890000000 1.0
C      1  0.5634950000000  0.5490310000000  0.5352110000000 1.0
C      1  0.5585410000000  0.4660820000000  0.4723980000000 1.0
C      1  0.5009690000000  0.4949030000000  0.5800990000000 1.0
C      1  0.5172170000000  0.5521870000000  0.4971630000000 1.0
C      1  0.5519200000000  0.5168940000000  0.4854240000000 1.0
C      1  0.4458130000000  0.4871940000000  0.4555240000000 1.0
C      1  0.4867460000000  0.5101150000000  0.5095120000000 1.0
C      1  0.4146440000000  0.4483720000000  0.4721100000000 1.0
C      1  0.4732360000000  0.4542370000000  0.5522190000000 1.0
C      1  0.4917470000000  0.4624120000000  0.4632920000000 1.0
C      1  0.5486470000000  0.5573670000000  0.4991380000000 1.0
C      1  0.5196550000000  0.5175170000000  0.5530340000000 1.0
C      1  0.4942620000000  0.4351820000000  0.5519940000000 1.0
C      1  0.5356710000000  0.5674550000000  0.5289300000000 1.0
C      1  0.5641610000000  0.4938910000000  0.5583730000000 1.0
C      1  0.4722840000000  0.4435760000000  0.5136970000000 1.0
C      1  0.5909010000000  0.4913920000000  0.4951850000000 1.0
C      1  0.6090250000000  0.5181980000000  0.4445960000000 1.0
C      1  0.4702240000000  0.4761070000000  0.4168470000000 1.0
C      1  0.5368230000000  0.5475220000000  0.5562610000000 1.0
C      1  0.4140610000000  0.4591660000000  0.5026610000000 1.0
C      1  0.5653800000000  0.5151790000000  0.5378000000000 1.0
C      1  0.4281570000000  0.5188710000000  0.4241220000000 1.0
C      1  0.4548080000000  0.5285850000000  0.4228480000000 1.0
C      1  0.4408790000000  0.4551440000000  0.4564860000000 1.0
C      1  0.4201680000000  0.5128570000000  0.5387240000000 1.0
END
