TITL C-2622957-9142-114 -0.000366955444483529 125000 -916.716504735935 0 0 169 (C1) n - 1
REM
REM in /nfs/bkarasulu/CARBON/AIRSS/Generating-Clusters/AIREBO/with-SteepDescent/Higher-Symm/SD-CG/HFTN-CG
REM
REM
REM
REM
REM
REM ./C.cell (b20cbc046b6831c77cfcea5457e17084)
REM
REM compiler GCC version 9.2.1 20190827 (Red Hat 9.2.1-1)
REM options -cpp -mtune=generic -march=x86-64 -g -O0 -fpre-include=/usr/include/finclude/math-vector-fortran.h
REM seed -970770157 -1948117066 92697491 180481538 1536385968 -903099739 651257941 -1312649474 -1185970759 812431922 -1492730211 -1415672925 -1655646098 1060191164 1413880380 291589891 356565904 -1445423905 517319349 1137094613 1706770579 -1913223545 -539045143 -1326530804 -943955361 -1452653603 -1146003340 483898344 1539027291 -186071899 2035692581 1198980863 956847876
REM
CELL 1.54180   50.00000   50.00000   50.00000   90.00000   90.00000   90.00000
LATT -1
SFAC C  
C      1  0.5146100000000  0.4387460000000  0.4622600000000 1.0
C      1  0.4898990000000  0.4096530000000  0.4373320000000 1.0
C      1  0.4708970000000  0.5211820000000  0.5951740000000 1.0
C      1  0.5699940000000  0.4973140000000  0.5470210000000 1.0
C      1  0.5071150000000  0.4608910000000  0.4300110000000 1.0
C      1  0.5210450000000  0.5905560000000  0.5856150000000 1.0
C      1  0.4701150000000  0.4676120000000  0.4165060000000 1.0
C      1  0.5721590000000  0.5409760000000  0.4273030000000 1.0
C      1  0.4400730000000  0.6081980000000  0.5418350000000 1.0
C      1  0.5662870000000  0.4504190000000  0.5709120000000 1.0
C      1  0.4989250000000  0.5135120000000  0.4320690000000 1.0
C      1  0.5866070000000  0.5263010000000  0.5394420000000 1.0
C      1  0.4604650000000  0.5382480000000  0.4495250000000 1.0
C      1  0.3920350000000  0.5162520000000  0.4959160000000 1.0
C      1  0.5307450000000  0.5976210000000  0.5330310000000 1.0
C      1  0.5522930000000  0.5048200000000  0.5119620000000 1.0
C      1  0.4892250000000  0.3835050000000  0.5182060000000 1.0
C      1  0.4849450000000  0.5297850000000  0.4794360000000 1.0
C      1  0.4628200000000  0.5518550000000  0.5829210000000 1.0
C      1  0.5087390000000  0.5065920000000  0.5939660000000 1.0
C      1  0.5739280000000  0.4562520000000  0.5150160000000 1.0
C      1  0.5271180000000  0.3875470000000  0.4609520000000 1.0
C      1  0.4735250000000  0.5603920000000  0.5210970000000 1.0
C      1  0.5510120000000  0.4717380000000  0.5343160000000 1.0
C      1  0.5120290000000  0.5331760000000  0.4995620000000 1.0
C      1  0.5442100000000  0.3981040000000  0.4814730000000 1.0
C      1  0.4623700000000  0.5594330000000  0.4000450000000 1.0
C      1  0.5261980000000  0.4487850000000  0.5388190000000 1.0
C      1  0.4907530000000  0.5317350000000  0.4045440000000 1.0
C      1  0.5614720000000  0.4926300000000  0.4529140000000 1.0
C      1  0.4129260000000  0.5579400000000  0.5676730000000 1.0
C      1  0.5390070000000  0.5831040000000  0.4847610000000 1.0
C      1  0.4857990000000  0.4894170000000  0.4119890000000 1.0
C      1  0.4298630000000  0.5801170000000  0.5505330000000 1.0
C      1  0.5933120000000  0.4872650000000  0.4420810000000 1.0
C      1  0.4872030000000  0.4904390000000  0.4849080000000 1.0
C      1  0.5594850000000  0.4841540000000  0.4090830000000 1.0
C      1  0.5653130000000  0.5896390000000  0.4383980000000 1.0
C      1  0.4341880000000  0.4685600000000  0.5469000000000 1.0
C      1  0.5064940000000  0.5204390000000  0.5440750000000 1.0
C      1  0.5419160000000  0.4675630000000  0.3945370000000 1.0
C      1  0.4025980000000  0.4390370000000  0.4494150000000 1.0
C      1  0.6124240000000  0.4943080000000  0.4613570000000 1.0
C      1  0.5112340000000  0.4687270000000  0.5078130000000 1.0
C      1  0.5910700000000  0.4653420000000  0.4895480000000 1.0
C      1  0.4616090000000  0.5405310000000  0.4976140000000 1.0
C      1  0.5388300000000  0.4649790000000  0.5790430000000 1.0
C      1  0.4814750000000  0.4386180000000  0.4278450000000 1.0
C      1  0.5153530000000  0.4761170000000  0.6009790000000 1.0
C      1  0.5485540000000  0.5233880000000  0.5511820000000 1.0
C      1  0.5245890000000  0.5323530000000  0.4081670000000 1.0
C      1  0.5592570000000  0.5658260000000  0.4247010000000 1.0
C      1  0.5051090000000  0.4222970000000  0.5463960000000 1.0
C      1  0.5007640000000  0.5489830000000  0.5274840000000 1.0
C      1  0.4498490000000  0.5364850000000  0.5469210000000 1.0
C      1  0.4495680000000  0.4709410000000  0.5767870000000 1.0
C      1  0.5615650000000  0.5222610000000  0.4696230000000 1.0
C      1  0.5315110000000  0.4825120000000  0.4403870000000 1.0
C      1  0.4338550000000  0.5644160000000  0.5233750000000 1.0
C      1  0.4598570000000  0.5335060000000  0.4187550000000 1.0
C      1  0.4775390000000  0.6106360000000  0.5010810000000 1.0
C      1  0.5517290000000  0.5984900000000  0.4605730000000 1.0
C      1  0.5031870000000  0.5017500000000  0.5091020000000 1.0
C      1  0.4998200000000  0.5380300000000  0.5891590000000 1.0
C      1  0.4943120000000  0.5406750000000  0.4517350000000 1.0
C      1  0.4281410000000  0.4142180000000  0.4915590000000 1.0
C      1  0.4512440000000  0.4018120000000  0.4810990000000 1.0
C      1  0.5506090000000  0.5913040000000  0.5138370000000 1.0
C      1  0.4812790000000  0.5368670000000  0.5599860000000 1.0
C      1  0.4610040000000  0.6183350000000  0.5587140000000 1.0
C      1  0.4466760000000  0.5166560000000  0.5732120000000 1.0
C      1  0.4808940000000  0.4432870000000  0.5118190000000 1.0
C      1  0.5902420000000  0.3996280000000  0.5223440000000 1.0
C      1  0.5772290000000  0.4685530000000  0.4254300000000 1.0
C      1  0.4646760000000  0.4912300000000  0.5091000000000 1.0
C      1  0.4860120000000  0.6070110000000  0.5510870000000 1.0
C      1  0.5348900000000  0.4958680000000  0.5657520000000 1.0
C      1  0.5174520000000  0.4052260000000  0.4407850000000 1.0
C      1  0.5521750000000  0.5482380000000  0.5698320000000 1.0
C      1  0.4902470000000  0.4606950000000  0.4592900000000 1.0
C      1  0.4376280000000  0.5085840000000  0.4979550000000 1.0
C      1  0.4231990000000  0.4790570000000  0.4962630000000 1.0
C      1  0.3948060000000  0.4917600000000  0.4514170000000 1.0
C      1  0.4210840000000  0.5687500000000  0.4606490000000 1.0
C      1  0.4313210000000  0.4480320000000  0.4933140000000 1.0
C      1  0.4535130000000  0.5792490000000  0.5010920000000 1.0
C      1  0.4640350000000  0.3826290000000  0.4969810000000 1.0
C      1  0.5269010000000  0.4956900000000  0.5327020000000 1.0
C      1  0.4101800000000  0.5644120000000  0.4358700000000 1.0
C      1  0.4694830000000  0.4363310000000  0.5765210000000 1.0
C      1  0.4779640000000  0.4770520000000  0.5583860000000 1.0
C      1  0.5520460000000  0.4602390000000  0.4910370000000 1.0
C      1  0.5157610000000  0.5713280000000  0.5380010000000 1.0
C      1  0.4958070000000  0.5008960000000  0.5664530000000 1.0
C      1  0.4883480000000  0.5358950000000  0.3741710000000 1.0
C      1  0.4108900000000  0.5439380000000  0.4178120000000 1.0
C      1  0.5134150000000  0.6055690000000  0.5585210000000 1.0
C      1  0.5703260000000  0.4636410000000  0.4645070000000 1.0
C      1  0.4926670000000  0.4594340000000  0.5834910000000 1.0
C      1  0.5168590000000  0.4420400000000  0.5700630000000 1.0
C      1  0.5521580000000  0.5149990000000  0.4179750000000 1.0
C      1  0.4127760000000  0.4645370000000  0.5246180000000 1.0
C      1  0.4661020000000  0.5192540000000  0.5237770000000 1.0
C      1  0.5656310000000  0.4415670000000  0.4425880000000 1.0
C      1  0.4313190000000  0.5203950000000  0.4179280000000 1.0
C      1  0.4859400000000  0.5808990000000  0.4892390000000 1.0
C      1  0.3913330000000  0.4877450000000  0.4787420000000 1.0
C      1  0.5588050000000  0.4095270000000  0.5316070000000 1.0
C      1  0.4529480000000  0.4969890000000  0.5468270000000 1.0
C      1  0.4707280000000  0.4192330000000  0.4635530000000 1.0
C      1  0.5979790000000  0.5270590000000  0.5136810000000 1.0
C      1  0.5792430000000  0.5108160000000  0.4963270000000 1.0
C      1  0.3750410000000  0.5370150000000  0.5015060000000 1.0
C      1  0.5429310000000  0.5028840000000  0.5964970000000 1.0
C      1  0.5688640000000  0.5687340000000  0.5245260000000 1.0
C      1  0.4587900000000  0.3846330000000  0.5282550000000 1.0
C      1  0.3899870000000  0.4864690000000  0.5123960000000 1.0
C      1  0.6139220000000  0.5421090000000  0.4953020000000 1.0
C      1  0.5635270000000  0.4162400000000  0.4655930000000 1.0
C      1  0.5321450000000  0.5705630000000  0.5623690000000 1.0
C      1  0.4642420000000  0.4821410000000  0.4603890000000 1.0
C      1  0.4532430000000  0.4341680000000  0.5153090000000 1.0
C      1  0.4434420000000  0.4736120000000  0.4367210000000 1.0
C      1  0.5102150000000  0.5656370000000  0.4895200000000 1.0
C      1  0.5441700000000  0.5510730000000  0.4745630000000 1.0
C      1  0.5535060000000  0.5524880000000  0.5052840000000 1.0
C      1  0.4169810000000  0.5184850000000  0.4728170000000 1.0
C      1  0.4294340000000  0.5334630000000  0.5198790000000 1.0
C      1  0.4375110000000  0.5455740000000  0.4739640000000 1.0
C      1  0.5356130000000  0.4079090000000  0.5101820000000 1.0
C      1  0.5385960000000  0.5317890000000  0.5207480000000 1.0
C      1  0.4234280000000  0.5007440000000  0.4445290000000 1.0
C      1  0.5757690000000  0.4791260000000  0.5731850000000 1.0
C      1  0.5761760000000  0.5518770000000  0.5475820000000 1.0
C      1  0.5831430000000  0.4306420000000  0.5245540000000 1.0
C      1  0.4201930000000  0.5348890000000  0.5737160000000 1.0
C      1  0.4523020000000  0.4114830000000  0.5383080000000 1.0
C      1  0.6046650000000  0.5473970000000  0.4693430000000 1.0
C      1  0.5686930000000  0.4927400000000  0.5975880000000 1.0
C      1  0.5277470000000  0.4493990000000  0.4085470000000 1.0
C      1  0.4810200000000  0.5924130000000  0.5269020000000 1.0
C      1  0.4574720000000  0.5116580000000  0.4705100000000 1.0
C      1  0.4323330000000  0.4880140000000  0.4079850000000 1.0
C      1  0.4381190000000  0.4385640000000  0.5518520000000 1.0
C      1  0.4935010000000  0.4297460000000  0.4839460000000 1.0
C      1  0.5234160000000  0.5565230000000  0.5898720000000 1.0
C      1  0.5422780000000  0.4371710000000  0.4746730000000 1.0
C      1  0.5100430000000  0.3992020000000  0.5269610000000 1.0
C      1  0.4482590000000  0.5735870000000  0.5776310000000 1.0
C      1  0.4653460000000  0.4572740000000  0.6036280000000 1.0
C      1  0.5149510000000  0.4349810000000  0.5098430000000 1.0
C      1  0.5349470000000  0.4327770000000  0.4356610000000 1.0
C      1  0.4468540000000  0.6089810000000  0.5143990000000 1.0
C      1  0.5837450000000  0.5378270000000  0.4527870000000 1.0
C      1  0.5356980000000  0.4841860000000  0.4948260000000 1.0
C      1  0.4676370000000  0.4907320000000  0.5977140000000 1.0
C      1  0.4089480000000  0.4323880000000  0.5135960000000 1.0
C      1  0.4258540000000  0.4422880000000  0.4606830000000 1.0
C      1  0.5154220000000  0.5612460000000  0.3936130000000 1.0
C      1  0.5306570000000  0.5162800000000  0.4442870000000 1.0
C      1  0.5026930000000  0.4906320000000  0.4561630000000 1.0
C      1  0.4526960000000  0.4419580000000  0.4456460000000 1.0
C      1  0.6017770000000  0.4909700000000  0.4874920000000 1.0
C      1  0.5668680000000  0.4254550000000  0.5605800000000 1.0
C      1  0.5301920000000  0.5605900000000  0.4242660000000 1.0
C      1  0.5298620000000  0.5135260000000  0.4782720000000 1.0
C      1  0.4755450000000  0.4210050000000  0.5565260000000 1.0
C      1  0.4826200000000  0.4715620000000  0.5252980000000 1.0
C      1  0.5202340000000  0.5560300000000  0.4521350000000 1.0
END
