TITL C-2622959-7779-555 0.00388563903695772 125000 -788.465583754932 0 0 143 (C1) n - 1
REM
REM in /nfs/bkarasulu/CARBON/AIRSS/Generating-Clusters/AIREBO/with-SteepDescent/Higher-Symm/SD-CG/HFTN-CG
REM
REM
REM
REM
REM
REM ./C.cell (b20cbc046b6831c77cfcea5457e17084)
REM
REM compiler GCC version 9.2.1 20190827 (Red Hat 9.2.1-1)
REM options -cpp -mtune=generic -march=x86-64 -g -O0 -fpre-include=/usr/include/finclude/math-vector-fortran.h
REM seed -24136189 1716268016 1331025297 -1772433066 -1613913562 865927890 1628285438 831933982 468776206 -54965579 1432414839 -1898356208 2111589340 617643765 -1666035683 1148870450 -1462988446 1706672516 1615732543 -210952360 124958154 -913593042 -1691190808 843637159 -1989853570 -719674271 -1576763170 -1511867177 -1873760385 2083287283 -1363453406 328340425 -1809815925
REM
CELL 1.54180   50.00000   50.00000   50.00000   90.00000   90.00000   90.00000
LATT -1
SFAC C  
C      1  0.4799340000000  0.5415800000000  0.5446850000000 1.0
C      1  0.4815090000000  0.5478210000000  0.4571190000000 1.0
C      1  0.4762090000000  0.4827030000000  0.4553520000000 1.0
C      1  0.4861910000000  0.4301980000000  0.5021680000000 1.0
C      1  0.4852550000000  0.4757090000000  0.5515310000000 1.0
C      1  0.5177990000000  0.5511270000000  0.5107860000000 1.0
C      1  0.5125410000000  0.5387400000000  0.4575160000000 1.0
C      1  0.5209320000000  0.4732500000000  0.4604080000000 1.0
C      1  0.5150370000000  0.4439920000000  0.5154800000000 1.0
C      1  0.5240810000000  0.4998230000000  0.5530640000000 1.0
C      1  0.5044550000000  0.5349550000000  0.4877030000000 1.0
C      1  0.5144620000000  0.5047970000000  0.4581770000000 1.0
C      1  0.5099280000000  0.4627030000000  0.4875410000000 1.0
C      1  0.5185150000000  0.4760300000000  0.5291120000000 1.0
C      1  0.5145330000000  0.5252690000000  0.5326300000000 1.0
C      1  0.4814100000000  0.5348900000000  0.5127190000000 1.0
C      1  0.4818380000000  0.5141800000000  0.4620790000000 1.0
C      1  0.4835690000000  0.4805950000000  0.4865640000000 1.0
C      1  0.4885660000000  0.4734810000000  0.5194370000000 1.0
C      1  0.4866180000000  0.5085790000000  0.5427020000000 1.0
C      1  0.5384640000000  0.3973500000000  0.4709870000000 1.0
C      1  0.5522470000000  0.4274870000000  0.5751360000000 1.0
C      1  0.5496760000000  0.5590970000000  0.5870990000000 1.0
C      1  0.5433050000000  0.6060820000000  0.4811600000000 1.0
C      1  0.5424490000000  0.5069410000000  0.4016810000000 1.0
C      1  0.4635980000000  0.3997020000000  0.4731830000000 1.0
C      1  0.4668990000000  0.4332860000000  0.5860790000000 1.0
C      1  0.4696040000000  0.5539270000000  0.5849570000000 1.0
C      1  0.4332230000000  0.5985840000000  0.4630430000000 1.0
C      1  0.4601240000000  0.5067790000000  0.3874410000000 1.0
C      1  0.5588330000000  0.5300040000000  0.4383940000000 1.0
C      1  0.5671520000000  0.4503470000000  0.4439180000000 1.0
C      1  0.5680620000000  0.4322070000000  0.5240290000000 1.0
C      1  0.5611650000000  0.5054780000000  0.5751140000000 1.0
C      1  0.5664310000000  0.5665390000000  0.5167440000000 1.0
C      1  0.4402020000000  0.5431370000000  0.4374260000000 1.0
C      1  0.4334660000000  0.4600410000000  0.4459820000000 1.0
C      1  0.4416060000000  0.4276340000000  0.5260670000000 1.0
C      1  0.4293220000000  0.4977270000000  0.5695420000000 1.0
C      1  0.4381000000000  0.5633270000000  0.5133040000000 1.0
C      1  0.4567540000000  0.4677280000000  0.5132620000000 1.0
C      1  0.4576750000000  0.4957400000000  0.5308500000000 1.0
C      1  0.4517500000000  0.5217870000000  0.5146680000000 1.0
C      1  0.4575090000000  0.5277150000000  0.4816510000000 1.0
C      1  0.4459520000000  0.5004010000000  0.4730320000000 1.0
C      1  0.5436580000000  0.4727240000000  0.5064500000000 1.0
C      1  0.5544030000000  0.4929870000000  0.5280160000000 1.0
C      1  0.5463850000000  0.5228680000000  0.5252750000000 1.0
C      1  0.5415570000000  0.5154460000000  0.4712530000000 1.0
C      1  0.5574030000000  0.4886590000000  0.4837810000000 1.0
C      1  0.5915750000000  0.5077290000000  0.5646920000000 1.0
C      1  0.5904520000000  0.5565240000000  0.5032730000000 1.0
C      1  0.5868380000000  0.5193400000000  0.4545090000000 1.0
C      1  0.5848950000000  0.4630770000000  0.4696970000000 1.0
C      1  0.5911290000000  0.4482490000000  0.5248430000000 1.0
C      1  0.4079540000000  0.5103030000000  0.5573270000000 1.0
C      1  0.4134700000000  0.5469200000000  0.5038330000000 1.0
C      1  0.4184530000000  0.5245420000000  0.4338170000000 1.0
C      1  0.4130750000000  0.4622400000000  0.4651360000000 1.0
C      1  0.4170070000000  0.4392440000000  0.5322080000000 1.0
C      1  0.5855790000000  0.5599040000000  0.4756010000000 1.0
C      1  0.5802290000000  0.4962250000000  0.4386180000000 1.0
C      1  0.5738120000000  0.4383670000000  0.4810910000000 1.0
C      1  0.5917970000000  0.4697530000000  0.5500210000000 1.0
C      1  0.5929800000000  0.5346920000000  0.5471370000000 1.0
C      1  0.4134130000000  0.5399720000000  0.4771680000000 1.0
C      1  0.4283150000000  0.5011790000000  0.4227510000000 1.0
C      1  0.4219510000000  0.4501250000000  0.4915470000000 1.0
C      1  0.4145320000000  0.4661920000000  0.5362360000000 1.0
C      1  0.4140810000000  0.5382930000000  0.5491890000000 1.0
C      1  0.4702330000000  0.4660680000000  0.5934010000000 1.0
C      1  0.4775670000000  0.5887010000000  0.5494640000000 1.0
C      1  0.4787540000000  0.5857750000000  0.4425120000000 1.0
C      1  0.4771650000000  0.4841970000000  0.4157010000000 1.0
C      1  0.4666740000000  0.3933480000000  0.5050480000000 1.0
C      1  0.5184780000000  0.4663930000000  0.5887100000000 1.0
C      1  0.5223410000000  0.5818930000000  0.5475080000000 1.0
C      1  0.5259120000000  0.5812040000000  0.4447580000000 1.0
C      1  0.5158890000000  0.4778590000000  0.4082380000000 1.0
C      1  0.5245960000000  0.3923550000000  0.5175310000000 1.0
C      1  0.5905730000000  0.5109650000000  0.4844740000000 1.0
C      1  0.5979850000000  0.4811070000000  0.4861630000000 1.0
C      1  0.6039150000000  0.4732390000000  0.5123480000000 1.0
C      1  0.6023470000000  0.4983980000000  0.5337930000000 1.0
C      1  0.5967790000000  0.5263720000000  0.5141600000000 1.0
C      1  0.4026060000000  0.5200640000000  0.4590790000000 1.0
C      1  0.3998180000000  0.4923620000000  0.4689390000000 1.0
C      1  0.4071150000000  0.4804020000000  0.4999350000000 1.0
C      1  0.3984500000000  0.4950090000000  0.5279170000000 1.0
C      1  0.4025700000000  0.5286640000000  0.5226310000000 1.0
C      1  0.4935880000000  0.4008990000000  0.4856820000000 1.0
C      1  0.4915120000000  0.4460200000000  0.5661070000000 1.0
C      1  0.4913270000000  0.5637060000000  0.5649650000000 1.0
C      1  0.4852960000000  0.5769570000000  0.4742360000000 1.0
C      1  0.4805610000000  0.5175520000000  0.4098560000000 1.0
C      1  0.5202570000000  0.3901240000000  0.4895700000000 1.0
C      1  0.5220670000000  0.4406750000000  0.5694010000000 1.0
C      1  0.5219930000000  0.5575940000000  0.5698560000000 1.0
C      1  0.5181670000000  0.5835830000000  0.4768950000000 1.0
C      1  0.5111100000000  0.5112520000000  0.4089090000000 1.0
C      1  0.4811190000000  0.4571360000000  0.4359190000000 1.0
C      1  0.4780020000000  0.4116520000000  0.5294630000000 1.0
C      1  0.4772680000000  0.4943320000000  0.5788440000000 1.0
C      1  0.4839160000000  0.5882740000000  0.5225220000000 1.0
C      1  0.4880890000000  0.5676640000000  0.4232580000000 1.0
C      1  0.5106200000000  0.4566960000000  0.4255440000000 1.0
C      1  0.5104680000000  0.4129800000000  0.5286740000000 1.0
C      1  0.5096490000000  0.4908100000000  0.5791100000000 1.0
C      1  0.5103950000000  0.5790290000000  0.5228880000000 1.0
C      1  0.5157570000000  0.5635950000000  0.4264430000000 1.0
C      1  0.5386870000000  0.4392170000000  0.5396570000000 1.0
C      1  0.5386750000000  0.5285070000000  0.5641620000000 1.0
C      1  0.5409810000000  0.5705550000000  0.4987440000000 1.0
C      1  0.5279610000000  0.5330400000000  0.4282450000000 1.0
C      1  0.5334120000000  0.4464070000000  0.4454060000000 1.0
C      1  0.4665680000000  0.4356510000000  0.5463060000000 1.0
C      1  0.4513260000000  0.5109720000000  0.5795770000000 1.0
C      1  0.4637280000000  0.5815610000000  0.5001530000000 1.0
C      1  0.4702660000000  0.5414000000000  0.4256540000000 1.0
C      1  0.4544800000000  0.4419210000000  0.4454720000000 1.0
C      1  0.5569230000000  0.5772530000000  0.4694690000000 1.0
C      1  0.5566710000000  0.4932240000000  0.4189880000000 1.0
C      1  0.5440780000000  0.4272820000000  0.4688730000000 1.0
C      1  0.5641400000000  0.4513000000000  0.5587090000000 1.0
C      1  0.5686890000000  0.5440090000000  0.5690630000000 1.0
C      1  0.4454930000000  0.5782510000000  0.4738930000000 1.0
C      1  0.4356890000000  0.4977700000000  0.3960640000000 1.0
C      1  0.4545620000000  0.4250840000000  0.4672420000000 1.0
C      1  0.4530770000000  0.4569160000000  0.5659010000000 1.0
C      1  0.4519490000000  0.5374820000000  0.5729520000000 1.0
C      1  0.4539390000000  0.4397840000000  0.4968020000000 1.0
C      1  0.4388080000000  0.4770730000000  0.5507590000000 1.0
C      1  0.4463310000000  0.5440020000000  0.5400460000000 1.0
C      1  0.4407140000000  0.5498270000000  0.4669210000000 1.0
C      1  0.4446890000000  0.4872010000000  0.4434070000000 1.0
C      1  0.5452200000000  0.4404230000000  0.5002220000000 1.0
C      1  0.5622020000000  0.4829840000000  0.5543030000000 1.0
C      1  0.5627880000000  0.5450960000000  0.5369070000000 1.0
C      1  0.5583990000000  0.5438960000000  0.4673470000000 1.0
C      1  0.5533730000000  0.4803250000000  0.4521340000000 1.0
C      1  0.5611700000000  0.5183490000000  0.4979880000000 1.0
C      1  0.4373340000000  0.4861650000000  0.4979630000000 1.0
C      1  0.4927660000000  0.5073070000000  0.4996290000000 1.0
END
