TITL C-2622967-6265-14 0.0010159974363331 125000 -1083.16599782981 0 0 195 (C1) n - 1
REM
REM in /nfs/bkarasulu/CARBON/AIRSS/Generating-Clusters/AIREBO/with-SteepDescent/Higher-Symm/SD-CG/HFTN-CG
REM
REM
REM
REM
REM
REM ./C.cell (b20cbc046b6831c77cfcea5457e17084)
REM
REM compiler GCC version 9.2.1 20190827 (Red Hat 9.2.1-1)
REM options -cpp -mtune=generic -march=x86-64 -g -O0 -fpre-include=/usr/include/finclude/math-vector-fortran.h
REM seed 984291166 1887228974 -1517991425 -1138276671 -126941493 1933624887 724102852 477238155 1018868722 1550293865 -522980641 714768996 -2101179428 -407037556 545245904 2138255474 -947649179 600174937 -1534745538 -1154671942 1248071382 549132556 1313182725 983309163 -84135441 1970821981 -171414500 556392890 1022526702 1185336741 -1448123273 -1883345670 -1071960882
REM
CELL 1.54180   50.00000   50.00000   50.00000   90.00000   90.00000   90.00000
LATT -1
SFAC C  
C      1  0.5791190000000  0.4606760000000  0.5681320000000 1.0
C      1  0.5370460000000  0.4722960000000  0.5968440000000 1.0
C      1  0.4767240000000  0.4611520000000  0.6011910000000 1.0
C      1  0.4354550000000  0.4511530000000  0.5640380000000 1.0
C      1  0.3952220000000  0.4625800000000  0.5180810000000 1.0
C      1  0.4093460000000  0.4649640000000  0.4582170000000 1.0
C      1  0.4466890000000  0.4675140000000  0.4173520000000 1.0
C      1  0.4933680000000  0.4642260000000  0.4006240000000 1.0
C      1  0.5500880000000  0.4538530000000  0.4138700000000 1.0
C      1  0.5869810000000  0.4632830000000  0.4560570000000 1.0
C      1  0.6016640000000  0.4636850000000  0.5118050000000 1.0
C      1  0.5931380000000  0.5828660000000  0.5192050000000 1.0
C      1  0.5657710000000  0.5760130000000  0.5614080000000 1.0
C      1  0.5231540000000  0.5811820000000  0.5889360000000 1.0
C      1  0.4708970000000  0.5738520000000  0.5839130000000 1.0
C      1  0.4238590000000  0.5828030000000  0.5581980000000 1.0
C      1  0.4062280000000  0.5819050000000  0.5089210000000 1.0
C      1  0.4145300000000  0.5832660000000  0.4556510000000 1.0
C      1  0.4541060000000  0.5853260000000  0.4155550000000 1.0
C      1  0.5066290000000  0.5847780000000  0.4047790000000 1.0
C      1  0.5561230000000  0.5866800000000  0.4231970000000 1.0
C      1  0.5861110000000  0.5800840000000  0.4645130000000 1.0
C      1  0.5562640000000  0.4665020000000  0.5234860000000 1.0
C      1  0.5319220000000  0.4607200000000  0.5465900000000 1.0
C      1  0.5032890000000  0.4601220000000  0.5599070000000 1.0
C      1  0.4715760000000  0.4681680000000  0.5506330000000 1.0
C      1  0.4502290000000  0.4634470000000  0.5292510000000 1.0
C      1  0.4375590000000  0.4680820000000  0.4993260000000 1.0
C      1  0.4560070000000  0.4786870000000  0.4637230000000 1.0
C      1  0.4878710000000  0.4779490000000  0.4522030000000 1.0
C      1  0.5144140000000  0.4613660000000  0.4484910000000 1.0
C      1  0.5441290000000  0.4653150000000  0.4645790000000 1.0
C      1  0.5565550000000  0.4571520000000  0.4919320000000 1.0
C      1  0.5095390000000  0.5207260000000  0.5415890000000 1.0
C      1  0.4794250000000  0.5159490000000  0.5533460000000 1.0
C      1  0.4576770000000  0.5159800000000  0.5272050000000 1.0
C      1  0.4395510000000  0.5106850000000  0.5012760000000 1.0
C      1  0.4559660000000  0.5086230000000  0.4725100000000 1.0
C      1  0.4739370000000  0.5079460000000  0.4436430000000 1.0
C      1  0.5039880000000  0.5157430000000  0.4575230000000 1.0
C      1  0.5352890000000  0.5154180000000  0.4562690000000 1.0
C      1  0.5494990000000  0.5300230000000  0.4785450000000 1.0
C      1  0.5609030000000  0.5154160000000  0.5068330000000 1.0
C      1  0.5331320000000  0.5186570000000  0.5262190000000 1.0
C      1  0.4161420000000  0.5084850000000  0.5557640000000 1.0
C      1  0.4060100000000  0.5082550000000  0.4962170000000 1.0
C      1  0.4296370000000  0.5119140000000  0.4393290000000 1.0
C      1  0.4738300000000  0.5080180000000  0.4096390000000 1.0
C      1  0.5237140000000  0.5097280000000  0.4077060000000 1.0
C      1  0.5517080000000  0.4920700000000  0.4482960000000 1.0
C      1  0.5883550000000  0.5083910000000  0.4868950000000 1.0
C      1  0.5744110000000  0.4931820000000  0.5287270000000 1.0
C      1  0.5595070000000  0.5158760000000  0.5749460000000 1.0
C      1  0.5102070000000  0.5111780000000  0.5919470000000 1.0
C      1  0.4657440000000  0.4924730000000  0.5689920000000 1.0
C      1  0.5134970000000  0.5370440000000  0.5701170000000 1.0
C      1  0.4742100000000  0.5426730000000  0.5707450000000 1.0
C      1  0.4413740000000  0.5270580000000  0.5549090000000 1.0
C      1  0.4267640000000  0.5374900000000  0.5138240000000 1.0
C      1  0.4335800000000  0.5309570000000  0.4675190000000 1.0
C      1  0.4596330000000  0.5383330000000  0.4383350000000 1.0
C      1  0.5029890000000  0.5291600000000  0.4264730000000 1.0
C      1  0.5371550000000  0.5433430000000  0.4414990000000 1.0
C      1  0.5698450000000  0.5513830000000  0.4664400000000 1.0
C      1  0.5738840000000  0.5457590000000  0.5106320000000 1.0
C      1  0.5618100000000  0.5438660000000  0.5557800000000 1.0
C      1  0.5833060000000  0.4944820000000  0.4566890000000 1.0
C      1  0.6039190000000  0.4941080000000  0.5118540000000 1.0
C      1  0.5768380000000  0.4937730000000  0.5605080000000 1.0
C      1  0.5391310000000  0.5023150000000  0.5983860000000 1.0
C      1  0.4821390000000  0.4923150000000  0.5954910000000 1.0
C      1  0.4329550000000  0.4841060000000  0.5724830000000 1.0
C      1  0.3905110000000  0.4903620000000  0.5188280000000 1.0
C      1  0.4054370000000  0.4910300000000  0.4401210000000 1.0
C      1  0.4441990000000  0.4974660000000  0.4122020000000 1.0
C      1  0.4965580000000  0.4940720000000  0.3942750000000 1.0
C      1  0.5459600000000  0.4865430000000  0.4180600000000 1.0
C      1  0.3843140000000  0.4940090000000  0.4249250000000 1.0
C      1  0.4274860000000  0.5031150000000  0.3870740000000 1.0
C      1  0.4955390000000  0.4989250000000  0.3640020000000 1.0
C      1  0.5613130000000  0.5035430000000  0.3958130000000 1.0
C      1  0.5982920000000  0.5085900000000  0.4341320000000 1.0
C      1  0.6319120000000  0.5042680000000  0.5163480000000 1.0
C      1  0.6060580000000  0.4896710000000  0.5729100000000 1.0
C      1  0.5495330000000  0.5097650000000  0.6264260000000 1.0
C      1  0.4837880000000  0.5098420000000  0.6219260000000 1.0
C      1  0.4226830000000  0.4860520000000  0.6016840000000 1.0
C      1  0.3882750000000  0.5014960000000  0.5432930000000 1.0
C      1  0.5259280000000  0.5959850000000  0.5430700000000 1.0
C      1  0.4970150000000  0.6012800000000  0.5541900000000 1.0
C      1  0.4761430000000  0.5976050000000  0.5375180000000 1.0
C      1  0.4518570000000  0.5962500000000  0.5188280000000 1.0
C      1  0.4484610000000  0.5938890000000  0.4863580000000 1.0
C      1  0.4640140000000  0.5912680000000  0.4584510000000 1.0
C      1  0.4870980000000  0.6053650000000  0.4433050000000 1.0
C      1  0.5171510000000  0.6015960000000  0.4505230000000 1.0
C      1  0.5452510000000  0.6054580000000  0.4656540000000 1.0
C      1  0.5519970000000  0.5978320000000  0.4943810000000 1.0
C      1  0.5509010000000  0.6024080000000  0.5262180000000 1.0
C      1  0.4423940000000  0.4024540000000  0.5246150000000 1.0
C      1  0.4410420000000  0.3989350000000  0.4907790000000 1.0
C      1  0.4454750000000  0.4077910000000  0.4639850000000 1.0
C      1  0.4708440000000  0.4047670000000  0.4414080000000 1.0
C      1  0.5052920000000  0.4029590000000  0.4424870000000 1.0
C      1  0.5341380000000  0.4025210000000  0.4438540000000 1.0
C      1  0.5536610000000  0.4000580000000  0.5075610000000 1.0
C      1  0.5570310000000  0.3928030000000  0.5334910000000 1.0
C      1  0.5488920000000  0.4073510000000  0.5580270000000 1.0
C      1  0.4912220000000  0.3947980000000  0.5455940000000 1.0
C      1  0.4693710000000  0.3894940000000  0.5351880000000 1.0
C      1  0.4167630000000  0.5561980000000  0.5651610000000 1.0
C      1  0.3977140000000  0.5518500000000  0.5102130000000 1.0
C      1  0.4076230000000  0.5562430000000  0.4513840000000 1.0
C      1  0.4517910000000  0.5554500000000  0.4109050000000 1.0
C      1  0.5081820000000  0.5570610000000  0.3987170000000 1.0
C      1  0.5641750000000  0.5595810000000  0.4173060000000 1.0
C      1  0.6081240000000  0.5545680000000  0.4609250000000 1.0
C      1  0.6037040000000  0.5529780000000  0.5227620000000 1.0
C      1  0.5870850000000  0.5466310000000  0.5859510000000 1.0
C      1  0.5295580000000  0.5562180000000  0.6011710000000 1.0
C      1  0.4676030000000  0.5498230000000  0.6077490000000 1.0
C      1  0.4964850000000  0.5895030000000  0.5804430000000 1.0
C      1  0.4453410000000  0.5909370000000  0.5755030000000 1.0
C      1  0.4228160000000  0.5901300000000  0.5309260000000 1.0
C      1  0.4169060000000  0.5899020000000  0.4837050000000 1.0
C      1  0.4373840000000  0.5926400000000  0.4400300000000 1.0
C      1  0.4813460000000  0.5955760000000  0.4160320000000 1.0
C      1  0.5286420000000  0.5935610000000  0.4208180000000 1.0
C      1  0.5667830000000  0.5971280000000  0.4477450000000 1.0
C      1  0.5846110000000  0.5907090000000  0.4936600000000 1.0
C      1  0.5742350000000  0.5905100000000  0.5383620000000 1.0
C      1  0.5416750000000  0.5879450000000  0.5695620000000 1.0
C      1  0.4867290000000  0.4321200000000  0.5588620000000 1.0
C      1  0.4699920000000  0.4294160000000  0.5347500000000 1.0
C      1  0.4457810000000  0.4335340000000  0.5135010000000 1.0
C      1  0.4481060000000  0.4436650000000  0.4811270000000 1.0
C      1  0.4727850000000  0.4502500000000  0.4618410000000 1.0
C      1  0.4893480000000  0.4284400000000  0.4549000000000 1.0
C      1  0.5213710000000  0.4331420000000  0.4652030000000 1.0
C      1  0.5420690000000  0.4085550000000  0.4764760000000 1.0
C      1  0.5458600000000  0.4306890000000  0.5020190000000 1.0
C      1  0.5356450000000  0.4331650000000  0.5313180000000 1.0
C      1  0.5163280000000  0.4160770000000  0.5535330000000 1.0
C      1  0.4460500000000  0.5606340000000  0.4787060000000 1.0
C      1  0.4708250000000  0.5602110000000  0.4565820000000 1.0
C      1  0.4988680000000  0.5535540000000  0.4464120000000 1.0
C      1  0.5234900000000  0.5703280000000  0.4539750000000 1.0
C      1  0.5423930000000  0.5630440000000  0.4772050000000 1.0
C      1  0.5511120000000  0.5667900000000  0.5082670000000 1.0
C      1  0.5413720000000  0.5489200000000  0.5338450000000 1.0
C      1  0.5174410000000  0.5635900000000  0.5490890000000 1.0
C      1  0.4865140000000  0.5605320000000  0.5478770000000 1.0
C      1  0.4596680000000  0.5474100000000  0.5340570000000 1.0
C      1  0.4457930000000  0.5636100000000  0.5118480000000 1.0
C      1  0.3910050000000  0.4534850000000  0.4897230000000 1.0
C      1  0.4248520000000  0.4343290000000  0.4588250000000 1.0
C      1  0.4662590000000  0.4245420000000  0.4144440000000 1.0
C      1  0.5162860000000  0.4424380000000  0.3886750000000 1.0
C      1  0.5481730000000  0.4225160000000  0.4278780000000 1.0
C      1  0.6089160000000  0.4419110000000  0.4659790000000 1.0
C      1  0.6117390000000  0.4401520000000  0.5314170000000 1.0
C      1  0.5641760000000  0.4295050000000  0.5691550000000 1.0
C      1  0.5240260000000  0.4515490000000  0.6175330000000 1.0
C      1  0.4606040000000  0.4347490000000  0.6102260000000 1.0
C      1  0.4264910000000  0.4229220000000  0.5466280000000 1.0
C      1  0.4431880000000  0.5451700000000  0.5837050000000 1.0
C      1  0.4059110000000  0.5370750000000  0.5403840000000 1.0
C      1  0.4030040000000  0.5377230000000  0.4795550000000 1.0
C      1  0.4266670000000  0.5431440000000  0.4302410000000 1.0
C      1  0.4797870000000  0.5397430000000  0.4039800000000 1.0
C      1  0.5365420000000  0.5414440000000  0.4091220000000 1.0
C      1  0.5835550000000  0.5509340000000  0.4372810000000 1.0
C      1  0.6008200000000  0.5399000000000  0.4907250000000 1.0
C      1  0.5940890000000  0.5487060000000  0.5546590000000 1.0
C      1  0.5544660000000  0.5430010000000  0.5948560000000 1.0
C      1  0.4999170000000  0.5413300000000  0.6012530000000 1.0
C      1  0.5880440000000  0.4546520000000  0.4875780000000 1.0
C      1  0.5839690000000  0.4554630000000  0.5379930000000 1.0
C      1  0.5477680000000  0.4579350000000  0.5732230000000 1.0
C      1  0.5065380000000  0.4610210000000  0.5913930000000 1.0
C      1  0.4619010000000  0.4405380000000  0.5783000000000 1.0
C      1  0.4182890000000  0.4531600000000  0.5347490000000 1.0
C      1  0.4132630000000  0.4790020000000  0.4866030000000 1.0
C      1  0.4385970000000  0.4617590000000  0.4446490000000 1.0
C      1  0.4665510000000  0.4508890000000  0.4066000000000 1.0
C      1  0.5183020000000  0.4554320000000  0.4194180000000 1.0
C      1  0.5630200000000  0.4486280000000  0.4433510000000 1.0
C      1  0.4976010000000  0.5422340000000  0.4978840000000 1.0
C      1  0.5037340000000  0.4939290000000  0.5010450000000 1.0
C      1  0.4983990000000  0.5170650000000  0.4865900000000 1.0
C      1  0.4947350000000  0.4412310000000  0.5059410000000 1.0
C      1  0.4972990000000  0.5686770000000  0.4997570000000 1.0
C      1  0.4926940000000  0.3876450000000  0.5027450000000 1.0
C      1  0.4933900000000  0.4136990000000  0.5064410000000 1.0
C      1  0.4986200000000  0.4680200000000  0.5057190000000 1.0
END
