TITL C-2622956-4641-675 -0.000222310787704233 125000 -178.754685968741 0 0 38 (C1) n - 1
REM
REM in /nfs/bkarasulu/CARBON/AIRSS/Generating-Clusters/AIREBO/with-SteepDescent/Higher-Symm/SD-CG/HFTN-CG
REM
REM
REM
REM
REM
REM ./C.cell (b20cbc046b6831c77cfcea5457e17084)
REM
REM compiler GCC version 9.2.1 20190827 (Red Hat 9.2.1-1)
REM options -cpp -mtune=generic -march=x86-64 -g -O0 -fpre-include=/usr/include/finclude/math-vector-fortran.h
REM seed -931365544 -135757923 -122592196 -1268741986 1868012982 419453487 -1672772826 377682627 1958287629 165942512 -664695036 -1021001581 -1799112477 -1432863503 -1403180139 -1365940951 -782135312 -389770654 1545424718 -1163167741 -260462875 -1264222840 -596348772 1533426798 1914678968 343240925 1259102366 1070877242 -1860107707 1008595373 325911904 -1964043340 -226451862
REM
CELL 1.54180   50.00000   50.00000   50.00000   90.00000   90.00000   90.00000
LATT -1
SFAC C  
C      1  0.5080690000000  0.4777010000000  0.5776460000000 1.0
C      1  0.5108290000000  0.4215960000000  0.4904780000000 1.0
C      1  0.5075720000000  0.4874510000000  0.4258060000000 1.0
C      1  0.5113010000000  0.5725620000000  0.4710660000000 1.0
C      1  0.5124480000000  0.5469510000000  0.5360410000000 1.0
C      1  0.4827600000000  0.4720090000000  0.5687580000000 1.0
C      1  0.4835380000000  0.4224090000000  0.4912320000000 1.0
C      1  0.4815810000000  0.4803760000000  0.4291350000000 1.0
C      1  0.4838730000000  0.5723370000000  0.4717730000000 1.0
C      1  0.4867660000000  0.5516580000000  0.5478850000000 1.0
C      1  0.5342040000000  0.5299320000000  0.5450790000000 1.0
C      1  0.5307740000000  0.4744890000000  0.5623700000000 1.0
C      1  0.5311080000000  0.4399840000000  0.4916190000000 1.0
C      1  0.5265900000000  0.5054630000000  0.4329960000000 1.0
C      1  0.5283120000000  0.5524360000000  0.4742450000000 1.0
C      1  0.4667850000000  0.5383230000000  0.5336250000000 1.0
C      1  0.4668380000000  0.4736090000000  0.5469550000000 1.0
C      1  0.4636060000000  0.4395100000000  0.4834610000000 1.0
C      1  0.4630930000000  0.4735580000000  0.4479690000000 1.0
C      1  0.4665450000000  0.5558000000000  0.4850300000000 1.0
C      1  0.4772070000000  0.5304740000000  0.5022170000000 1.0
C      1  0.4778970000000  0.5047100000000  0.5244000000000 1.0
C      1  0.4719210000000  0.4755800000000  0.5140120000000 1.0
C      1  0.4712720000000  0.4725300000000  0.4808130000000 1.0
C      1  0.4783400000000  0.5057470000000  0.4788920000000 1.0
C      1  0.5329140000000  0.5227390000000  0.4928670000000 1.0
C      1  0.5328610000000  0.5053410000000  0.5221010000000 1.0
C      1  0.5261250000000  0.4734150000000  0.5317840000000 1.0
C      1  0.5242230000000  0.4711660000000  0.4995660000000 1.0
C      1  0.5253950000000  0.5227310000000  0.4596910000000 1.0
C      1  0.4971780000000  0.4582930000000  0.5258660000000 1.0
C      1  0.5028580000000  0.4622730000000  0.4746980000000 1.0
C      1  0.5084650000000  0.5405030000000  0.5084620000000 1.0
C      1  0.5034700000000  0.5054540000000  0.5387230000000 1.0
C      1  0.4940260000000  0.5177920000000  0.4526060000000 1.0
C      1  0.4486110000000  0.5127660000000  0.4718250000000 1.0
C      1  0.5637150000000  0.5234520000000  0.4906140000000 1.0
C      1  0.5097550000000  0.4980810000000  0.4894340000000 1.0
END
