TITL C-2622955-8511-673 0.00269791541467655 125000 -767.059042813941 0 0 124 (C1) n - 1
REM
REM in /nfs/bkarasulu/CARBON/AIRSS/Generating-Clusters/AIREBO/with-SteepDescent/Higher-Symm/SD-CG/HFTN-CG
REM
REM
REM
REM
REM
REM ./C.cell (b20cbc046b6831c77cfcea5457e17084)
REM
REM compiler GCC version 9.2.1 20190827 (Red Hat 9.2.1-1)
REM options -cpp -mtune=generic -march=x86-64 -g -O0 -fpre-include=/usr/include/finclude/math-vector-fortran.h
REM seed -147434963 542257087 794921962 -1818694165 -1500279801 -1214677500 -764204574 -118343041 64667844 1423362458 -1578794529 1330402772 1902628063 -2009103235 -194275076 1660821101 -309534197 -109320649 741821765 -732263448 1891878280 -353494381 -634047988 386477877 -473218845 -658504050 13592240 -1949377141 2030327820 1528373662 -525756882 -1052474626 1781918123
REM
CELL 1.54180   50.00000   50.00000   50.00000   90.00000   90.00000   90.00000
LATT -1
SFAC C  
C      1  0.5668100000000  0.5456130000000  0.5264670000000 1.0
C      1  0.5484740000000  0.5270820000000  0.5666700000000 1.0
C      1  0.5277860000000  0.5640760000000  0.5453650000000 1.0
C      1  0.4326900000000  0.4509480000000  0.5290680000000 1.0
C      1  0.5658530000000  0.4530980000000  0.4732640000000 1.0
C      1  0.4263860000000  0.5492890000000  0.4722540000000 1.0
C      1  0.4524020000000  0.4710810000000  0.5686790000000 1.0
C      1  0.5471550000000  0.4724380000000  0.4338890000000 1.0
C      1  0.4523470000000  0.5280850000000  0.4320440000000 1.0
C      1  0.4714120000000  0.4316940000000  0.5492720000000 1.0
C      1  0.5275880000000  0.4338150000000  0.4536450000000 1.0
C      1  0.4718820000000  0.5723560000000  0.4501320000000 1.0
C      1  0.5473490000000  0.5651560000000  0.5259820000000 1.0
C      1  0.5282580000000  0.5457590000000  0.5660050000000 1.0
C      1  0.5680620000000  0.5270350000000  0.5470990000000 1.0
C      1  0.4516150000000  0.4303680000000  0.5294440000000 1.0
C      1  0.4451420000000  0.5779510000000  0.4711190000000 1.0
C      1  0.5468210000000  0.4330640000000  0.4735720000000 1.0
C      1  0.4722500000000  0.4519120000000  0.5685530000000 1.0
C      1  0.4718220000000  0.5478690000000  0.4302990000000 1.0
C      1  0.5276760000000  0.4532360000000  0.4340040000000 1.0
C      1  0.4333960000000  0.4705600000000  0.5487130000000 1.0
C      1  0.4301010000000  0.5277340000000  0.4491140000000 1.0
C      1  0.5670500000000  0.4718860000000  0.4528870000000 1.0
C      1  0.4529900000000  0.5194450000000  0.5006950000000 1.0
C      1  0.5252950000000  0.5004080000000  0.4523150000000 1.0
C      1  0.4962430000000  0.4553910000000  0.5289780000000 1.0
C      1  0.5501190000000  0.4794680000000  0.4988820000000 1.0
C      1  0.4558990000000  0.4741040000000  0.4930930000000 1.0
C      1  0.5517850000000  0.5190180000000  0.5006630000000 1.0
C      1  0.4763850000000  0.5001550000000  0.4518040000000 1.0
C      1  0.5268910000000  0.4991720000000  0.5478850000000 1.0
C      1  0.4749140000000  0.4989050000000  0.5508230000000 1.0
C      1  0.4965900000000  0.5410850000000  0.5240110000000 1.0
C      1  0.4988480000000  0.5481000000000  0.4727000000000 1.0
C      1  0.5004380000000  0.4559780000000  0.4728760000000 1.0
C      1  0.5151460000000  0.4427870000000  0.5077410000000 1.0
C      1  0.5006470000000  0.5239950000000  0.4521800000000 1.0
C      1  0.4545540000000  0.5005100000000  0.5259100000000 1.0
C      1  0.4760010000000  0.5443210000000  0.4976110000000 1.0
C      1  0.4720120000000  0.4487210000000  0.4843340000000 1.0
C      1  0.5192150000000  0.5561720000000  0.4950540000000 1.0
C      1  0.5002990000000  0.4774530000000  0.4502150000000 1.0
C      1  0.5000550000000  0.5189120000000  0.5484410000000 1.0
C      1  0.5003850000000  0.4789770000000  0.5505700000000 1.0
C      1  0.5491730000000  0.4985000000000  0.5264660000000 1.0
C      1  0.5487940000000  0.5007360000000  0.4736110000000 1.0
C      1  0.4539130000000  0.4992140000000  0.4746050000000 1.0
C      1  0.5233330000000  0.3939350000000  0.5077810000000 1.0
C      1  0.3971000000000  0.5026600000000  0.5241870000000 1.0
C      1  0.5061130000000  0.5232130000000  0.3953780000000 1.0
C      1  0.4777340000000  0.6013420000000  0.5059390000000 1.0
C      1  0.5262560000000  0.6065880000000  0.4923950000000 1.0
C      1  0.4761990000000  0.3953070000000  0.4941590000000 1.0
C      1  0.6055460000000  0.4931920000000  0.5240350000000 1.0
C      1  0.3977070000000  0.4932200000000  0.4760580000000 1.0
C      1  0.6054760000000  0.5050540000000  0.4751660000000 1.0
C      1  0.4947480000000  0.4769670000000  0.3946370000000 1.0
C      1  0.5068710000000  0.4767760000000  0.6052990000000 1.0
C      1  0.4952700000000  0.5222660000000  0.6042900000000 1.0
C      1  0.3969950000000  0.5200560000000  0.5056950000000 1.0
C      1  0.5045190000000  0.3957340000000  0.5249890000000 1.0
C      1  0.5243660000000  0.5055280000000  0.3953600000000 1.0
C      1  0.6044340000000  0.4756930000000  0.5056110000000 1.0
C      1  0.6051350000000  0.5227390000000  0.4934610000000 1.0
C      1  0.3991560000000  0.4759390000000  0.4945110000000 1.0
C      1  0.4959430000000  0.5999660000000  0.5235060000000 1.0
C      1  0.4951170000000  0.3970360000000  0.4773220000000 1.0
C      1  0.5071950000000  0.6058240000000  0.4754600000000 1.0
C      1  0.4765380000000  0.4947230000000  0.3949690000000 1.0
C      1  0.4763140000000  0.5053850000000  0.6059420000000 1.0
C      1  0.5253800000000  0.4942210000000  0.6050350000000 1.0
C      1  0.4724530000000  0.5452670000000  0.5663240000000 1.0
C      1  0.5488880000000  0.5669880000000  0.4707500000000 1.0
C      1  0.5676850000000  0.4706580000000  0.5483140000000 1.0
C      1  0.5279030000000  0.4528920000000  0.5666410000000 1.0
C      1  0.4732160000000  0.4530770000000  0.4329510000000 1.0
C      1  0.5278520000000  0.5468070000000  0.4338040000000 1.0
C      1  0.4497280000000  0.4275530000000  0.4697930000000 1.0
C      1  0.5476200000000  0.4328490000000  0.5286070000000 1.0
C      1  0.4525100000000  0.5645900000000  0.5276420000000 1.0
C      1  0.4336620000000  0.5265680000000  0.5478420000000 1.0
C      1  0.5675670000000  0.5282030000000  0.4515120000000 1.0
C      1  0.4341120000000  0.4719740000000  0.4517160000000 1.0
C      1  0.5481160000000  0.4712330000000  0.5669990000000 1.0
C      1  0.5673240000000  0.5471050000000  0.4714100000000 1.0
C      1  0.4722920000000  0.5634630000000  0.5465150000000 1.0
C      1  0.4521160000000  0.5270290000000  0.5676960000000 1.0
C      1  0.4540840000000  0.4723170000000  0.4337130000000 1.0
C      1  0.5474400000000  0.5278760000000  0.4335340000000 1.0
C      1  0.4311440000000  0.4519830000000  0.4708760000000 1.0
C      1  0.4336080000000  0.5453260000000  0.5277700000000 1.0
C      1  0.5666400000000  0.4520280000000  0.5281870000000 1.0
C      1  0.5276480000000  0.4339620000000  0.5475040000000 1.0
C      1  0.5283340000000  0.5663440000000  0.4523280000000 1.0
C      1  0.4729710000000  0.4306480000000  0.4487360000000 1.0
C      1  0.4996660000000  0.4236570000000  0.4622500000000 1.0
C      1  0.4266260000000  0.4616410000000  0.5012880000000 1.0
C      1  0.4613130000000  0.4999170000000  0.4213200000000 1.0
C      1  0.5008960000000  0.5795870000000  0.4599790000000 1.0
C      1  0.4999010000000  0.5725220000000  0.5365880000000 1.0
C      1  0.4999010000000  0.4231000000000  0.5390420000000 1.0
C      1  0.5785760000000  0.5375860000000  0.4986750000000 1.0
C      1  0.4231930000000  0.5358190000000  0.5001260000000 1.0
C      1  0.5775900000000  0.4612310000000  0.5008670000000 1.0
C      1  0.5397210000000  0.5003760000000  0.4215150000000 1.0
C      1  0.4594770000000  0.4995500000000  0.5807260000000 1.0
C      1  0.5409800000000  0.4990780000000  0.5788460000000 1.0
C      1  0.4232720000000  0.4996350000000  0.4600210000000 1.0
C      1  0.4603830000000  0.4216440000000  0.5015360000000 1.0
C      1  0.5003600000000  0.4613110000000  0.4205310000000 1.0
C      1  0.5795770000000  0.5002410000000  0.4591620000000 1.0
C      1  0.5801090000000  0.4984140000000  0.5405900000000 1.0
C      1  0.4234340000000  0.4984190000000  0.5394640000000 1.0
C      1  0.5409810000000  0.5799170000000  0.4980780000000 1.0
C      1  0.5381320000000  0.4206700000000  0.5013220000000 1.0
C      1  0.4615420000000  0.5753450000000  0.5000180000000 1.0
C      1  0.5004730000000  0.5386660000000  0.4215020000000 1.0
C      1  0.5007270000000  0.4613290000000  0.5792660000000 1.0
C      1  0.5002960000000  0.5366450000000  0.5773380000000 1.0
C      1  0.4591830000000  0.5474170000000  0.4682240000000 1.0
C      1  0.4767290000000  0.4770000000000  0.5175500000000 1.0
C      1  0.5232820000000  0.4682580000000  0.4913150000000 1.0
C      1  0.5256710000000  0.5301990000000  0.5116850000000 1.0
END
