TITL C-2622956-4641-663 0.00058153252758055 125000 -864.232102283175 0 0 161 (C1) n - 1
REM
REM in /nfs/bkarasulu/CARBON/AIRSS/Generating-Clusters/AIREBO/with-SteepDescent/Higher-Symm/SD-CG/HFTN-CG
REM
REM
REM
REM
REM
REM ./C.cell (b20cbc046b6831c77cfcea5457e17084)
REM
REM compiler GCC version 9.2.1 20190827 (Red Hat 9.2.1-1)
REM options -cpp -mtune=generic -march=x86-64 -g -O0 -fpre-include=/usr/include/finclude/math-vector-fortran.h
REM seed -1717464320 473548081 -2020180595 1505833395 2118681371 1324387019 1056439267 1584705992 69845849 1907391190 592316444 -532737196 -245146332 -1664112838 -590310361 1514733692 1022173330 561326517 -1112561723 -1474137891 -764823909 580040029 -1137367562 -506623987 -611605097 1876932695 -1680583380 610740171 -1968762617 885502736 987140727 -1121252448 11258734
REM
CELL 1.54180   50.00000   50.00000   50.00000   90.00000   90.00000   90.00000
LATT -1
SFAC C  
C      1  0.4339000000000  0.5404860000000  0.6011960000000 1.0
C      1  0.4844080000000  0.3981710000000  0.5779820000000 1.0
C      1  0.5777780000000  0.5399350000000  0.5738990000000 1.0
C      1  0.5900130000000  0.5612940000000  0.4297650000000 1.0
C      1  0.5021870000000  0.4178710000000  0.4180100000000 1.0
C      1  0.4197480000000  0.5424570000000  0.4189470000000 1.0
C      1  0.5595630000000  0.4980980000000  0.6001160000000 1.0
C      1  0.4951750000000  0.5628270000000  0.5917470000000 1.0
C      1  0.4634340000000  0.5012410000000  0.5952630000000 1.0
C      1  0.4427910000000  0.4744620000000  0.4149970000000 1.0
C      1  0.4846590000000  0.5447780000000  0.3919520000000 1.0
C      1  0.5441990000000  0.4641370000000  0.4181180000000 1.0
C      1  0.6018280000000  0.5461280000000  0.4459390000000 1.0
C      1  0.4212500000000  0.5628710000000  0.4365710000000 1.0
C      1  0.4980560000000  0.4036960000000  0.4408990000000 1.0
C      1  0.4026270000000  0.5445050000000  0.5470420000000 1.0
C      1  0.5701780000000  0.5597080000000  0.5604210000000 1.0
C      1  0.4866690000000  0.3895010000000  0.5545780000000 1.0
C      1  0.5449340000000  0.5533610000000  0.5385410000000 1.0
C      1  0.4231910000000  0.5222040000000  0.5358770000000 1.0
C      1  0.5016050000000  0.4022060000000  0.5315570000000 1.0
C      1  0.4428140000000  0.5558550000000  0.4591220000000 1.0
C      1  0.5861100000000  0.5209260000000  0.4625000000000 1.0
C      1  0.4913570000000  0.4254070000000  0.4652720000000 1.0
C      1  0.5266430000000  0.5650740000000  0.4175060000000 1.0
C      1  0.4238400000000  0.5013090000000  0.4454690000000 1.0
C      1  0.5488870000000  0.4323110000000  0.4231000000000 1.0
C      1  0.4695580000000  0.5693300000000  0.5734580000000 1.0
C      1  0.5671720000000  0.4844480000000  0.5702710000000 1.0
C      1  0.4569030000000  0.4477990000000  0.5815220000000 1.0
C      1  0.5572690000000  0.4356140000000  0.4862030000000 1.0
C      1  0.5223840000000  0.5922620000000  0.4839130000000 1.0
C      1  0.4094830000000  0.4678230000000  0.4920850000000 1.0
C      1  0.4417780000000  0.4336520000000  0.5135770000000 1.0
C      1  0.4818930000000  0.5913920000000  0.5142740000000 1.0
C      1  0.5823950000000  0.4737100000000  0.5050870000000 1.0
C      1  0.5492730000000  0.4471630000000  0.5368150000000 1.0
C      1  0.5227330000000  0.5768950000000  0.5494400000000 1.0
C      1  0.4330520000000  0.4764340000000  0.5433300000000 1.0
C      1  0.4491960000000  0.4465850000000  0.4638760000000 1.0
C      1  0.4810430000000  0.5756290000000  0.4776360000000 1.0
C      1  0.5896900000000  0.4897960000000  0.4492930000000 1.0
C      1  0.4744150000000  0.6066740000000  0.4853130000000 1.0
C      1  0.4345180000000  0.4190600000000  0.4887930000000 1.0
C      1  0.5937930000000  0.4710110000000  0.4767770000000 1.0
C      1  0.5319120000000  0.6027120000000  0.5097790000000 1.0
C      1  0.5606600000000  0.4242160000000  0.5148770000000 1.0
C      1  0.4007850000000  0.4692250000000  0.5210660000000 1.0
C      1  0.5596450000000  0.5463920000000  0.4885660000000 1.0
C      1  0.4373480000000  0.5177540000000  0.4958120000000 1.0
C      1  0.5181110000000  0.4179080000000  0.5063140000000 1.0
C      1  0.4535920000000  0.5422740000000  0.5043440000000 1.0
C      1  0.5767130000000  0.5156930000000  0.5179020000000 1.0
C      1  0.4874980000000  0.4278220000000  0.5140260000000 1.0
C      1  0.5013590000000  0.6143240000000  0.4699830000000 1.0
C      1  0.4188670000000  0.4409130000000  0.4735430000000 1.0
C      1  0.5866120000000  0.4430840000000  0.4709250000000 1.0
C      1  0.5115720000000  0.5970360000000  0.5297300000000 1.0
C      1  0.5852240000000  0.4433370000000  0.5200740000000 1.0
C      1  0.4205980000000  0.4489530000000  0.5336760000000 1.0
C      1  0.4661970000000  0.4945220000000  0.5561070000000 1.0
C      1  0.5146110000000  0.4804830000000  0.5591230000000 1.0
C      1  0.5003840000000  0.5351480000000  0.5431720000000 1.0
C      1  0.5304580000000  0.4866170000000  0.4387820000000 1.0
C      1  0.4726940000000  0.4781980000000  0.4582040000000 1.0
C      1  0.4957480000000  0.5288040000000  0.4442170000000 1.0
C      1  0.4308760000000  0.4178780000000  0.5417410000000 1.0
C      1  0.5964310000000  0.4686980000000  0.5345370000000 1.0
C      1  0.4830250000000  0.6130320000000  0.5387290000000 1.0
C      1  0.5707080000000  0.4182950000000  0.4610460000000 1.0
C      1  0.3893860000000  0.4560330000000  0.4672160000000 1.0
C      1  0.5265560000000  0.6027010000000  0.4535370000000 1.0
C      1  0.4467950000000  0.4732420000000  0.5725750000000 1.0
C      1  0.5454260000000  0.4663120000000  0.5615030000000 1.0
C      1  0.4982390000000  0.5622930000000  0.5588540000000 1.0
C      1  0.5642970000000  0.4848940000000  0.4339050000000 1.0
C      1  0.4413310000000  0.4751610000000  0.4471740000000 1.0
C      1  0.5031280000000  0.5483450000000  0.4178540000000 1.0
C      1  0.5567610000000  0.6011130000000  0.5195750000000 1.0
C      1  0.3957620000000  0.4901240000000  0.5393930000000 1.0
C      1  0.5498800000000  0.3967960000000  0.5216000000000 1.0
C      1  0.4517850000000  0.5972030000000  0.4617210000000 1.0
C      1  0.6205340000000  0.4885590000000  0.4747200000000 1.0
C      1  0.4497120000000  0.3993120000000  0.4796040000000 1.0
C      1  0.5125430000000  0.5051740000000  0.4742900000000 1.0
C      1  0.5158040000000  0.5377850000000  0.4685080000000 1.0
C      1  0.4881240000000  0.4876270000000  0.4841170000000 1.0
C      1  0.4779760000000  0.4785650000000  0.5285630000000 1.0
C      1  0.4969820000000  0.5256260000000  0.5113330000000 1.0
C      1  0.5089130000000  0.4881440000000  0.5181560000000 1.0
C      1  0.3683710000000  0.5228160000000  0.5129070000000 1.0
C      1  0.5220810000000  0.3570910000000  0.5186360000000 1.0
C      1  0.5778450000000  0.5641590000000  0.5002620000000 1.0
C      1  0.6299720000000  0.5354030000000  0.4881510000000 1.0
C      1  0.4912570000000  0.3732470000000  0.4738850000000 1.0
C      1  0.4018860000000  0.6011270000000  0.4650620000000 1.0
C      1  0.4552410000000  0.5049520000000  0.4698770000000 1.0
C      1  0.5201650000000  0.4733730000000  0.4649740000000 1.0
C      1  0.5462250000000  0.5404330000000  0.4653060000000 1.0
C      1  0.5350300000000  0.4958800000000  0.5366510000000 1.0
C      1  0.4861240000000  0.4476230000000  0.5384900000000 1.0
C      1  0.4680410000000  0.5408360000000  0.5328480000000 1.0
C      1  0.5632010000000  0.4139820000000  0.4350790000000 1.0
C      1  0.5374760000000  0.5893000000000  0.4339000000000 1.0
C      1  0.4159720000000  0.5117800000000  0.4700290000000 1.0
C      1  0.4688680000000  0.4295310000000  0.5584400000000 1.0
C      1  0.4391070000000  0.5785050000000  0.5623780000000 1.0
C      1  0.5946070000000  0.4780780000000  0.5590060000000 1.0
C      1  0.4512910000000  0.5246800000000  0.5526850000000 1.0
C      1  0.5009830000000  0.4503760000000  0.5685010000000 1.0
C      1  0.5319610000000  0.5256210000000  0.5533950000000 1.0
C      1  0.5634190000000  0.5334170000000  0.4404400000000 1.0
C      1  0.4962430000000  0.4549440000000  0.4490380000000 1.0
C      1  0.4612900000000  0.5299130000000  0.4471720000000 1.0
C      1  0.4352060000000  0.5203100000000  0.4275890000000 1.0
C      1  0.5183500000000  0.4442790000000  0.4254930000000 1.0
C      1  0.5585790000000  0.5640110000000  0.4281710000000 1.0
C      1  0.5593560000000  0.5162490000000  0.5712570000000 1.0
C      1  0.4841400000000  0.4286390000000  0.5886480000000 1.0
C      1  0.4459200000000  0.5471330000000  0.5739320000000 1.0
C      1  0.4783650000000  0.4456440000000  0.4216360000000 1.0
C      1  0.5568770000000  0.5121610000000  0.4208400000000 1.0
C      1  0.4715790000000  0.5560180000000  0.4279530000000 1.0
C      1  0.5284970000000  0.4550130000000  0.5862210000000 1.0
C      1  0.4302900000000  0.4907170000000  0.5932600000000 1.0
C      1  0.5256630000000  0.5300530000000  0.5865240000000 1.0
C      1  0.4398530000000  0.4805270000000  0.4879110000000 1.0
C      1  0.5392260000000  0.4633350000000  0.4864370000000 1.0
C      1  0.5082550000000  0.5630700000000  0.4849980000000 1.0
C      1  0.5516250000000  0.4861030000000  0.5085220000000 1.0
C      1  0.4560770000000  0.4631390000000  0.5079250000000 1.0
C      1  0.4890470000000  0.5586570000000  0.5129010000000 1.0
C      1  0.4438700000000  0.4987250000000  0.5232250000000 1.0
C      1  0.5281300000000  0.4472240000000  0.5124590000000 1.0
C      1  0.5476100000000  0.5315210000000  0.5125980000000 1.0
C      1  0.5691000000000  0.5076390000000  0.4887990000000 1.0
C      1  0.4739520000000  0.4441840000000  0.4874620000000 1.0
C      1  0.4583450000000  0.5578790000000  0.4840080000000 1.0
C      1  0.4237450000000  0.5868450000000  0.4575060000000 1.0
C      1  0.4768230000000  0.3964850000000  0.4737690000000 1.0
C      1  0.6164310000000  0.5154400000000  0.4754910000000 1.0
C      1  0.5661440000000  0.5751830000000  0.5233300000000 1.0
C      1  0.5267790000000  0.3834830000000  0.5241380000000 1.0
C      1  0.3899920000000  0.5185410000000  0.5290910000000 1.0
C      1  0.5371880000000  0.5912300000000  0.5727390000000 1.0
C      1  0.4107640000000  0.4886410000000  0.5664980000000 1.0
C      1  0.5601420000000  0.4292260000000  0.5619650000000 1.0
C      1  0.4721790000000  0.5795870000000  0.4459730000000 1.0
C      1  0.6145880000000  0.4878270000000  0.4314780000000 1.0
C      1  0.4574580000000  0.4314970000000  0.4398270000000 1.0
C      1  0.4402270000000  0.5161580000000  0.6109410000000 1.0
C      1  0.5102820000000  0.4746320000000  0.5988800000000 1.0
C      1  0.5129280000000  0.5469900000000  0.6033360000000 1.0
C      1  0.5327870000000  0.5125390000000  0.4084480000000 1.0
C      1  0.4636780000000  0.4643860000000  0.4043940000000 1.0
C      1  0.4595820000000  0.5554480000000  0.3959990000000 1.0
C      1  0.5242860000000  0.5146030000000  0.5032590000000 1.0
C      1  0.4733000000000  0.5046140000000  0.5072090000000 1.0
C      1  0.5010120000000  0.4618620000000  0.4980810000000 1.0
C      1  0.4893680000000  0.4905320000000  0.5798390000000 1.0
C      1  0.5105760000000  0.5078210000000  0.4260540000000 1.0
END
