TITL C-2622961-1971-461 33.515335147558 125000 -1057.67600221814 0 0 200 (C1) n - 1
REM
REM in /nfs/bkarasulu/CARBON/AIRSS/Generating-Clusters/AIREBO/with-SteepDescent/Higher-Symm/SD-CG/HFTN-CG
REM
REM
REM
REM
REM
REM ./C.cell (b20cbc046b6831c77cfcea5457e17084)
REM
REM compiler GCC version 9.2.1 20190827 (Red Hat 9.2.1-1)
REM options -cpp -mtune=generic -march=x86-64 -g -O0 -fpre-include=/usr/include/finclude/math-vector-fortran.h
REM seed 1500234407 -1230187518 54760443 -2020075140 -749445985 -898028907 328074949 590410554 -126905372 -146784240 -1181643576 1942708637 1895512293 -520255370 -113437065 -1488175349 93534019 1169914763 1733479673 409616766 -1665190085 1511608827 2001136299 -794383525 -1956736949 -1377559487 791291982 -1418805121 1216880336 -252314514 -977119957 1432938046 1246651535
REM
CELL 1.54180   50.00000   50.00000   50.00000   90.00000   90.00000   90.00000
LATT -1
SFAC C  
C      1  0.4521250000000  0.4585270000000  0.5641800000000 1.0
C      1  0.5531530000000  0.4845740000000  0.5614930000000 1.0
C      1  0.5056610000000  0.5576130000000  0.5494740000000 1.0
C      1  0.5431510000000  0.4618800000000  0.5815750000000 1.0
C      1  0.5059990000000  0.5667040000000  0.5804940000000 1.0
C      1  0.4388340000000  0.4661280000000  0.5905220000000 1.0
C      1  0.5513350000000  0.4089060000000  0.5558330000000 1.0
C      1  0.5586940000000  0.5985630000000  0.5579510000000 1.0
C      1  0.4040960000000  0.5036820000000  0.5561820000000 1.0
C      1  0.5198050000000  0.4733750000000  0.4311180000000 1.0
C      1  0.5133370000000  0.5224420000000  0.4220710000000 1.0
C      1  0.4752810000000  0.4962900000000  0.4411220000000 1.0
C      1  0.5629030000000  0.4344510000000  0.4570060000000 1.0
C      1  0.5297180000000  0.5844710000000  0.4550580000000 1.0
C      1  0.4174240000000  0.4840650000000  0.4437300000000 1.0
C      1  0.5241580000000  0.5299750000000  0.5889140000000 1.0
C      1  0.4604640000000  0.5033270000000  0.6126620000000 1.0
C      1  0.4921990000000  0.4650890000000  0.5930420000000 1.0
C      1  0.6004810000000  0.4504540000000  0.5153480000000 1.0
C      1  0.4984920000000  0.6170320000000  0.5103490000000 1.0
C      1  0.3943410000000  0.4433980000000  0.5107660000000 1.0
C      1  0.5331640000000  0.4468750000000  0.4180300000000 1.0
C      1  0.5268510000000  0.5517470000000  0.4145750000000 1.0
C      1  0.4490620000000  0.5003010000000  0.4229270000000 1.0
C      1  0.4919330000000  0.4842310000000  0.4185360000000 1.0
C      1  0.5289420000000  0.4976420000000  0.4117130000000 1.0
C      1  0.4934910000000  0.5308380000000  0.3965650000000 1.0
C      1  0.4482530000000  0.4840520000000  0.5338850000000 1.0
C      1  0.5336540000000  0.4473720000000  0.5228540000000 1.0
C      1  0.5291260000000  0.5682720000000  0.5343660000000 1.0
C      1  0.4581150000000  0.5530370000000  0.4273120000000 1.0
C      1  0.4805220000000  0.4353640000000  0.4273170000000 1.0
C      1  0.5607880000000  0.5095460000000  0.4124350000000 1.0
C      1  0.4656170000000  0.3954510000000  0.4538380000000 1.0
C      1  0.5983780000000  0.5127830000000  0.4524530000000 1.0
C      1  0.4308240000000  0.5864750000000  0.4535560000000 1.0
C      1  0.4777610000000  0.3891580000000  0.4820740000000 1.0
C      1  0.6052090000000  0.5300200000000  0.4770970000000 1.0
C      1  0.4194460000000  0.5777360000000  0.4834130000000 1.0
C      1  0.5549380000000  0.5112220000000  0.4692800000000 1.0
C      1  0.4572590000000  0.5533250000000  0.4838880000000 1.0
C      1  0.4754040000000  0.4330950000000  0.4833060000000 1.0
C      1  0.5844150000000  0.5296280000000  0.4270070000000 1.0
C      1  0.4295210000000  0.5628160000000  0.4326900000000 1.0
C      1  0.4876310000000  0.4061790000000  0.4351080000000 1.0
C      1  0.5124510000000  0.3988740000000  0.4428320000000 1.0
C      1  0.5833330000000  0.5579920000000  0.4321330000000 1.0
C      1  0.4074940000000  0.5467470000000  0.4339800000000 1.0
C      1  0.4923720000000  0.5646090000000  0.5046440000000 1.0
C      1  0.4393300000000  0.4556970000000  0.5071610000000 1.0
C      1  0.5544190000000  0.4730870000000  0.5006870000000 1.0
C      1  0.4723840000000  0.5519050000000  0.4555120000000 1.0
C      1  0.4692000000000  0.4478450000000  0.4550640000000 1.0
C      1  0.5482720000000  0.5144890000000  0.4423930000000 1.0
C      1  0.4984940000000  0.5818400000000  0.4418580000000 1.0
C      1  0.4307260000000  0.4548430000000  0.4440040000000 1.0
C      1  0.5743280000000  0.4611050000000  0.4392460000000 1.0
C      1  0.4570270000000  0.4252850000000  0.5699290000000 1.0
C      1  0.5672410000000  0.5073310000000  0.5750970000000 1.0
C      1  0.4720650000000  0.5630660000000  0.5843170000000 1.0
C      1  0.5176560000000  0.3809220000000  0.5217580000000 1.0
C      1  0.5909730000000  0.5727100000000  0.5187750000000 1.0
C      1  0.3937080000000  0.5326100000000  0.5178370000000 1.0
C      1  0.5299360000000  0.4405240000000  0.4512760000000 1.0
C      1  0.5387800000000  0.5531060000000  0.4455390000000 1.0
C      1  0.4395520000000  0.5078470000000  0.4546870000000 1.0
C      1  0.4177720000000  0.4800330000000  0.5385510000000 1.0
C      1  0.5578650000000  0.4314230000000  0.5334890000000 1.0
C      1  0.5369200000000  0.5985670000000  0.5375030000000 1.0
C      1  0.4704620000000  0.4849000000000  0.5562970000000 1.0
C      1  0.5288690000000  0.4699990000000  0.5426440000000 1.0
C      1  0.5031440000000  0.5285540000000  0.5413190000000 1.0
C      1  0.5503960000000  0.5846890000000  0.4926580000000 1.0
C      1  0.4021440000000  0.5002220000000  0.4960600000000 1.0
C      1  0.5556150000000  0.4086370000000  0.5003070000000 1.0
C      1  0.4134540000000  0.4377040000000  0.4620140000000 1.0
C      1  0.5963700000000  0.4590490000000  0.4638970000000 1.0
C      1  0.4848060000000  0.5982680000000  0.4642250000000 1.0
C      1  0.5190180000000  0.5726880000000  0.4851140000000 1.0
C      1  0.4248650000000  0.4773300000000  0.4852750000000 1.0
C      1  0.5561600000000  0.4409380000000  0.4897020000000 1.0
C      1  0.4084230000000  0.4155050000000  0.5148210000000 1.0
C      1  0.6145630000000  0.4755510000000  0.5117040000000 1.0
C      1  0.4696670000000  0.6232700000000  0.5088570000000 1.0
C      1  0.5984960000000  0.5044470000000  0.5734240000000 1.0
C      1  0.4612660000000  0.5913030000000  0.5778860000000 1.0
C      1  0.4325470000000  0.4074650000000  0.5642320000000 1.0
C      1  0.5433950000000  0.4097390000000  0.4441580000000 1.0
C      1  0.5585850000000  0.5798620000000  0.4376810000000 1.0
C      1  0.4122060000000  0.5152050000000  0.4365870000000 1.0
C      1  0.4814250000000  0.5746550000000  0.5352380000000 1.0
C      1  0.4468580000000  0.4434450000000  0.5359330000000 1.0
C      1  0.5652430000000  0.4821170000000  0.5317040000000 1.0
C      1  0.5735360000000  0.5334770000000  0.5542870000000 1.0
C      1  0.4517630000000  0.5430250000000  0.5665380000000 1.0
C      1  0.4855360000000  0.4121230000000  0.5585920000000 1.0
C      1  0.5338350000000  0.6150110000000  0.4658620000000 1.0
C      1  0.3933330000000  0.4727330000000  0.4570380000000 1.0
C      1  0.5903780000000  0.4181840000000  0.4636050000000 1.0
C      1  0.4805080000000  0.5270880000000  0.6105470000000 1.0
C      1  0.4783150000000  0.4457220000000  0.6167470000000 1.0
C      1  0.5220410000000  0.5049030000000  0.6002130000000 1.0
C      1  0.4516480000000  0.5582110000000  0.5360970000000 1.0
C      1  0.4699220000000  0.4235770000000  0.5321170000000 1.0
C      1  0.5799320000000  0.5126030000000  0.5282070000000 1.0
C      1  0.5497570000000  0.5345810000000  0.5788150000000 1.0
C      1  0.4515570000000  0.5311010000000  0.5963400000000 1.0
C      1  0.4850970000000  0.4325870000000  0.5859900000000 1.0
C      1  0.5762830000000  0.4792880000000  0.4134910000000 1.0
C      1  0.4772820000000  0.5784710000000  0.4190660000000 1.0
C      1  0.4485590000000  0.4433540000000  0.4203160000000 1.0
C      1  0.5200880000000  0.4710240000000  0.4650380000000 1.0
C      1  0.5193060000000  0.5267950000000  0.4552700000000 1.0
C      1  0.4665130000000  0.4994020000000  0.4738300000000 1.0
C      1  0.4872970000000  0.4608860000000  0.4981440000000 1.0
C      1  0.5310950000000  0.5196840000000  0.4869370000000 1.0
C      1  0.4707690000000  0.5266070000000  0.4938070000000 1.0
C      1  0.6050360000000  0.5122050000000  0.5052800000000 1.0
C      1  0.4434400000000  0.5742630000000  0.5072670000000 1.0
C      1  0.4645050000000  0.4095110000000  0.5053520000000 1.0
C      1  0.4034700000000  0.5289420000000  0.5435670000000 1.0
C      1  0.5346220000000  0.3894210000000  0.5484770000000 1.0
C      1  0.5819670000000  0.5888120000000  0.5473430000000 1.0
C      1  0.4918800000000  0.5357700000000  0.5799240000000 1.0
C      1  0.4628020000000  0.4746360000000  0.6072270000000 1.0
C      1  0.5168670000000  0.4831920000000  0.5781840000000 1.0
C      1  0.5577210000000  0.4536040000000  0.4037860000000 1.0
C      1  0.5053800000000  0.5713930000000  0.4040710000000 1.0
C      1  0.4415890000000  0.4749630000000  0.4112580000000 1.0
C      1  0.5062350000000  0.6109690000000  0.5654550000000 1.0
C      1  0.4000680000000  0.4485600000000  0.5703360000000 1.0
C      1  0.5868760000000  0.4510140000000  0.5684630000000 1.0
C      1  0.4355320000000  0.5047820000000  0.5022840000000 1.0
C      1  0.5229260000000  0.4343570000000  0.4926560000000 1.0
C      1  0.5386060000000  0.5566240000000  0.5078070000000 1.0
C      1  0.4554940000000  0.3778910000000  0.5028470000000 1.0
C      1  0.6330620000000  0.5224480000000  0.4924590000000 1.0
C      1  0.4203600000000  0.6000940000000  0.5090140000000 1.0
C      1  0.4785140000000  0.5020220000000  0.3961210000000 1.0
C      1  0.5115890000000  0.4755170000000  0.3921940000000 1.0
C      1  0.5206430000000  0.5338650000000  0.3794340000000 1.0
C      1  0.5852420000000  0.5796740000000  0.4576530000000 1.0
C      1  0.3892850000000  0.5303150000000  0.4552620000000 1.0
C      1  0.5333830000000  0.3842790000000  0.4631720000000 1.0
C      1  0.5008520000000  0.4483160000000  0.4095580000000 1.0
C      1  0.5465860000000  0.5345870000000  0.3943400000000 1.0
C      1  0.4622290000000  0.5287590000000  0.4097750000000 1.0
C      1  0.5987950000000  0.5003780000000  0.4206940000000 1.0
C      1  0.4507340000000  0.5959590000000  0.4276400000000 1.0
C      1  0.4442820000000  0.4162990000000  0.4375220000000 1.0
C      1  0.5026450000000  0.3991970000000  0.4997730000000 1.0
C      1  0.5875300000000  0.5473590000000  0.4979940000000 1.0
C      1  0.4142560000000  0.5493170000000  0.4966760000000 1.0
C      1  0.5467790000000  0.5966930000000  0.5835890000000 1.0
C      1  0.4010040000000  0.4946380000000  0.5827120000000 1.0
C      1  0.5575110000000  0.4167150000000  0.5819680000000 1.0
C      1  0.5205380000000  0.5023990000000  0.5485400000000 1.0
C      1  0.4780320000000  0.5149140000000  0.5568300000000 1.0
C      1  0.4967410000000  0.4707950000000  0.5537440000000 1.0
C      1  0.4663150000000  0.5222890000000  0.5272640000000 1.0
C      1  0.4948240000000  0.4545240000000  0.5289890000000 1.0
C      1  0.5351030000000  0.5161130000000  0.5207590000000 1.0
C      1  0.5729420000000  0.4028310000000  0.5229400000000 1.0
C      1  0.5477830000000  0.6078960000000  0.5097740000000 1.0
C      1  0.3915550000000  0.4902960000000  0.5209100000000 1.0
C      1  0.3980930000000  0.4563580000000  0.4849830000000 1.0
C      1  0.5901580000000  0.4403540000000  0.4895030000000 1.0
C      1  0.5077540000000  0.6052700000000  0.4844550000000 1.0
C      1  0.4505490000000  0.4710560000000  0.4638930000000 1.0
C      1  0.5519240000000  0.4727590000000  0.4596020000000 1.0
C      1  0.5023050000000  0.5543740000000  0.4615330000000 1.0
C      1  0.5887020000000  0.5583110000000  0.5495640000000 1.0
C      1  0.4217210000000  0.5477510000000  0.5522640000000 1.0
C      1  0.5034250000000  0.3899810000000  0.5515480000000 1.0
C      1  0.4268920000000  0.4296120000000  0.4920820000000 1.0
C      1  0.5855080000000  0.4868540000000  0.4981220000000 1.0
C      1  0.4704400000000  0.5906320000000  0.5005180000000 1.0
C      1  0.4990570000000  0.4266170000000  0.5147990000000 1.0
C      1  0.5611870000000  0.5334850000000  0.5089820000000 1.0
C      1  0.4381560000000  0.5353560000000  0.5148020000000 1.0
C      1  0.5807520000000  0.4892150000000  0.4669640000000 1.0
C      1  0.4568120000000  0.5848770000000  0.4712100000000 1.0
C      1  0.4473220000000  0.4186130000000  0.4707360000000 1.0
C      1  0.6059730000000  0.5058970000000  0.5490280000000 1.0
C      1  0.4650290000000  0.5980730000000  0.5536520000000 1.0
C      1  0.4172190000000  0.4134350000000  0.5431510000000 1.0
C      1  0.5639990000000  0.4439590000000  0.5845670000000 1.0
C      1  0.5185690000000  0.5934030000000  0.5826810000000 1.0
C      1  0.4112190000000  0.4684990000000  0.5876740000000 1.0
C      1  0.5797260000000  0.5771630000000  0.4867680000000 1.0
C      1  0.3931390000000  0.5280400000000  0.4840750000000 1.0
C      1  0.5330130000000  0.3901350000000  0.4926620000000 1.0
C      1  0.5002940000000  0.5317930000000  0.5092730000000 1.0
C      1  0.4606800000000  0.4817220000000  0.5023130000000 1.0
C      1  0.5206330000000  0.4677090000000  0.4988860000000 1.0
C      1  0.4131600000000  0.4469420000000  0.5389970000000 1.0
C      1  0.5800400000000  0.4528390000000  0.5376180000000 1.0
C      1  0.5035400000000  0.6005050000000  0.5350260000000 1.0
C      1  0.5009270000000  0.4990990000000  0.4625080000000 1.0
C      1  0.5108750000000  0.4999600000000  0.5036120000000 1.0
END
