TITL C-2622959-7779-40 -0.000157855324115656 125000 -119.67378089427 0 0 23 (C1) n - 1
REM
REM in /nfs/bkarasulu/CARBON/AIRSS/Generating-Clusters/AIREBO/with-SteepDescent/Higher-Symm/SD-CG/HFTN-CG
REM
REM
REM
REM
REM
REM ./C.cell (b20cbc046b6831c77cfcea5457e17084)
REM
REM compiler GCC version 9.2.1 20190827 (Red Hat 9.2.1-1)
REM options -cpp -mtune=generic -march=x86-64 -g -O0 -fpre-include=/usr/include/finclude/math-vector-fortran.h
REM seed -135884158 -1619769774 1578534827 -1904138502 1954216222 -15760071 1151861018 2025366251 -517207194 740021712 1220235310 102699549 -1792589467 544605941 1653362969 -597162010 2122075686 -1448837863 -1767870427 -481215021 -1800404129 -778443109 212514960 1454560002 963501983 -2108796874 -1354365677 688155203 -478188334 2024674517 1254103671 1951517623 878823641
REM
CELL 1.54180   50.00000   50.00000   50.00000   90.00000   90.00000   90.00000
LATT -1
SFAC C  
C      1  0.4850990000000  0.4331160000000  0.5019780000000 1.0
C      1  0.5699290000000  0.4741660000000  0.4999740000000 1.0
C      1  0.5432850000000  0.5555270000000  0.5128550000000 1.0
C      1  0.4574500000000  0.5651730000000  0.5098130000000 1.0
C      1  0.4350680000000  0.4738460000000  0.5054430000000 1.0
C      1  0.4958710000000  0.5367040000000  0.5163410000000 1.0
C      1  0.4534600000000  0.5172610000000  0.5165250000000 1.0
C      1  0.4821680000000  0.4797720000000  0.5139130000000 1.0
C      1  0.5248060000000  0.4595770000000  0.5103980000000 1.0
C      1  0.5350730000000  0.5050530000000  0.5127050000000 1.0
C      1  0.4966280000000  0.4566250000000  0.5082470000000 1.0
C      1  0.5446020000000  0.4796840000000  0.5071230000000 1.0
C      1  0.5264570000000  0.5346200000000  0.5133340000000 1.0
C      1  0.4686840000000  0.5410740000000  0.5138160000000 1.0
C      1  0.4561750000000  0.4894500000000  0.5114350000000 1.0
C      1  0.4904690000000  0.4930000000000  0.4170550000000 1.0
C      1  0.4909170000000  0.4834980000000  0.4439690000000 1.0
C      1  0.4984790000000  0.5053560000000  0.4621270000000 1.0
C      1  0.5024880000000  0.5283600000000  0.4442510000000 1.0
C      1  0.4975810000000  0.5205760000000  0.4172280000000 1.0
C      1  0.5027370000000  0.5041370000000  0.5232880000000 1.0
C      1  0.5039480000000  0.5011740000000  0.5522420000000 1.0
C      1  0.5018290000000  0.5044150000000  0.4892870000000 1.0
END
