TITL C-2622959-7779-304 0.00147351853363594 125000 -740.445444833275 0 0 135 (C1) n - 1
REM
REM in /nfs/bkarasulu/CARBON/AIRSS/Generating-Clusters/AIREBO/with-SteepDescent/Higher-Symm/SD-CG/HFTN-CG
REM
REM
REM
REM
REM
REM ./C.cell (b20cbc046b6831c77cfcea5457e17084)
REM
REM compiler GCC version 9.2.1 20190827 (Red Hat 9.2.1-1)
REM options -cpp -mtune=generic -march=x86-64 -g -O0 -fpre-include=/usr/include/finclude/math-vector-fortran.h
REM seed 1276878415 -591268903 -1618636534 1496479424 -1461017634 227795759 -451684204 -360299729 1442190153 409019981 -731392371 -1949964834 -1724194060 210591201 386162478 -1812619433 -708620749 613460250 1994344112 1814901200 1463626249 -142524031 -600375808 -1052501408 -1438658841 37215171 2136851778 872275734 731306927 289674189 -2071019244 803251185 -1523884845
REM
CELL 1.54180   50.00000   50.00000   50.00000   90.00000   90.00000   90.00000
LATT -1
SFAC C  
C      1  0.4298380000000  0.4195780000000  0.4931010000000 1.0
C      1  0.4287220000000  0.5313660000000  0.4856370000000 1.0
C      1  0.5165880000000  0.5851870000000  0.4868880000000 1.0
C      1  0.5840500000000  0.5077650000000  0.4830000000000 1.0
C      1  0.5306930000000  0.4269000000000  0.4891660000000 1.0
C      1  0.4326270000000  0.4333540000000  0.5169370000000 1.0
C      1  0.4282950000000  0.5298520000000  0.5124850000000 1.0
C      1  0.5234540000000  0.5880470000000  0.5155610000000 1.0
C      1  0.5810140000000  0.5102450000000  0.5120490000000 1.0
C      1  0.5324400000000  0.4289500000000  0.5160600000000 1.0
C      1  0.5030750000000  0.4505690000000  0.5876230000000 1.0
C      1  0.4554210000000  0.4780500000000  0.5839080000000 1.0
C      1  0.4524190000000  0.5329660000000  0.5782590000000 1.0
C      1  0.5252360000000  0.5520710000000  0.5865770000000 1.0
C      1  0.5619090000000  0.5013940000000  0.5838490000000 1.0
C      1  0.5042760000000  0.4559860000000  0.4172920000000 1.0
C      1  0.4550600000000  0.4825170000000  0.4160920000000 1.0
C      1  0.4538470000000  0.5361120000000  0.4198880000000 1.0
C      1  0.5239010000000  0.5602190000000  0.4186550000000 1.0
C      1  0.5570650000000  0.5104260000000  0.4127980000000 1.0
C      1  0.4421740000000  0.4642880000000  0.5262390000000 1.0
C      1  0.4577060000000  0.5308360000000  0.5232940000000 1.0
C      1  0.5296630000000  0.5566390000000  0.5270220000000 1.0
C      1  0.5582760000000  0.4928010000000  0.5253920000000 1.0
C      1  0.5101390000000  0.4438460000000  0.5303680000000 1.0
C      1  0.4492010000000  0.4711780000000  0.4695910000000 1.0
C      1  0.4568270000000  0.5375070000000  0.4752530000000 1.0
C      1  0.5230490000000  0.5559180000000  0.4767460000000 1.0
C      1  0.5585470000000  0.4897580000000  0.4744470000000 1.0
C      1  0.5048060000000  0.4394670000000  0.4754310000000 1.0
C      1  0.4631560000000  0.5724810000000  0.5435420000000 1.0
C      1  0.5527840000000  0.5743270000000  0.5538090000000 1.0
C      1  0.5755190000000  0.4582100000000  0.5531900000000 1.0
C      1  0.4892400000000  0.4198330000000  0.5544200000000 1.0
C      1  0.4163320000000  0.4819040000000  0.5558590000000 1.0
C      1  0.4642680000000  0.5795400000000  0.4514280000000 1.0
C      1  0.5593820000000  0.5631590000000  0.4458630000000 1.0
C      1  0.5819480000000  0.4728700000000  0.4471560000000 1.0
C      1  0.4911130000000  0.4127490000000  0.4476080000000 1.0
C      1  0.4189040000000  0.4796670000000  0.4419690000000 1.0
C      1  0.4742210000000  0.5011390000000  0.5443050000000 1.0
C      1  0.4949090000000  0.5203760000000  0.5632420000000 1.0
C      1  0.5263090000000  0.5175400000000  0.5504810000000 1.0
C      1  0.5222010000000  0.4842820000000  0.5569880000000 1.0
C      1  0.4926620000000  0.4762240000000  0.5458720000000 1.0
C      1  0.4716790000000  0.5057780000000  0.4566130000000 1.0
C      1  0.4922500000000  0.5262700000000  0.4389040000000 1.0
C      1  0.5204150000000  0.5127260000000  0.4514140000000 1.0
C      1  0.5216200000000  0.4828800000000  0.4411000000000 1.0
C      1  0.4916620000000  0.4680050000000  0.4472750000000 1.0
C      1  0.4790950000000  0.4258280000000  0.4912850000000 1.0
C      1  0.4292830000000  0.4864930000000  0.4797960000000 1.0
C      1  0.4741140000000  0.5631760000000  0.4866140000000 1.0
C      1  0.5540130000000  0.5480240000000  0.4824480000000 1.0
C      1  0.5661250000000  0.4603000000000  0.4879110000000 1.0
C      1  0.4808280000000  0.4447940000000  0.5169470000000 1.0
C      1  0.4256460000000  0.4905850000000  0.5183900000000 1.0
C      1  0.4842700000000  0.5510680000000  0.5168790000000 1.0
C      1  0.5600480000000  0.5547360000000  0.5123950000000 1.0
C      1  0.5571950000000  0.4622030000000  0.5179470000000 1.0
C      1  0.5518030000000  0.4352590000000  0.5632870000000 1.0
C      1  0.4581040000000  0.4312710000000  0.5626310000000 1.0
C      1  0.4197650000000  0.5158670000000  0.5627400000000 1.0
C      1  0.4907510000000  0.5802330000000  0.5618860000000 1.0
C      1  0.5755400000000  0.5295840000000  0.5506600000000 1.0
C      1  0.5446630000000  0.4403530000000  0.4482840000000 1.0
C      1  0.4589050000000  0.4139570000000  0.4506380000000 1.0
C      1  0.4168060000000  0.5150470000000  0.4397140000000 1.0
C      1  0.4974540000000  0.5870400000000  0.4491640000000 1.0
C      1  0.5752900000000  0.5348200000000  0.4380860000000 1.0
C      1  0.5572110000000  0.4316860000000  0.5310850000000 1.0
C      1  0.4583830000000  0.4282500000000  0.5308810000000 1.0
C      1  0.4108900000000  0.5162390000000  0.5313250000000 1.0
C      1  0.4973590000000  0.5799660000000  0.5289100000000 1.0
C      1  0.5806380000000  0.5360100000000  0.5238400000000 1.0
C      1  0.5523850000000  0.4363240000000  0.4747180000000 1.0
C      1  0.4526400000000  0.4183430000000  0.4773390000000 1.0
C      1  0.4195750000000  0.5106240000000  0.4709840000000 1.0
C      1  0.4875800000000  0.5937950000000  0.4805180000000 1.0
C      1  0.5800580000000  0.5340620000000  0.4703910000000 1.0
C      1  0.5424190000000  0.4644020000000  0.5484890000000 1.0
C      1  0.4831680000000  0.4525740000000  0.5613220000000 1.0
C      1  0.4439430000000  0.4990180000000  0.5457810000000 1.0
C      1  0.4858840000000  0.5483520000000  0.5511130000000 1.0
C      1  0.5505080000000  0.5405660000000  0.5571270000000 1.0
C      1  0.5512390000000  0.4663780000000  0.4412010000000 1.0
C      1  0.4739310000000  0.4405040000000  0.4378420000000 1.0
C      1  0.4458580000000  0.5004360000000  0.4426110000000 1.0
C      1  0.4875910000000  0.5552430000000  0.4560880000000 1.0
C      1  0.5446110000000  0.5329250000000  0.4526310000000 1.0
C      1  0.5971090000000  0.4795180000000  0.4720340000000 1.0
C      1  0.5035440000000  0.3988750000000  0.4752560000000 1.0
C      1  0.3970230000000  0.4687010000000  0.4657190000000 1.0
C      1  0.4392900000000  0.5712730000000  0.4642090000000 1.0
C      1  0.5525290000000  0.5866840000000  0.4694450000000 1.0
C      1  0.5929450000000  0.4752350000000  0.5338090000000 1.0
C      1  0.4885480000000  0.3981000000000  0.5304250000000 1.0
C      1  0.3953770000000  0.4700710000000  0.5318100000000 1.0
C      1  0.4396200000000  0.5662890000000  0.5266430000000 1.0
C      1  0.5531620000000  0.5899390000000  0.5296340000000 1.0
C      1  0.5310260000000  0.4965810000000  0.4864360000000 1.0
C      1  0.5094070000000  0.4709730000000  0.4873630000000 1.0
C      1  0.4794740000000  0.4792580000000  0.4764240000000 1.0
C      1  0.4812180000000  0.5182570000000  0.4848480000000 1.0
C      1  0.5123390000000  0.5246780000000  0.4822070000000 1.0
C      1  0.5286570000000  0.5039730000000  0.5198880000000 1.0
C      1  0.5112570000000  0.4752300000000  0.5196400000000 1.0
C      1  0.4696100000000  0.4734530000000  0.5084560000000 1.0
C      1  0.4745320000000  0.5052460000000  0.5114870000000 1.0
C      1  0.5133570000000  0.5337460000000  0.5139040000000 1.0
C      1  0.5171150000000  0.5261930000000  0.5883380000000 1.0
C      1  0.5352540000000  0.5042870000000  0.5924270000000 1.0
C      1  0.5185790000000  0.4795370000000  0.5883310000000 1.0
C      1  0.4865550000000  0.4794320000000  0.5955970000000 1.0
C      1  0.4714620000000  0.5078410000000  0.5844480000000 1.0
C      1  0.5150130000000  0.5346560000000  0.4150720000000 1.0
C      1  0.5302700000000  0.5126690000000  0.4051090000000 1.0
C      1  0.5177980000000  0.4863460000000  0.4101110000000 1.0
C      1  0.4859070000000  0.4828230000000  0.4058050000000 1.0
C      1  0.4721350000000  0.5124550000000  0.4152120000000 1.0
C      1  0.5140990000000  0.4357070000000  0.4428230000000 1.0
C      1  0.4471880000000  0.4607920000000  0.4410340000000 1.0
C      1  0.4369440000000  0.5413160000000  0.4479140000000 1.0
C      1  0.5276290000000  0.5748980000000  0.4490980000000 1.0
C      1  0.5678910000000  0.5021570000000  0.4439740000000 1.0
C      1  0.5187960000000  0.4350360000000  0.5617780000000 1.0
C      1  0.4435090000000  0.4618300000000  0.5601370000000 1.0
C      1  0.4385140000000  0.5408580000000  0.5492530000000 1.0
C      1  0.5207060000000  0.5665360000000  0.5584070000000 1.0
C      1  0.5768240000000  0.4979220000000  0.5534390000000 1.0
C      1  0.4052510000000  0.4717550000000  0.4987200000000 1.0
C      1  0.5585740000000  0.5849380000000  0.4968420000000 1.0
C      1  0.4906340000000  0.3984660000000  0.5030870000000 1.0
C      1  0.4435450000000  0.5734630000000  0.4973910000000 1.0
C      1  0.5933200000000  0.4719170000000  0.5047490000000 1.0
END
