TITL C-2622954-8726-233 0.00150437846539324 125000 -969.644551503656 0 0 193 (C1) n - 1
REM
REM in /nfs/bkarasulu/CARBON/AIRSS/Generating-Clusters/AIREBO/with-SteepDescent/Higher-Symm/SD-CG/HFTN-CG
REM
REM
REM
REM
REM
REM ./C.cell (b20cbc046b6831c77cfcea5457e17084)
REM
REM compiler GCC version 9.2.1 20190827 (Red Hat 9.2.1-1)
REM options -cpp -mtune=generic -march=x86-64 -g -O0 -fpre-include=/usr/include/finclude/math-vector-fortran.h
REM seed -843551665 -1921009129 -378668362 -937280578 -2043119805 -1099886297 -1711763148 63818367 -844093328 237314512 -919242947 1975098934 1497184950 400650121 -855480225 -444910697 1672326610 -1648937345 1377794681 -1111444141 -369855528 1552322640 -1835360207 -785972053 706728383 -771791902 328104586 495682601 197592264 436416555 942821908 -1974959070 1646869987
REM
CELL 1.54180   50.00000   50.00000   50.00000   90.00000   90.00000   90.00000
LATT -1
SFAC C  
C      1  0.5061890000000  0.4085940000000  0.4270430000000 1.0
C      1  0.4406110000000  0.5893050000000  0.4641900000000 1.0
C      1  0.4386670000000  0.4136050000000  0.5323690000000 1.0
C      1  0.4954600000000  0.5881970000000  0.5794770000000 1.0
C      1  0.5609830000000  0.4081540000000  0.5373200000000 1.0
C      1  0.5563830000000  0.5872950000000  0.4689960000000 1.0
C      1  0.5158500000000  0.6046600000000  0.5605490000000 1.0
C      1  0.5609910000000  0.3895580000000  0.5122050000000 1.0
C      1  0.5412780000000  0.6090170000000  0.4560230000000 1.0
C      1  0.4967770000000  0.3843750000000  0.4389610000000 1.0
C      1  0.4452820000000  0.6157840000000  0.4738450000000 1.0
C      1  0.4622780000000  0.3968230000000  0.5446830000000 1.0
C      1  0.5987200000000  0.5047790000000  0.5476370000000 1.0
C      1  0.5854350000000  0.4980600000000  0.4412840000000 1.0
C      1  0.4888010000000  0.5064730000000  0.3920620000000 1.0
C      1  0.3997440000000  0.4954350000000  0.4547950000000 1.0
C      1  0.4120700000000  0.5077370000000  0.5615860000000 1.0
C      1  0.5093150000000  0.4920540000000  0.6119050000000 1.0
C      1  0.5161920000000  0.5990820000000  0.5083750000000 1.0
C      1  0.5179190000000  0.3977510000000  0.4880030000000 1.0
C      1  0.5000200000000  0.5950610000000  0.4789050000000 1.0
C      1  0.4839850000000  0.3956680000000  0.4907580000000 1.0
C      1  0.4826340000000  0.6048830000000  0.5055390000000 1.0
C      1  0.5039700000000  0.4008310000000  0.5176470000000 1.0
C      1  0.4447930000000  0.4655370000000  0.4572090000000 1.0
C      1  0.4363330000000  0.5329130000000  0.5263570000000 1.0
C      1  0.4938530000000  0.4672870000000  0.5682010000000 1.0
C      1  0.5543520000000  0.5327810000000  0.5401540000000 1.0
C      1  0.5607830000000  0.4654060000000  0.4729040000000 1.0
C      1  0.5070330000000  0.5327770000000  0.4294910000000 1.0
C      1  0.5175660000000  0.4648320000000  0.4330490000000 1.0
C      1  0.4531780000000  0.5303220000000  0.4464740000000 1.0
C      1  0.4444290000000  0.4663300000000  0.5161980000000 1.0
C      1  0.4815130000000  0.5321960000000  0.5702740000000 1.0
C      1  0.5434550000000  0.4735180000000  0.5525610000000 1.0
C      1  0.5565370000000  0.5299900000000  0.4853290000000 1.0
C      1  0.4060740000000  0.5341280000000  0.5410040000000 1.0
C      1  0.4926330000000  0.4643500000000  0.6014060000000 1.0
C      1  0.5828410000000  0.5327310000000  0.5587130000000 1.0
C      1  0.5900310000000  0.4684750000000  0.4573980000000 1.0
C      1  0.5076820000000  0.5344260000000  0.3963310000000 1.0
C      1  0.4151540000000  0.4681460000000  0.4416070000000 1.0
C      1  0.4777270000000  0.4672420000000  0.4890710000000 1.0
C      1  0.4762160000000  0.5352820000000  0.5244700000000 1.0
C      1  0.5058730000000  0.4734750000000  0.5306310000000 1.0
C      1  0.5209200000000  0.5381570000000  0.5062410000000 1.0
C      1  0.5169300000000  0.4666120000000  0.4794590000000 1.0
C      1  0.4918720000000  0.5289610000000  0.4682870000000 1.0
C      1  0.5167010000000  0.5651880000000  0.5662100000000 1.0
C      1  0.5726170000000  0.4276770000000  0.5120200000000 1.0
C      1  0.5437090000000  0.5616620000000  0.4564290000000 1.0
C      1  0.4843320000000  0.4323740000000  0.4331260000000 1.0
C      1  0.4240300000000  0.5720710000000  0.4884130000000 1.0
C      1  0.4552830000000  0.4360310000000  0.5481490000000 1.0
C      1  0.5574980000000  0.6003980000000  0.5167880000000 1.0
C      1  0.5470190000000  0.3982070000000  0.4537220000000 1.0
C      1  0.4836200000000  0.6017010000000  0.4364620000000 1.0
C      1  0.4332310000000  0.4046780000000  0.4863410000000 1.0
C      1  0.4556300000000  0.5939830000000  0.5541320000000 1.0
C      1  0.5186360000000  0.4009620000000  0.5617040000000 1.0
C      1  0.5045110000000  0.4995360000000  0.5700070000000 1.0
C      1  0.5628460000000  0.5012700000000  0.5305530000000 1.0
C      1  0.5493790000000  0.4965860000000  0.4655400000000 1.0
C      1  0.4922980000000  0.5021770000000  0.4312710000000 1.0
C      1  0.4371450000000  0.4968820000000  0.4680570000000 1.0
C      1  0.4465340000000  0.5015150000000  0.5345830000000 1.0
C      1  0.5334900000000  0.4235760000000  0.4722800000000 1.0
C      1  0.4933170000000  0.5742500000000  0.4526990000000 1.0
C      1  0.4623840000000  0.4218740000000  0.4896120000000 1.0
C      1  0.4671810000000  0.5819270000000  0.5245140000000 1.0
C      1  0.5134780000000  0.4259720000000  0.5392480000000 1.0
C      1  0.5371440000000  0.5731650000000  0.5161760000000 1.0
C      1  0.5026670000000  0.4305420000000  0.4597230000000 1.0
C      1  0.4524370000000  0.5570350000000  0.4840960000000 1.0
C      1  0.4699260000000  0.4351440000000  0.5199960000000 1.0
C      1  0.4921590000000  0.5703300000000  0.5447660000000 1.0
C      1  0.5427000000000  0.4401100000000  0.5223520000000 1.0
C      1  0.5293540000000  0.5621360000000  0.4846760000000 1.0
C      1  0.5298070000000  0.5203290000000  0.5601350000000 1.0
C      1  0.5632170000000  0.4776300000000  0.5045720000000 1.0
C      1  0.5351190000000  0.5185860000000  0.4424340000000 1.0
C      1  0.4686590000000  0.4774600000000  0.4360840000000 1.0
C      1  0.4327070000000  0.5160030000000  0.4970410000000 1.0
C      1  0.4646910000000  0.4804500000000  0.5566190000000 1.0
C      1  0.4631840000000  0.5338710000000  0.6055520000000 1.0
C      1  0.5644240000000  0.4693960000000  0.5861890000000 1.0
C      1  0.6006930000000  0.5309640000000  0.4877110000000 1.0
C      1  0.5413430000000  0.4706850000000  0.4018960000000 1.0
C      1  0.4254730000000  0.5414960000000  0.4202170000000 1.0
C      1  0.4055120000000  0.4668600000000  0.5251130000000 1.0
C      1  0.4908500000000  0.3936730000000  0.5457150000000 1.0
C      1  0.5309430000000  0.6069570000000  0.5365680000000 1.0
C      1  0.5489550000000  0.3897340000000  0.4865960000000 1.0
C      1  0.5125420000000  0.6091720000000  0.4527140000000 1.0
C      1  0.4860460000000  0.3782170000000  0.4634620000000 1.0
C      1  0.4614660000000  0.6244350000000  0.4942210000000 1.0
C      1  0.5396090000000  0.4497130000000  0.4514120000000 1.0
C      1  0.4778030000000  0.5486270000000  0.4366080000000 1.0
C      1  0.4422730000000  0.4491790000000  0.4870580000000 1.0
C      1  0.4522750000000  0.5345670000000  0.5563550000000 1.0
C      1  0.5227710000000  0.4516450000000  0.5595210000000 1.0
C      1  0.5593820000000  0.5481260000000  0.5102330000000 1.0
C      1  0.4945290000000  0.5460410000000  0.6106810000000 1.0
C      1  0.5798300000000  0.4501130000000  0.5628000000000 1.0
C      1  0.5927920000000  0.5420160000000  0.4578400000000 1.0
C      1  0.5137930000000  0.4525310000000  0.3936310000000 1.0
C      1  0.4115570000000  0.5494780000000  0.4447320000000 1.0
C      1  0.4060460000000  0.4497560000000  0.5489450000000 1.0
C      1  0.4415390000000  0.4672510000000  0.6004370000000 1.0
C      1  0.5600480000000  0.5303430000000  0.6047270000000 1.0
C      1  0.5959790000000  0.4506240000000  0.5074150000000 1.0
C      1  0.5582240000000  0.5389070000000  0.3987760000000 1.0
C      1  0.4449550000000  0.4759750000000  0.3985270000000 1.0
C      1  0.3994680000000  0.5510200000000  0.4921840000000 1.0
C      1  0.5651240000000  0.4328220000000  0.4816100000000 1.0
C      1  0.5209100000000  0.5631430000000  0.4359620000000 1.0
C      1  0.4538050000000  0.4367050000000  0.4415510000000 1.0
C      1  0.4373150000000  0.5664030000000  0.5195360000000 1.0
C      1  0.4861700000000  0.4356650000000  0.5583170000000 1.0
C      1  0.5439970000000  0.5639850000000  0.5488600000000 1.0
C      1  0.5449460000000  0.4417090000000  0.5824810000000 1.0
C      1  0.5897630000000  0.5579800000000  0.5056380000000 1.0
C      1  0.5505550000000  0.4435080000000  0.4206020000000 1.0
C      1  0.4531240000000  0.5568640000000  0.4166620000000 1.0
C      1  0.4116190000000  0.4510380000000  0.4994060000000 1.0
C      1  0.4508080000000  0.5540620000000  0.5834430000000 1.0
C      1  0.4845520000000  0.4900920000000  0.5365440000000 1.0
C      1  0.5196820000000  0.5179120000000  0.5277660000000 1.0
C      1  0.5337680000000  0.4799360000000  0.4983730000000 1.0
C      1  0.5133890000000  0.5128430000000  0.4634710000000 1.0
C      1  0.4779710000000  0.4854910000000  0.4663310000000 1.0
C      1  0.4644430000000  0.5217010000000  0.5006030000000 1.0
C      1  0.4351500000000  0.4197880000000  0.4341030000000 1.0
C      1  0.4159540000000  0.5826640000000  0.5359880000000 1.0
C      1  0.4862830000000  0.4253000000000  0.5885980000000 1.0
C      1  0.5678260000000  0.5772060000000  0.5634310000000 1.0
C      1  0.5874710000000  0.4214460000000  0.4632650000000 1.0
C      1  0.5282970000000  0.5767900000000  0.4095890000000 1.0
C      1  0.5458460000000  0.4157600000000  0.5603020000000 1.0
C      1  0.5697000000000  0.5831840000000  0.4941200000000 1.0
C      1  0.5337870000000  0.4158100000000  0.4310720000000 1.0
C      1  0.4562780000000  0.5820690000000  0.4397980000000 1.0
C      1  0.4246220000000  0.4209240000000  0.5090670000000 1.0
C      1  0.4669200000000  0.5816950000000  0.5766520000000 1.0
C      1  0.4933390000000  0.5183510000000  0.5439780000000 1.0
C      1  0.5320400000000  0.4895510000000  0.5276910000000 1.0
C      1  0.5295270000000  0.5098160000000  0.4898000000000 1.0
C      1  0.5066710000000  0.4832480000000  0.4550570000000 1.0
C      1  0.4654130000000  0.5137490000000  0.4707810000000 1.0
C      1  0.4675200000000  0.4905580000000  0.5101520000000 1.0
C      1  0.5487350000000  0.4884990000000  0.6080850000000 1.0
C      1  0.6071280000000  0.5054360000000  0.5093050000000 1.0
C      1  0.5665360000000  0.4920420000000  0.4068270000000 1.0
C      1  0.4804130000000  0.4637480000000  0.3627520000000 1.0
C      1  0.3695480000000  0.5112270000000  0.4754000000000 1.0
C      1  0.4449440000000  0.5066550000000  0.5963510000000 1.0
C      1  0.5958840000000  0.4780460000000  0.5267860000000 1.0
C      1  0.5695700000000  0.5214960000000  0.4224370000000 1.0
C      1  0.4756690000000  0.4768330000000  0.3899400000000 1.0
C      1  0.3988690000000  0.5236490000000  0.4734620000000 1.0
C      1  0.4296990000000  0.4847480000000  0.5750760000000 1.0
C      1  0.5308660000000  0.5172060000000  0.6040780000000 1.0
C      1  0.4299920000000  0.5370050000000  0.4704360000000 1.0
C      1  0.4370810000000  0.4636500000000  0.5494240000000 1.0
C      1  0.5122780000000  0.5372640000000  0.5838540000000 1.0
C      1  0.5675500000000  0.4604800000000  0.5336110000000 1.0
C      1  0.5625620000000  0.5360170000000  0.4523930000000 1.0
C      1  0.4888390000000  0.4590810000000  0.4157840000000 1.0
C      1  0.5135920000000  0.4893590000000  0.4080650000000 1.0
C      1  0.4251910000000  0.5122700000000  0.4395830000000 1.0
C      1  0.4148200000000  0.4926670000000  0.5313490000000 1.0
C      1  0.4857090000000  0.5101400000000  0.5962760000000 1.0
C      1  0.5724900000000  0.4891630000000  0.5608650000000 1.0
C      1  0.5805700000000  0.5074580000000  0.4736130000000 1.0
C      1  0.4225480000000  0.5387020000000  0.5709480000000 1.0
C      1  0.5260990000000  0.4668700000000  0.5959490000000 1.0
C      1  0.5926210000000  0.5310320000000  0.5263690000000 1.0
C      1  0.5670870000000  0.4708890000000  0.4322400000000 1.0
C      1  0.4738350000000  0.5364160000000  0.3989390000000 1.0
C      1  0.4007120000000  0.4661060000000  0.4723270000000 1.0
C      1  0.4636080000000  0.4599770000000  0.6092290000000 1.0
C      1  0.5773530000000  0.5363340000000  0.5880690000000 1.0
C      1  0.6048350000000  0.4542120000000  0.4812340000000 1.0
C      1  0.5359500000000  0.5412680000000  0.3877210000000 1.0
C      1  0.4259200000000  0.4685390000000  0.4123480000000 1.0
C      1  0.3899260000000  0.5479090000000  0.5184040000000 1.0
C      1  0.5050390000000  0.5621840000000  0.5183840000000 1.0
C      1  0.5182260000000  0.4386390000000  0.4987440000000 1.0
C      1  0.4982590000000  0.5551710000000  0.4780410000000 1.0
C      1  0.4876070000000  0.4402590000000  0.4840220000000 1.0
C      1  0.4770350000000  0.5596580000000  0.5007800000000 1.0
C      1  0.4972830000000  0.4479240000000  0.5219480000000 1.0
C      1  0.4982090000000  0.5003780000000  0.4991890000000 1.0
END
