TITL C-2622959-7779-118 0.00105556138792217 125000 -948.039490258193 0 0 171 (C1) n - 1
REM
REM in /nfs/bkarasulu/CARBON/AIRSS/Generating-Clusters/AIREBO/with-SteepDescent/Higher-Symm/SD-CG/HFTN-CG
REM
REM
REM
REM
REM
REM ./C.cell (b20cbc046b6831c77cfcea5457e17084)
REM
REM compiler GCC version 9.2.1 20190827 (Red Hat 9.2.1-1)
REM options -cpp -mtune=generic -march=x86-64 -g -O0 -fpre-include=/usr/include/finclude/math-vector-fortran.h
REM seed 1721985184 1151024331 -505686221 1864247692 823604158 446550799 106896469 -647098856 -1949717974 -1060663001 1811946223 -1790040751 53443653 1858978447 -1192519534 -142857416 -859605872 -2003328483 863365802 311048630 1267805402 -1075622047 -1959753617 -1686836746 -1702603684 1130878649 1881514884 -340795687 -1504439583 1803549069 1576549561 -610712608 -931262724
REM
CELL 1.54180   50.00000   50.00000   50.00000   90.00000   90.00000   90.00000
LATT -1
SFAC C  
C      1  0.5104080000000  0.4651820000000  0.5312010000000 1.0
C      1  0.5234500000000  0.5259080000000  0.5272040000000 1.0
C      1  0.4673500000000  0.5099260000000  0.5194210000000 1.0
C      1  0.5525590000000  0.5861950000000  0.5431480000000 1.0
C      1  0.4030860000000  0.5085790000000  0.5504580000000 1.0
C      1  0.5447170000000  0.4179040000000  0.5412440000000 1.0
C      1  0.5728820000000  0.4500920000000  0.5359120000000 1.0
C      1  0.5015720000000  0.5919760000000  0.5361560000000 1.0
C      1  0.4253910000000  0.4605250000000  0.5356250000000 1.0
C      1  0.5201150000000  0.5726800000000  0.5937180000000 1.0
C      1  0.4219070000000  0.4765660000000  0.5880070000000 1.0
C      1  0.5621010000000  0.4429160000000  0.5887820000000 1.0
C      1  0.4127690000000  0.5081550000000  0.5210370000000 1.0
C      1  0.5389970000000  0.4214980000000  0.5104770000000 1.0
C      1  0.5384680000000  0.5681050000000  0.5192710000000 1.0
C      1  0.4829210000000  0.5894050000000  0.4260560000000 1.0
C      1  0.4341550000000  0.4431940000000  0.4366440000000 1.0
C      1  0.5843970000000  0.4652950000000  0.4323080000000 1.0
C      1  0.4721980000000  0.5334870000000  0.5891790000000 1.0
C      1  0.4867880000000  0.4585530000000  0.5892830000000 1.0
C      1  0.5402550000000  0.5030680000000  0.5954650000000 1.0
C      1  0.4252390000000  0.5392700000000  0.5152980000000 1.0
C      1  0.4868230000000  0.4158370000000  0.5152780000000 1.0
C      1  0.5723770000000  0.5335610000000  0.5189030000000 1.0
C      1  0.5282970000000  0.5758640000000  0.4293680000000 1.0
C      1  0.4175560000000  0.4865760000000  0.4341890000000 1.0
C      1  0.5554690000000  0.4282270000000  0.4324930000000 1.0
C      1  0.5139970000000  0.5051920000000  0.6129440000000 1.0
C      1  0.4828270000000  0.5092110000000  0.6090820000000 1.0
C      1  0.4949940000000  0.4785420000000  0.6145890000000 1.0
C      1  0.5913720000000  0.5464780000000  0.5027880000000 1.0
C      1  0.4109470000000  0.5686030000000  0.5134410000000 1.0
C      1  0.4969390000000  0.3903730000000  0.5036830000000 1.0
C      1  0.5514590000000  0.5219440000000  0.4989790000000 1.0
C      1  0.4396230000000  0.5441710000000  0.4875720000000 1.0
C      1  0.4921720000000  0.4370760000000  0.4961330000000 1.0
C      1  0.4003160000000  0.4479130000000  0.5012050000000 1.0
C      1  0.5788830000000  0.4128920000000  0.4839660000000 1.0
C      1  0.5361170000000  0.6021790000000  0.4988780000000 1.0
C      1  0.3870370000000  0.5514740000000  0.5088930000000 1.0
C      1  0.5241470000000  0.3931370000000  0.4996180000000 1.0
C      1  0.5874000000000  0.5748450000000  0.5022170000000 1.0
C      1  0.5251190000000  0.5343060000000  0.4501840000000 1.0
C      1  0.4611110000000  0.5055070000000  0.4552020000000 1.0
C      1  0.5246580000000  0.4480440000000  0.4523930000000 1.0
C      1  0.5348330000000  0.5652640000000  0.5572010000000 1.0
C      1  0.4199850000000  0.5202780000000  0.5697190000000 1.0
C      1  0.5341820000000  0.4393930000000  0.5564530000000 1.0
C      1  0.4883250000000  0.5543870000000  0.5053390000000 1.0
C      1  0.4641080000000  0.4774030000000  0.5100280000000 1.0
C      1  0.5363120000000  0.4753770000000  0.5104190000000 1.0
C      1  0.5151760000000  0.4525180000000  0.6070680000000 1.0
C      1  0.5343150000000  0.5304870000000  0.6138520000000 1.0
C      1  0.4507020000000  0.5125200000000  0.6046690000000 1.0
C      1  0.4803390000000  0.5598750000000  0.4192660000000 1.0
C      1  0.4600330000000  0.4570690000000  0.4352460000000 1.0
C      1  0.5581900000000  0.4805310000000  0.4368370000000 1.0
C      1  0.5122490000000  0.4071570000000  0.4381670000000 1.0
C      1  0.5712640000000  0.5514100000000  0.4370360000000 1.0
C      1  0.4213920000000  0.5331520000000  0.4373330000000 1.0
C      1  0.4821810000000  0.4568360000000  0.4126250000000 1.0
C      1  0.5472200000000  0.5011920000000  0.4121570000000 1.0
C      1  0.4659580000000  0.5365570000000  0.3991240000000 1.0
C      1  0.5899550000000  0.4871220000000  0.5121510000000 1.0
C      1  0.4541930000000  0.6117600000000  0.5273730000000 1.0
C      1  0.4366330000000  0.4062560000000  0.5172700000000 1.0
C      1  0.4626180000000  0.4753140000000  0.4559710000000 1.0
C      1  0.5507460000000  0.4662230000000  0.4644960000000 1.0
C      1  0.4995140000000  0.5540700000000  0.4564550000000 1.0
C      1  0.4563730000000  0.5964790000000  0.4343120000000 1.0
C      1  0.4497200000000  0.4185360000000  0.4364700000000 1.0
C      1  0.5965410000000  0.4912060000000  0.4387960000000 1.0
C      1  0.5204670000000  0.5038750000000  0.3885990000000 1.0
C      1  0.4876570000000  0.5130340000000  0.3944980000000 1.0
C      1  0.4961650000000  0.4822440000000  0.3984790000000 1.0
C      1  0.4420410000000  0.4944430000000  0.4171780000000 1.0
C      1  0.5389960000000  0.4460340000000  0.4152540000000 1.0
C      1  0.5239500000000  0.5544080000000  0.4082620000000 1.0
C      1  0.5773750000000  0.4407980000000  0.4456920000000 1.0
C      1  0.5065760000000  0.5903630000000  0.4413690000000 1.0
C      1  0.4171380000000  0.4618450000000  0.4492580000000 1.0
C      1  0.5683760000000  0.6072200000000  0.5469750000000 1.0
C      1  0.3789500000000  0.4970980000000  0.5566910000000 1.0
C      1  0.5564760000000  0.3951130000000  0.5507730000000 1.0
C      1  0.4972340000000  0.4757680000000  0.5030750000000 1.0
C      1  0.5155220000000  0.5009360000000  0.4970390000000 1.0
C      1  0.4956120000000  0.5236220000000  0.5087150000000 1.0
C      1  0.5074770000000  0.4375930000000  0.4248420000000 1.0
C      1  0.5459980000000  0.5332930000000  0.4233640000000 1.0
C      1  0.4530470000000  0.5246680000000  0.4282780000000 1.0
C      1  0.5060710000000  0.4735400000000  0.4582670000000 1.0
C      1  0.5198150000000  0.5039960000000  0.4646670000000 1.0
C      1  0.4900250000000  0.5155060000000  0.4529800000000 1.0
C      1  0.4762040000000  0.4325530000000  0.5724920000000 1.0
C      1  0.5656600000000  0.5115750000000  0.5778720000000 1.0
C      1  0.4556340000000  0.5573200000000  0.5766510000000 1.0
C      1  0.5532500000000  0.5056010000000  0.4707500000000 1.0
C      1  0.4668610000000  0.5489860000000  0.4484200000000 1.0
C      1  0.4873310000000  0.4463220000000  0.4663880000000 1.0
C      1  0.5985360000000  0.4619980000000  0.5312900000000 1.0
C      1  0.4840410000000  0.6141440000000  0.5383880000000 1.0
C      1  0.4165700000000  0.4319000000000  0.5248480000000 1.0
C      1  0.4768530000000  0.4968670000000  0.5493520000000 1.0
C      1  0.5085650000000  0.4870950000000  0.5526800000000 1.0
C      1  0.5008000000000  0.5190340000000  0.5479850000000 1.0
C      1  0.4734760000000  0.4215560000000  0.4516100000000 1.0
C      1  0.5800470000000  0.5094000000000  0.4534850000000 1.0
C      1  0.4448110000000  0.5748610000000  0.4489070000000 1.0
C      1  0.4345080000000  0.4153990000000  0.5481880000000 1.0
C      1  0.5974180000000  0.4896030000000  0.5455100000000 1.0
C      1  0.4611660000000  0.6042990000000  0.5584300000000 1.0
C      1  0.5887750000000  0.5372340000000  0.4535950000000 1.0
C      1  0.4295530000000  0.5705170000000  0.4712160000000 1.0
C      1  0.4900780000000  0.3970420000000  0.4544560000000 1.0
C      1  0.5622840000000  0.5872580000000  0.5043690000000 1.0
C      1  0.3899060000000  0.5244640000000  0.5040220000000 1.0
C      1  0.5577820000000  0.3978530000000  0.4948420000000 1.0
C      1  0.4698960000000  0.5803060000000  0.5704060000000 1.0
C      1  0.4499070000000  0.4322570000000  0.5643900000000 1.0
C      1  0.5786900000000  0.4898380000000  0.5661320000000 1.0
C      1  0.5352930000000  0.4273250000000  0.4771710000000 1.0
C      1  0.5359270000000  0.5546550000000  0.4722030000000 1.0
C      1  0.4327460000000  0.4963130000000  0.4716080000000 1.0
C      1  0.4765580000000  0.5477100000000  0.5342340000000 1.0
C      1  0.4704830000000  0.4597670000000  0.5362690000000 1.0
C      1  0.5508240000000  0.4865190000000  0.5378610000000 1.0
C      1  0.5394910000000  0.4417890000000  0.6056350000000 1.0
C      1  0.5373220000000  0.5514970000000  0.5948530000000 1.0
C      1  0.4284140000000  0.5039350000000  0.5909660000000 1.0
C      1  0.5342630000000  0.4884490000000  0.5690760000000 1.0
C      1  0.4904500000000  0.5429710000000  0.5632530000000 1.0
C      1  0.4665590000000  0.4706760000000  0.5654890000000 1.0
C      1  0.4497420000000  0.5989490000000  0.5030960000000 1.0
C      1  0.4488240000000  0.4109290000000  0.4922860000000 1.0
C      1  0.6047870000000  0.5009970000000  0.4875210000000 1.0
C      1  0.4113260000000  0.5106660000000  0.4505220000000 1.0
C      1  0.5388560000000  0.4110920000000  0.4489600000000 1.0
C      1  0.5481970000000  0.5668970000000  0.4480000000000 1.0
C      1  0.5569160000000  0.4639410000000  0.5625690000000 1.0
C      1  0.5028260000000  0.5737290000000  0.5649770000000 1.0
C      1  0.4359910000000  0.4613340000000  0.5654390000000 1.0
C      1  0.6004180000000  0.5293140000000  0.4814400000000 1.0
C      1  0.4254010000000  0.5856500000000  0.4959660000000 1.0
C      1  0.4745630000000  0.3964580000000  0.4826100000000 1.0
C      1  0.5740650000000  0.4462250000000  0.4791100000000 1.0
C      1  0.5012230000000  0.5825840000000  0.4728970000000 1.0
C      1  0.4225010000000  0.4658200000000  0.4826620000000 1.0
C      1  0.5155450000000  0.5077700000000  0.4220420000000 1.0
C      1  0.4942660000000  0.5294540000000  0.4253640000000 1.0
C      1  0.5134150000000  0.4768590000000  0.4272790000000 1.0
C      1  0.4677380000000  0.5572900000000  0.4813900000000 1.0
C      1  0.4621720000000  0.4607210000000  0.4829620000000 1.0
C      1  0.5634150000000  0.4829040000000  0.4913170000000 1.0
C      1  0.5193870000000  0.4526520000000  0.4916200000000 1.0
C      1  0.5296760000000  0.5448640000000  0.4998060000000 1.0
C      1  0.4465620000000  0.5142460000000  0.4928510000000 1.0
C      1  0.4571350000000  0.4769150000000  0.4012120000000 1.0
C      1  0.5446760000000  0.4691240000000  0.4010880000000 1.0
C      1  0.4978300000000  0.5509510000000  0.3919490000000 1.0
C      1  0.5099210000000  0.5806620000000  0.5057220000000 1.0
C      1  0.4303460000000  0.4809530000000  0.5121090000000 1.0
C      1  0.5567040000000  0.4481660000000  0.5094730000000 1.0
C      1  0.4379380000000  0.5400390000000  0.5614750000000 1.0
C      1  0.5075270000000  0.4364090000000  0.5632310000000 1.0
C      1  0.5493420000000  0.5380840000000  0.5661370000000 1.0
C      1  0.4718400000000  0.5886930000000  0.4890820000000 1.0
C      1  0.4416550000000  0.4377760000000  0.4846360000000 1.0
C      1  0.6000020000000  0.4684570000000  0.4788940000000 1.0
C      1  0.4487400000000  0.5342180000000  0.5342630000000 1.0
C      1  0.4913530000000  0.4377570000000  0.5359960000000 1.0
C      1  0.5508550000000  0.5193590000000  0.5387780000000 1.0
END
