TITL C-2622954-8726-279 0.00101757270498968 125000 -348.068125385383 0 0 60 (C1) n - 1
REM
REM in /nfs/bkarasulu/CARBON/AIRSS/Generating-Clusters/AIREBO/with-SteepDescent/Higher-Symm/SD-CG/HFTN-CG
REM
REM
REM
REM
REM
REM ./C.cell (b20cbc046b6831c77cfcea5457e17084)
REM
REM compiler GCC version 9.2.1 20190827 (Red Hat 9.2.1-1)
REM options -cpp -mtune=generic -march=x86-64 -g -O0 -fpre-include=/usr/include/finclude/math-vector-fortran.h
REM seed 874957649 -1869155560 -1101058635 922745157 703877901 -1377481513 1615890245 -1860335287 -1144099274 289589658 -1989062587 -518582401 -1119711830 -1367646228 211311778 1944554970 -1543163681 1715547978 1443949152 1143559202 -1431519965 -1545404773 -1360418628 351895961 1534923435 951639183 -1848376096 402547910 -1242879677 93136447 1586745209 478217270 -1510559108
REM
CELL 1.54180   50.00000   50.00000   50.00000   90.00000   90.00000   90.00000
LATT -1
SFAC C  
C      1  0.5541830000000  0.4720400000000  0.5432660000000 1.0
C      1  0.5549790000000  0.5341250000000  0.5416190000000 1.0
C      1  0.5509980000000  0.5383200000000  0.4860670000000 1.0
C      1  0.5531750000000  0.5074680000000  0.4413680000000 1.0
C      1  0.5508490000000  0.4498910000000  0.4781890000000 1.0
C      1  0.4445600000000  0.4593910000000  0.5424630000000 1.0
C      1  0.4418810000000  0.5212760000000  0.5469880000000 1.0
C      1  0.4491670000000  0.5506800000000  0.4857980000000 1.0
C      1  0.4414240000000  0.4994230000000  0.4460170000000 1.0
C      1  0.4474540000000  0.4609800000000  0.4899050000000 1.0
C      1  0.4806870000000  0.5549060000000  0.5318360000000 1.0
C      1  0.4868320000000  0.5483150000000  0.4517830000000 1.0
C      1  0.4839510000000  0.4725540000000  0.4416970000000 1.0
C      1  0.4809950000000  0.4309850000000  0.5083400000000 1.0
C      1  0.4821000000000  0.4827800000000  0.5589890000000 1.0
C      1  0.5139780000000  0.5577280000000  0.5305230000000 1.0
C      1  0.5198180000000  0.5510390000000  0.4508270000000 1.0
C      1  0.5166210000000  0.4775080000000  0.4447940000000 1.0
C      1  0.5124980000000  0.4407040000000  0.5085490000000 1.0
C      1  0.5141550000000  0.4878180000000  0.5639850000000 1.0
C      1  0.5444020000000  0.5351940000000  0.5134720000000 1.0
C      1  0.5500120000000  0.5095100000000  0.4718680000000 1.0
C      1  0.5539810000000  0.4806040000000  0.4862960000000 1.0
C      1  0.5643640000000  0.4820160000000  0.5138510000000 1.0
C      1  0.5549440000000  0.5042520000000  0.5364550000000 1.0
C      1  0.4540830000000  0.5236470000000  0.5027860000000 1.0
C      1  0.4556660000000  0.5132590000000  0.4736680000000 1.0
C      1  0.4565880000000  0.4806360000000  0.4697280000000 1.0
C      1  0.4454720000000  0.4773650000000  0.5174040000000 1.0
C      1  0.4387740000000  0.5076040000000  0.5229650000000 1.0
C      1  0.4855300000000  0.5153270000000  0.5667020000000 1.0
C      1  0.4891470000000  0.5661940000000  0.5008690000000 1.0
C      1  0.4824340000000  0.5220800000000  0.4304500000000 1.0
C      1  0.4791920000000  0.4433160000000  0.4586900000000 1.0
C      1  0.4865780000000  0.4385000000000  0.5387320000000 1.0
C      1  0.5153860000000  0.5215900000000  0.5681340000000 1.0
C      1  0.5188440000000  0.5706430000000  0.4991990000000 1.0
C      1  0.5122300000000  0.5261030000000  0.4306430000000 1.0
C      1  0.5093500000000  0.4472830000000  0.4585730000000 1.0
C      1  0.5163430000000  0.4431330000000  0.5423220000000 1.0
C      1  0.5160970000000  0.5210010000000  0.5119110000000 1.0
C      1  0.5181500000000  0.5160800000000  0.4817800000000 1.0
C      1  0.5210400000000  0.4825070000000  0.4772350000000 1.0
C      1  0.5090010000000  0.4714870000000  0.5064650000000 1.0
C      1  0.5249230000000  0.4926840000000  0.5254570000000 1.0
C      1  0.4827580000000  0.5256590000000  0.5167690000000 1.0
C      1  0.4874910000000  0.5223590000000  0.4699840000000 1.0
C      1  0.4879310000000  0.4904250000000  0.4779500000000 1.0
C      1  0.4765030000000  0.4818880000000  0.5075500000000 1.0
C      1  0.4919620000000  0.4967940000000  0.5319610000000 1.0
C      1  0.4702430000000  0.4968150000000  0.4355500000000 1.0
C      1  0.4667710000000  0.4403280000000  0.4856290000000 1.0
C      1  0.4695850000000  0.4562500000000  0.5533730000000 1.0
C      1  0.4678530000000  0.5321820000000  0.5532420000000 1.0
C      1  0.4733400000000  0.5614250000000  0.4785330000000 1.0
C      1  0.5282640000000  0.5023100000000  0.4304210000000 1.0
C      1  0.5256920000000  0.4394560000000  0.4798230000000 1.0
C      1  0.5293770000000  0.4653100000000  0.5542310000000 1.0
C      1  0.5275520000000  0.5419530000000  0.5502860000000 1.0
C      1  0.5318450000000  0.5568990000000  0.4760420000000 1.0
END
