TITL C-2622954-8726-68 0.00218439434639914 125000 -540.243861021608 0 0 101 (C1) n - 1
REM
REM in /nfs/bkarasulu/CARBON/AIRSS/Generating-Clusters/AIREBO/with-SteepDescent/Higher-Symm/SD-CG/HFTN-CG
REM
REM
REM
REM
REM
REM ./C.cell (b20cbc046b6831c77cfcea5457e17084)
REM
REM compiler GCC version 9.2.1 20190827 (Red Hat 9.2.1-1)
REM options -cpp -mtune=generic -march=x86-64 -g -O0 -fpre-include=/usr/include/finclude/math-vector-fortran.h
REM seed -511872130 -1662548578 -36598234 -460920689 1279633537 -1810628277 1353745412 -1490389061 -163870406 1752620260 506321917 -1763319137 -1885416801 -921756558 -1120446956 1894316133 1904861813 -1891955918 -584520988 1135199222 1160756915 -986912417 1646944628 814522262 -265509935 -2066890785 -1187708059 1979257705 -1750921111 2021673870 962825514 -1077358015 -1115202424
REM
CELL 1.54180   50.00000   50.00000   50.00000   90.00000   90.00000   90.00000
LATT -1
SFAC C  
C      1  0.4240410000000  0.4922430000000  0.5089810000000 1.0
C      1  0.5289700000000  0.5425180000000  0.4192780000000 1.0
C      1  0.5814090000000  0.5106920000000  0.5192190000000 1.0
C      1  0.4639620000000  0.4327400000000  0.5129500000000 1.0
C      1  0.5461940000000  0.4523870000000  0.5573780000000 1.0
C      1  0.4432000000000  0.5517720000000  0.4771380000000 1.0
C      1  0.4170430000000  0.4964760000000  0.4789860000000 1.0
C      1  0.4420150000000  0.5690960000000  0.5497020000000 1.0
C      1  0.4834980000000  0.4640280000000  0.4975880000000 1.0
C      1  0.4542100000000  0.4750150000000  0.4840310000000 1.0
C      1  0.5362790000000  0.5710440000000  0.4869490000000 1.0
C      1  0.4772350000000  0.4923030000000  0.4695680000000 1.0
C      1  0.4657380000000  0.4381020000000  0.4559840000000 1.0
C      1  0.5012750000000  0.4355270000000  0.4914850000000 1.0
C      1  0.4098200000000  0.5159480000000  0.5238240000000 1.0
C      1  0.4937350000000  0.4315690000000  0.5467160000000 1.0
C      1  0.4874690000000  0.4817230000000  0.5263750000000 1.0
C      1  0.4314300000000  0.5435980000000  0.5046360000000 1.0
C      1  0.5286590000000  0.5718840000000  0.5480030000000 1.0
C      1  0.5404260000000  0.4690000000000  0.5866220000000 1.0
C      1  0.5189150000000  0.4946780000000  0.5258000000000 1.0
C      1  0.5864520000000  0.4619550000000  0.4730460000000 1.0
C      1  0.4408070000000  0.5693710000000  0.5218410000000 1.0
C      1  0.5639490000000  0.5541610000000  0.4972200000000 1.0
C      1  0.4888640000000  0.4797810000000  0.4455930000000 1.0
C      1  0.5220950000000  0.4726500000000  0.4470130000000 1.0
C      1  0.4597850000000  0.4621940000000  0.5294430000000 1.0
C      1  0.5595040000000  0.5043760000000  0.5420070000000 1.0
C      1  0.5155570000000  0.5474050000000  0.5676370000000 1.0
C      1  0.4783870000000  0.5033240000000  0.5017180000000 1.0
C      1  0.4889640000000  0.5644680000000  0.4700800000000 1.0
C      1  0.5186260000000  0.4152320000000  0.5377940000000 1.0
C      1  0.5267250000000  0.4798010000000  0.5523120000000 1.0
C      1  0.5555710000000  0.4668000000000  0.4483850000000 1.0
C      1  0.5455150000000  0.5563780000000  0.5228690000000 1.0
C      1  0.5627720000000  0.4933630000000  0.4284200000000 1.0
C      1  0.4316030000000  0.4414690000000  0.5101760000000 1.0
C      1  0.5781800000000  0.5288540000000  0.4970920000000 1.0
C      1  0.4881620000000  0.5586370000000  0.5797990000000 1.0
C      1  0.5088410000000  0.4531290000000  0.4148400000000 1.0
C      1  0.4664830000000  0.4581540000000  0.4361390000000 1.0
C      1  0.3975330000000  0.5166830000000  0.4781860000000 1.0
C      1  0.5461690000000  0.5365850000000  0.5575350000000 1.0
C      1  0.5171500000000  0.5734180000000  0.5150360000000 1.0
C      1  0.4624150000000  0.5473460000000  0.5661000000000 1.0
C      1  0.5426540000000  0.4290240000000  0.5381900000000 1.0
C      1  0.4274550000000  0.4684500000000  0.5257490000000 1.0
C      1  0.4593920000000  0.5403350000000  0.4345760000000 1.0
C      1  0.4446190000000  0.5329170000000  0.4573430000000 1.0
C      1  0.4863630000000  0.5734330000000  0.5211140000000 1.0
C      1  0.5444140000000  0.4996720000000  0.5724890000000 1.0
C      1  0.4932740000000  0.4586630000000  0.5507000000000 1.0
C      1  0.4790320000000  0.5633790000000  0.4265300000000 1.0
C      1  0.4787760000000  0.4570400000000  0.5878600000000 1.0
C      1  0.5047760000000  0.5317690000000  0.5394320000000 1.0
C      1  0.5092220000000  0.5563080000000  0.4368840000000 1.0
C      1  0.4255240000000  0.5212800000000  0.5454840000000 1.0
C      1  0.5008820000000  0.4888540000000  0.3977740000000 1.0
C      1  0.4492540000000  0.5151650000000  0.5102170000000 1.0
C      1  0.5457650000000  0.5189330000000  0.4358120000000 1.0
C      1  0.4406700000000  0.5022650000000  0.5615130000000 1.0
C      1  0.5387000000000  0.5234240000000  0.4937270000000 1.0
C      1  0.4515810000000  0.4431320000000  0.4827590000000 1.0
C      1  0.4922640000000  0.4309710000000  0.4601770000000 1.0
C      1  0.5809180000000  0.4887070000000  0.4547240000000 1.0
C      1  0.4812540000000  0.4627120000000  0.4102830000000 1.0
C      1  0.4451940000000  0.5028690000000  0.4662710000000 1.0
C      1  0.4548100000000  0.4588280000000  0.5809190000000 1.0
C      1  0.5520980000000  0.4374270000000  0.5127960000000 1.0
C      1  0.5634480000000  0.4720200000000  0.5387410000000 1.0
C      1  0.5113480000000  0.4406460000000  0.4423440000000 1.0
C      1  0.5435530000000  0.4437430000000  0.4657660000000 1.0
C      1  0.4652590000000  0.5140240000000  0.5683660000000 1.0
C      1  0.4815700000000  0.5479550000000  0.5310930000000 1.0
C      1  0.5237390000000  0.5110190000000  0.4106330000000 1.0
C      1  0.5121210000000  0.5426610000000  0.5014410000000 1.0
C      1  0.5358370000000  0.5241250000000  0.5276230000000 1.0
C      1  0.5535310000000  0.5258980000000  0.4657520000000 1.0
C      1  0.5288410000000  0.4542460000000  0.4945640000000 1.0
C      1  0.5004180000000  0.5336900000000  0.4612610000000 1.0
C      1  0.5952600000000  0.4869050000000  0.5151020000000 1.0
C      1  0.4846120000000  0.5249210000000  0.4350330000000 1.0
C      1  0.5414570000000  0.4777230000000  0.5152400000000 1.0
C      1  0.5075790000000  0.5118510000000  0.4863840000000 1.0
C      1  0.5764740000000  0.4596550000000  0.5098720000000 1.0
C      1  0.5262410000000  0.4842330000000  0.4787180000000 1.0
C      1  0.4902670000000  0.5039430000000  0.5519960000000 1.0
C      1  0.4640500000000  0.5705110000000  0.4806010000000 1.0
C      1  0.4920240000000  0.4186360000000  0.5165230000000 1.0
C      1  0.4008350000000  0.5338290000000  0.5014460000000 1.0
C      1  0.5156300000000  0.5137690000000  0.5726930000000 1.0
C      1  0.5815070000000  0.5151160000000  0.4702340000000 1.0
C      1  0.4420790000000  0.4725620000000  0.5561490000000 1.0
C      1  0.4879080000000  0.5003130000000  0.4243950000000 1.0
C      1  0.5596020000000  0.4778670000000  0.4865440000000 1.0
C      1  0.4633260000000  0.5810390000000  0.5073770000000 1.0
C      1  0.5287990000000  0.4784970000000  0.4141900000000 1.0
C      1  0.5196610000000  0.5720610000000  0.4647830000000 1.0
C      1  0.5072010000000  0.4700880000000  0.5784060000000 1.0
C      1  0.4544070000000  0.5340250000000  0.5358500000000 1.0
C      1  0.5268960000000  0.4189980000000  0.4760610000000 1.0
END
