TITL C-2622960-5345-591 -5.48088955990573e-05 125000 -228.481696371461 0 0 44 (C1) n - 1
REM
REM in /nfs/bkarasulu/CARBON/AIRSS/Generating-Clusters/AIREBO/with-SteepDescent/Higher-Symm/SD-CG/HFTN-CG
REM
REM
REM
REM
REM
REM ./C.cell (b20cbc046b6831c77cfcea5457e17084)
REM
REM compiler GCC version 9.2.1 20190827 (Red Hat 9.2.1-1)
REM options -cpp -mtune=generic -march=x86-64 -g -O0 -fpre-include=/usr/include/finclude/math-vector-fortran.h
REM seed -284733758 1862316841 -837568824 1304383853 1147461723 -42409826 -108667696 -650845278 -1804948301 -191166770 -2047331383 1273751589 -1514087859 467044084 -1970993087 768196985 60755598 71997160 -1964001574 966145030 292015094 1413265876 -706715188 -1396825066 572469929 983812360 -1045385034 2018436434 1009312245 -958673108 -101866207 -370683234 -1571260155
REM
CELL 1.54180   50.00000   50.00000   50.00000   90.00000   90.00000   90.00000
LATT -1
SFAC C  
C      1  0.4514350000000  0.4931090000000  0.5640820000000 1.0
C      1  0.4594450000000  0.4385430000000  0.5139430000000 1.0
C      1  0.4512820000000  0.4675620000000  0.4470880000000 1.0
C      1  0.4366600000000  0.5399360000000  0.4539670000000 1.0
C      1  0.4412360000000  0.5550440000000  0.5281410000000 1.0
C      1  0.5392860000000  0.5001790000000  0.5573520000000 1.0
C      1  0.5324010000000  0.4451730000000  0.5122880000000 1.0
C      1  0.5269640000000  0.4771020000000  0.4487500000000 1.0
C      1  0.5561000000000  0.5267560000000  0.4630610000000 1.0
C      1  0.5308090000000  0.5511970000000  0.5147000000000 1.0
C      1  0.5552130000000  0.5190400000000  0.4926130000000 1.0
C      1  0.5165500000000  0.5267580000000  0.5228630000000 1.0
C      1  0.5239590000000  0.4866510000000  0.5317790000000 1.0
C      1  0.5224190000000  0.4637410000000  0.4914460000000 1.0
C      1  0.5184040000000  0.5012150000000  0.4653260000000 1.0
C      1  0.4862940000000  0.5021320000000  0.4671010000000 1.0
C      1  0.4681290000000  0.5488720000000  0.4767400000000 1.0
C      1  0.4843300000000  0.5258200000000  0.5196630000000 1.0
C      1  0.4936080000000  0.4862160000000  0.5360640000000 1.0
C      1  0.4938370000000  0.4743210000000  0.4947610000000 1.0
C      1  0.4725580000000  0.4724750000000  0.4703970000000 1.0
C      1  0.4632720000000  0.5204300000000  0.4606380000000 1.0
C      1  0.4638650000000  0.5445150000000  0.5079680000000 1.0
C      1  0.4724380000000  0.5085470000000  0.5444420000000 1.0
C      1  0.4776690000000  0.4643300000000  0.5201500000000 1.0
C      1  0.4412330000000  0.4430710000000  0.4964840000000 1.0
C      1  0.4317720000000  0.4842270000000  0.4485440000000 1.0
C      1  0.4225310000000  0.5428580000000  0.4753880000000 1.0
C      1  0.4290080000000  0.5350240000000  0.5387450000000 1.0
C      1  0.4380090000000  0.4753670000000  0.5510990000000 1.0
C      1  0.5546610000000  0.5459400000000  0.5068620000000 1.0
C      1  0.5238690000000  0.5216340000000  0.5511620000000 1.0
C      1  0.5351670000000  0.4574130000000  0.5344330000000 1.0
C      1  0.5296310000000  0.4565250000000  0.4637580000000 1.0
C      1  0.5330050000000  0.5240760000000  0.4526580000000 1.0
C      1  0.4360350000000  0.5264900000000  0.5004120000000 1.0
C      1  0.4427450000000  0.5074730000000  0.5278660000000 1.0
C      1  0.4455770000000  0.4756980000000  0.5190240000000 1.0
C      1  0.4422540000000  0.4740590000000  0.4856770000000 1.0
C      1  0.4358270000000  0.5052600000000  0.4737930000000 1.0
C      1  0.5290220000000  0.4987460000000  0.5003780000000 1.0
C      1  0.5624850000000  0.4898820000000  0.5060500000000 1.0
C      1  0.4960330000000  0.5066140000000  0.4979080000000 1.0
C      1  0.5797500000000  0.4725020000000  0.5124350000000 1.0
END
