TITL C-2622963-3633-235 -0.000712490118638305 125000 -360.759725507539 0 0 65 (C1) n - 1
REM
REM in /nfs/bkarasulu/CARBON/AIRSS/Generating-Clusters/AIREBO/with-SteepDescent/Higher-Symm/SD-CG/HFTN-CG
REM
REM
REM
REM
REM
REM ./C.cell (b20cbc046b6831c77cfcea5457e17084)
REM
REM compiler GCC version 9.2.1 20190827 (Red Hat 9.2.1-1)
REM options -cpp -mtune=generic -march=x86-64 -g -O0 -fpre-include=/usr/include/finclude/math-vector-fortran.h
REM seed 1477167469 -2074927291 -383024972 1319457489 1587095884 -2139735938 -1049597941 -274730033 -891349032 1189100775 612314463 -1149535155 1097881874 -991356064 529559028 1912046502 -180490146 473706371 1475961724 991680877 1026251689 603790045 -109336490 -857300349 182827101 1632939289 1340579821 -368109857 1829726186 1244114664 2128705048 -1572334325 -350785168
REM
CELL 1.54180   50.00000   50.00000   50.00000   90.00000   90.00000   90.00000
LATT -1
SFAC C  
C      1  0.5212050000000  0.5174000000000  0.5688390000000 1.0
C      1  0.5532770000000  0.5137550000000  0.4443200000000 1.0
C      1  0.4294530000000  0.5156150000000  0.4781650000000 1.0
C      1  0.5612610000000  0.5518130000000  0.5100760000000 1.0
C      1  0.4953810000000  0.5493590000000  0.4411260000000 1.0
C      1  0.4552190000000  0.5529280000000  0.5415010000000 1.0
C      1  0.4691450000000  0.5113580000000  0.4179630000000 1.0
C      1  0.4326480000000  0.4833250000000  0.5745040000000 1.0
C      1  0.5981370000000  0.4913750000000  0.5333160000000 1.0
C      1  0.4680970000000  0.5798030000000  0.5036630000000 1.0
C      1  0.5147390000000  0.5739870000000  0.5025730000000 1.0
C      1  0.4919290000000  0.5826170000000  0.4850150000000 1.0
C      1  0.4543160000000  0.5271480000000  0.5316770000000 1.0
C      1  0.5495040000000  0.5256440000000  0.5253390000000 1.0
C      1  0.4984530000000  0.5156740000000  0.4446910000000 1.0
C      1  0.4806590000000  0.4459780000000  0.4861150000000 1.0
C      1  0.4837550000000  0.4233280000000  0.5115640000000 1.0
C      1  0.5106570000000  0.4358350000000  0.4955270000000 1.0
C      1  0.5259590000000  0.4689110000000  0.4563740000000 1.0
C      1  0.4357280000000  0.4734220000000  0.5063980000000 1.0
C      1  0.5323800000000  0.4768630000000  0.5455910000000 1.0
C      1  0.4467890000000  0.4466740000000  0.4885580000000 1.0
C      1  0.5222300000000  0.4512620000000  0.5425970000000 1.0
C      1  0.5321960000000  0.4464800000000  0.4736060000000 1.0
C      1  0.5033730000000  0.5524360000000  0.5245320000000 1.0
C      1  0.5190180000000  0.5421090000000  0.4841960000000 1.0
C      1  0.4700930000000  0.5493700000000  0.4869770000000 1.0
C      1  0.4757220000000  0.4849270000000  0.4205750000000 1.0
C      1  0.4530280000000  0.4805790000000  0.5592010000000 1.0
C      1  0.5765240000000  0.4886140000000  0.5201260000000 1.0
C      1  0.5171350000000  0.4903080000000  0.5641880000000 1.0
C      1  0.5437800000000  0.4919860000000  0.4670770000000 1.0
C      1  0.4437260000000  0.4849920000000  0.4777830000000 1.0
C      1  0.4543420000000  0.4682160000000  0.4258840000000 1.0
C      1  0.4856860000000  0.4804110000000  0.5631480000000 1.0
C      1  0.5645070000000  0.4811380000000  0.4906130000000 1.0
C      1  0.5001610000000  0.4819500000000  0.4407990000000 1.0
C      1  0.4591530000000  0.4787590000000  0.5283670000000 1.0
C      1  0.5431710000000  0.4923570000000  0.5224980000000 1.0
C      1  0.4685270000000  0.5082490000000  0.4773730000000 1.0
C      1  0.4801510000000  0.5019480000000  0.5150180000000 1.0
C      1  0.5264010000000  0.4917150000000  0.4954840000000 1.0
C      1  0.5298340000000  0.4352660000000  0.5211730000000 1.0
C      1  0.4885280000000  0.4708520000000  0.4699160000000 1.0
C      1  0.4602230000000  0.4464500000000  0.5200400000000 1.0
C      1  0.4508470000000  0.4597020000000  0.4576890000000 1.0
C      1  0.4967700000000  0.4504080000000  0.5546760000000 1.0
C      1  0.5573230000000  0.4509110000000  0.4877090000000 1.0
C      1  0.5567240000000  0.4352910000000  0.5115540000000 1.0
C      1  0.4806340000000  0.4476430000000  0.4465580000000 1.0
C      1  0.4784420000000  0.4326480000000  0.5431940000000 1.0
C      1  0.4774050000000  0.5091860000000  0.5467010000000 1.0
C      1  0.5607880000000  0.5148300000000  0.4951320000000 1.0
C      1  0.4655140000000  0.5237480000000  0.4471900000000 1.0
C      1  0.5249910000000  0.5279830000000  0.4568890000000 1.0
C      1  0.4513960000000  0.5258770000000  0.5010220000000 1.0
C      1  0.5258040000000  0.5371320000000  0.5420200000000 1.0
C      1  0.4353540000000  0.5298960000000  0.4545990000000 1.0
C      1  0.4958710000000  0.5314970000000  0.5575810000000 1.0
C      1  0.5551490000000  0.5298390000000  0.4724850000000 1.0
C      1  0.5424890000000  0.5625240000000  0.4936720000000 1.0
C      1  0.4864000000000  0.5640990000000  0.4615920000000 1.0
C      1  0.4755390000000  0.5689020000000  0.5298820000000 1.0
C      1  0.4968910000000  0.4935300000000  0.4890240000000 1.0
C      1  0.4923240000000  0.5309520000000  0.5021090000000 1.0
END
