TITL C-2622956-4641-514 337.25978009721 125000 -874.056678128725 0 0 172 (C1) n - 1
REM
REM in /nfs/bkarasulu/CARBON/AIRSS/Generating-Clusters/AIREBO/with-SteepDescent/Higher-Symm/SD-CG/HFTN-CG
REM
REM
REM
REM
REM
REM ./C.cell (b20cbc046b6831c77cfcea5457e17084)
REM
REM compiler GCC version 9.2.1 20190827 (Red Hat 9.2.1-1)
REM options -cpp -mtune=generic -march=x86-64 -g -O0 -fpre-include=/usr/include/finclude/math-vector-fortran.h
REM seed 1188405950 685546818 1180074503 417195036 -1951387186 -531135373 280032371 1096423150 552346311 1547567338 1006347377 563688740 -2144929298 -1746523333 -1755104418 -629329518 -183777738 -1588123340 -43156325 1394019499 -204164283 1008928615 -1335731582 638849686 1495783722 -339241583 -519357524 -1567193207 571841862 1555677795 1638169529 -1739398025 1878477405
REM
CELL 1.54180   50.00000   50.00000   50.00000   90.00000   90.00000   90.00000
LATT -1
SFAC C  
C      1  0.4623060000000  0.4067930000000  0.4744350000000 1.0
C      1  0.5993800000000  0.5108910000000  0.4718890000000 1.0
C      1  0.4360540000000  0.5912630000000  0.4638520000000 1.0
C      1  0.5242570000000  0.4163820000000  0.5354080000000 1.0
C      1  0.4044840000000  0.5104040000000  0.5317070000000 1.0
C      1  0.5546810000000  0.5574720000000  0.5290150000000 1.0
C      1  0.3991690000000  0.4955200000000  0.4899210000000 1.0
C      1  0.5518690000000  0.4098920000000  0.4952870000000 1.0
C      1  0.5504450000000  0.5917280000000  0.4858280000000 1.0
C      1  0.6079330000000  0.4968430000000  0.5160240000000 1.0
C      1  0.4463840000000  0.4123890000000  0.5150170000000 1.0
C      1  0.4449260000000  0.5918630000000  0.5143430000000 1.0
C      1  0.5021640000000  0.4628590000000  0.4556060000000 1.0
C      1  0.5361900000000  0.5289320000000  0.4600510000000 1.0
C      1  0.4671240000000  0.5253920000000  0.4643510000000 1.0
C      1  0.5032620000000  0.4411930000000  0.5414220000000 1.0
C      1  0.4519380000000  0.5266990000000  0.5423360000000 1.0
C      1  0.5434760000000  0.5272870000000  0.5361040000000 1.0
C      1  0.4126740000000  0.4862570000000  0.4532490000000 1.0
C      1  0.5536580000000  0.4253130000000  0.4533100000000 1.0
C      1  0.5501250000000  0.5917680000000  0.4546240000000 1.0
C      1  0.5906560000000  0.4864320000000  0.5512020000000 1.0
C      1  0.4403550000000  0.4256030000000  0.5522840000000 1.0
C      1  0.4619300000000  0.5952810000000  0.5553600000000 1.0
C      1  0.4426460000000  0.4707220000000  0.5209120000000 1.0
C      1  0.5512360000000  0.4604820000000  0.5182570000000 1.0
C      1  0.5138840000000  0.5619000000000  0.5161170000000 1.0
C      1  0.5629360000000  0.4758570000000  0.4826100000000 1.0
C      1  0.4501570000000  0.4579930000000  0.4839990000000 1.0
C      1  0.4871450000000  0.5658250000000  0.4786020000000 1.0
C      1  0.5333170000000  0.5450210000000  0.4149070000000 1.0
C      1  0.4617710000000  0.5126540000000  0.4194280000000 1.0
C      1  0.5177680000000  0.4513770000000  0.4182550000000 1.0
C      1  0.4728630000000  0.5412110000000  0.5906360000000 1.0
C      1  0.5397920000000  0.5071500000000  0.5802420000000 1.0
C      1  0.4817780000000  0.4578210000000  0.5852220000000 1.0
C      1  0.5599410000000  0.5353050000000  0.4179520000000 1.0
C      1  0.4428970000000  0.5389750000000  0.4246140000000 1.0
C      1  0.4973640000000  0.4291840000000  0.4228890000000 1.0
C      1  0.4428390000000  0.5291140000000  0.5810210000000 1.0
C      1  0.5487680000000  0.5375560000000  0.5775940000000 1.0
C      1  0.5027400000000  0.4332350000000  0.5826250000000 1.0
C      1  0.4893470000000  0.5383820000000  0.5150360000000 1.0
C      1  0.4738340000000  0.4581140000000  0.5159500000000 1.0
C      1  0.5480480000000  0.4937900000000  0.5147440000000 1.0
C      1  0.5098940000000  0.5403060000000  0.4783600000000 1.0
C      1  0.5331050000000  0.4595550000000  0.4832350000000 1.0
C      1  0.4601740000000  0.4871030000000  0.4892380000000 1.0
C      1  0.4691400000000  0.4391740000000  0.4284590000000 1.0
C      1  0.5678080000000  0.5067710000000  0.4219230000000 1.0
C      1  0.4557910000000  0.5664260000000  0.4231990000000 1.0
C      1  0.5308600000000  0.4436150000000  0.5752540000000 1.0
C      1  0.4414320000000  0.4993960000000  0.5757580000000 1.0
C      1  0.5246630000000  0.5592720000000  0.5684400000000 1.0
C      1  0.4821940000000  0.5646300000000  0.4030240000000 1.0
C      1  0.4650030000000  0.4630370000000  0.4059720000000 1.0
C      1  0.5566530000000  0.4848070000000  0.4016560000000 1.0
C      1  0.5133580000000  0.5440170000000  0.5949110000000 1.0
C      1  0.5356900000000  0.4671230000000  0.5988530000000 1.0
C      1  0.4558000000000  0.4838830000000  0.6006470000000 1.0
C      1  0.5169350000000  0.3858550000000  0.5237980000000 1.0
C      1  0.5845170000000  0.5679720000000  0.5168630000000 1.0
C      1  0.3905050000000  0.5372800000000  0.5280430000000 1.0
C      1  0.4837250000000  0.3852750000000  0.4807800000000 1.0
C      1  0.4245530000000  0.5705750000000  0.4820920000000 1.0
C      1  0.6062220000000  0.5409960000000  0.4762360000000 1.0
C      1  0.4556770000000  0.5015790000000  0.5196740000000 1.0
C      1  0.5188090000000  0.4517520000000  0.5129310000000 1.0
C      1  0.5280940000000  0.5339870000000  0.5063830000000 1.0
C      1  0.5459510000000  0.5053830000000  0.4826820000000 1.0
C      1  0.4840620000000  0.4555310000000  0.4836130000000 1.0
C      1  0.4679570000000  0.5412730000000  0.4908960000000 1.0
C      1  0.5211370000000  0.4346670000000  0.4544670000000 1.0
C      1  0.5507070000000  0.5579510000000  0.4495650000000 1.0
C      1  0.4392100000000  0.5067060000000  0.4590840000000 1.0
C      1  0.4737850000000  0.4311990000000  0.5551590000000 1.0
C      1  0.4668390000000  0.5572730000000  0.5421540000000 1.0
C      1  0.5688170000000  0.5124340000000  0.5532380000000 1.0
C      1  0.5256260000000  0.5708750000000  0.4309650000000 1.0
C      1  0.4394850000000  0.4893060000000  0.4298730000000 1.0
C      1  0.5476050000000  0.4408980000000  0.4252130000000 1.0
C      1  0.4724340000000  0.5676860000000  0.5727790000000 1.0
C      1  0.5666570000000  0.4881800000000  0.5769830000000 1.0
C      1  0.4531150000000  0.4472390000000  0.5769000000000 1.0
C      1  0.5941450000000  0.4326020000000  0.5168990000000 1.0
C      1  0.5069250000000  0.6098440000000  0.5101760000000 1.0
C      1  0.3930270000000  0.4475530000000  0.5149000000000 1.0
C      1  0.4019620000000  0.4318880000000  0.4849980000000 1.0
C      1  0.4866440000000  0.6190570000000  0.4844820000000 1.0
C      1  0.6045600000000  0.4476650000000  0.4858530000000 1.0
C      1  0.4255740000000  0.5350470000000  0.4466230000000 1.0
C      1  0.5064290000000  0.4078830000000  0.4416790000000 1.0
C      1  0.5793660000000  0.5535640000000  0.4319430000000 1.0
C      1  0.5800710000000  0.5412980000000  0.5647690000000 1.0
C      1  0.4900140000000  0.4052580000000  0.5692200000000 1.0
C      1  0.4279360000000  0.5445610000000  0.5585430000000 1.0
C      1  0.4223410000000  0.4459740000000  0.5320640000000 1.0
C      1  0.5816530000000  0.4606440000000  0.5309480000000 1.0
C      1  0.4842410000000  0.5984760000000  0.5297910000000 1.0
C      1  0.5745500000000  0.4468580000000  0.4695830000000 1.0
C      1  0.4187890000000  0.4580060000000  0.4711770000000 1.0
C      1  0.5053610000000  0.5940820000000  0.4734720000000 1.0
C      1  0.5054780000000  0.3878890000000  0.4636900000000 1.0
C      1  0.5891450000000  0.5567510000000  0.4604670000000 1.0
C      1  0.4057540000000  0.5456050000000  0.4714490000000 1.0
C      1  0.4889180000000  0.3978580000000  0.5369850000000 1.0
C      1  0.4121040000000  0.5604380000000  0.5360980000000 1.0
C      1  0.5899740000000  0.5391160000000  0.5323160000000 1.0
C      1  0.5234620000000  0.5851480000000  0.4980940000000 1.0
C      1  0.4139430000000  0.4711540000000  0.5021680000000 1.0
C      1  0.5650710000000  0.4351200000000  0.5000530000000 1.0
C      1  0.4742630000000  0.5904160000000  0.4982930000000 1.0
C      1  0.5911890000000  0.4747350000000  0.5015060000000 1.0
C      1  0.4316700000000  0.4350320000000  0.5012460000000 1.0
C      1  0.5146160000000  0.5130490000000  0.4381250000000 1.0
C      1  0.4854560000000  0.5304320000000  0.4361540000000 1.0
C      1  0.5058510000000  0.4818650000000  0.4276310000000 1.0
C      1  0.4782060000000  0.5255410000000  0.5630820000000 1.0
C      1  0.5299760000000  0.5035260000000  0.5508940000000 1.0
C      1  0.4931710000000  0.4659270000000  0.5569510000000 1.0
C      1  0.4379170000000  0.4588870000000  0.4430680000000 1.0
C      1  0.5652380000000  0.4606600000000  0.4399320000000 1.0
C      1  0.5045360000000  0.5801430000000  0.4456460000000 1.0
C      1  0.5634190000000  0.4599670000000  0.5596410000000 1.0
C      1  0.4318080000000  0.4648090000000  0.5587480000000 1.0
C      1  0.4945710000000  0.5907880000000  0.5612640000000 1.0
C      1  0.5269860000000  0.4847820000000  0.4633840000000 1.0
C      1  0.5031290000000  0.5085400000000  0.4681960000000 1.0
C      1  0.4762160000000  0.4935280000000  0.4656380000000 1.0
C      1  0.4843120000000  0.4865440000000  0.5314070000000 1.0
C      1  0.4905430000000  0.5191980000000  0.5368080000000 1.0
C      1  0.5177650000000  0.4830270000000  0.5262420000000 1.0
C      1  0.4373970000000  0.5876310000000  0.4368220000000 1.0
C      1  0.4527050000000  0.4200150000000  0.4448270000000 1.0
C      1  0.5912230000000  0.4969300000000  0.4424950000000 1.0
C      1  0.5375760000000  0.5770290000000  0.5445430000000 1.0
C      1  0.5476720000000  0.4236750000000  0.5540520000000 1.0
C      1  0.4129830000000  0.4915040000000  0.5588490000000 1.0
C      1  0.5260560000000  0.4090480000000  0.4763090000000 1.0
C      1  0.5656130000000  0.5649700000000  0.4793090000000 1.0
C      1  0.4164940000000  0.5174140000000  0.4813070000000 1.0
C      1  0.4730290000000  0.4238740000000  0.5219220000000 1.0
C      1  0.4415140000000  0.5657810000000  0.5256760000000 1.0
C      1  0.5777920000000  0.5092170000000  0.5205970000000 1.0
C      1  0.5004090000000  0.5623660000000  0.5448010000000 1.0
C      1  0.4619970000000  0.4803590000000  0.5563310000000 1.0
C      1  0.5327270000000  0.4697540000000  0.5537510000000 1.0
C      1  0.4793390000000  0.5627200000000  0.4449030000000 1.0
C      1  0.5526580000000  0.4858730000000  0.4414250000000 1.0
C      1  0.4703780000000  0.4688110000000  0.4450810000000 1.0
C      1  0.4972320000000  0.5187520000000  0.5982760000000 1.0
C      1  0.4859200000000  0.4870620000000  0.5998780000000 1.0
C      1  0.5183320000000  0.4916760000000  0.5985230000000 1.0
C      1  0.5018230000000  0.5460190000000  0.4107500000000 1.0
C      1  0.5373800000000  0.4696340000000  0.3993660000000 1.0
C      1  0.4792060000000  0.4867970000000  0.4105440000000 1.0
C      1  0.5587690000000  0.5440220000000  0.4980550000000 1.0
C      1  0.4275030000000  0.5183930000000  0.5107490000000 1.0
C      1  0.5139790000000  0.4198210000000  0.5031800000000 1.0
C      1  0.4401700000000  0.5468870000000  0.5008940000000 1.0
C      1  0.5756150000000  0.5193260000000  0.4899220000000 1.0
C      1  0.4844630000000  0.4238520000000  0.4913260000000 1.0
C      1  0.5724400000000  0.4231330000000  0.5413250000000 1.0
C      1  0.5297180000000  0.6014390000000  0.5339760000000 1.0
C      1  0.3981300000000  0.4777070000000  0.5315510000000 1.0
C      1  0.4311050000000  0.4199570000000  0.4707710000000 1.0
C      1  0.4553930000000  0.6074180000000  0.4756830000000 1.0
C      1  0.6003770000000  0.4773800000000  0.4688650000000 1.0
C      1  0.6064850000000  0.5480980000000  0.5035000000000 1.0
C      1  0.4016690000000  0.5572370000000  0.5034140000000 1.0
C      1  0.4892790000000  0.3807700000000  0.5073410000000 1.0
C      1  0.5117130000000  0.5069940000000  0.5054360000000 1.0
END
