TITL C-2622962-9663-543 -0.000222271862996405 125000 -967.97324489769 0 0 175 (C1) n - 1
REM
REM in /nfs/bkarasulu/CARBON/AIRSS/Generating-Clusters/AIREBO/with-SteepDescent/Higher-Symm/SD-CG/HFTN-CG
REM
REM
REM
REM
REM
REM ./C.cell (b20cbc046b6831c77cfcea5457e17084)
REM
REM compiler GCC version 9.2.1 20190827 (Red Hat 9.2.1-1)
REM options -cpp -mtune=generic -march=x86-64 -g -O0 -fpre-include=/usr/include/finclude/math-vector-fortran.h
REM seed -1913717331 1049713752 1399500139 331106758 -1299813346 626376539 -903710352 340805516 -175880080 -1550175346 1161260729 -2129132596 1578931367 -321686924 452905891 -1481426182 488456969 -1486319506 -603487596 -1733057093 1857128601 -927422614 -990419901 -1316741824 -1967689925 1246004274 427571041 -457911391 261066393 1130354557 738630222 -2057363657 -1234437778
REM
CELL 1.54180   50.00000   50.00000   50.00000   90.00000   90.00000   90.00000
LATT -1
SFAC C  
C      1  0.5592190000000  0.5586300000000  0.4379470000000 1.0
C      1  0.5641500000000  0.4183350000000  0.4873760000000 1.0
C      1  0.5707630000000  0.4947310000000  0.6120160000000 1.0
C      1  0.5480430000000  0.4177940000000  0.4234170000000 1.0
C      1  0.5622530000000  0.6031990000000  0.4724850000000 1.0
C      1  0.5602320000000  0.4912350000000  0.5883710000000 1.0
C      1  0.4737240000000  0.5455310000000  0.4589400000000 1.0
C      1  0.4725590000000  0.4338380000000  0.4809030000000 1.0
C      1  0.4659350000000  0.5223250000000  0.5594980000000 1.0
C      1  0.4771870000000  0.4548670000000  0.4543790000000 1.0
C      1  0.4767170000000  0.5625380000000  0.4852090000000 1.0
C      1  0.4741500000000  0.4896690000000  0.5545820000000 1.0
C      1  0.5893890000000  0.4630490000000  0.5509930000000 1.0
C      1  0.5856450000000  0.5526600000000  0.5105630000000 1.0
C      1  0.5893570000000  0.4801270000000  0.4443100000000 1.0
C      1  0.5915240000000  0.5340900000000  0.5365740000000 1.0
C      1  0.5954490000000  0.4510930000000  0.5202720000000 1.0
C      1  0.5929030000000  0.5132790000000  0.4455670000000 1.0
C      1  0.5117450000000  0.5354780000000  0.4914220000000 1.0
C      1  0.5136150000000  0.4804680000000  0.4699980000000 1.0
C      1  0.5118980000000  0.4863660000000  0.5193250000000 1.0
C      1  0.5037450000000  0.4566280000000  0.4902870000000 1.0
C      1  0.5108450000000  0.5313360000000  0.4576570000000 1.0
C      1  0.5043400000000  0.5204110000000  0.5386580000000 1.0
C      1  0.4815580000000  0.4296340000000  0.5131010000000 1.0
C      1  0.4734090000000  0.5536300000000  0.5484080000000 1.0
C      1  0.4701550000000  0.5066970000000  0.4264700000000 1.0
C      1  0.4551240000000  0.5665140000000  0.5278680000000 1.0
C      1  0.4789540000000  0.4418670000000  0.5449530000000 1.0
C      1  0.4783450000000  0.4746900000000  0.4263630000000 1.0
C      1  0.4437700000000  0.4612350000000  0.4522470000000 1.0
C      1  0.4452360000000  0.4736870000000  0.5530950000000 1.0
C      1  0.4486480000000  0.5584730000000  0.5007530000000 1.0
C      1  0.4432250000000  0.5417020000000  0.4532750000000 1.0
C      1  0.4337930000000  0.5272130000000  0.5536840000000 1.0
C      1  0.4412990000000  0.4358120000000  0.4941590000000 1.0
C      1  0.5379140000000  0.4579220000000  0.5533190000000 1.0
C      1  0.5495800000000  0.5602150000000  0.4942390000000 1.0
C      1  0.5554350000000  0.4599920000000  0.4503750000000 1.0
C      1  0.5417460000000  0.5382660000000  0.5550550000000 1.0
C      1  0.5441820000000  0.4430000000000  0.5169900000000 1.0
C      1  0.5412320000000  0.5170680000000  0.4361790000000 1.0
C      1  0.4653980000000  0.4307320000000  0.5806100000000 1.0
C      1  0.4707980000000  0.6103340000000  0.5271750000000 1.0
C      1  0.4487010000000  0.4713630000000  0.4000360000000 1.0
C      1  0.4558770000000  0.5720070000000  0.5791780000000 1.0
C      1  0.4579240000000  0.3851770000000  0.5220130000000 1.0
C      1  0.4607000000000  0.5376010000000  0.4031660000000 1.0
C      1  0.6078760000000  0.4911420000000  0.5560340000000 1.0
C      1  0.6063020000000  0.5434440000000  0.4842550000000 1.0
C      1  0.6129640000000  0.4658430000000  0.4647550000000 1.0
C      1  0.6155610000000  0.5159690000000  0.5463430000000 1.0
C      1  0.6146170000000  0.4546260000000  0.4926020000000 1.0
C      1  0.6160490000000  0.5264470000000  0.4639130000000 1.0
C      1  0.5659280000000  0.4417700000000  0.5638250000000 1.0
C      1  0.5617840000000  0.5746530000000  0.5214860000000 1.0
C      1  0.5626650000000  0.4742840000000  0.4223680000000 1.0
C      1  0.5662810000000  0.5531780000000  0.5452850000000 1.0
C      1  0.5674820000000  0.4360860000000  0.5319980000000 1.0
C      1  0.5681180000000  0.5059460000000  0.4236240000000 1.0
C      1  0.4886780000000  0.4012960000000  0.4642260000000 1.0
C      1  0.4810630000000  0.5140330000000  0.5969970000000 1.0
C      1  0.4849000000000  0.5857370000000  0.4336060000000 1.0
C      1  0.4858930000000  0.5962970000000  0.4659250000000 1.0
C      1  0.4873600000000  0.4843750000000  0.6023380000000 1.0
C      1  0.4872650000000  0.4180050000000  0.4345750000000 1.0
C      1  0.5057880000000  0.5133150000000  0.3947400000000 1.0
C      1  0.5272210000000  0.3973400000000  0.5445080000000 1.0
C      1  0.5178860000000  0.5904500000000  0.5693550000000 1.0
C      1  0.5115010000000  0.4843770000000  0.3911890000000 1.0
C      1  0.5209820000000  0.6051570000000  0.5425140000000 1.0
C      1  0.5180670000000  0.4108960000000  0.5665720000000 1.0
C      1  0.4020620000000  0.5396810000000  0.5290960000000 1.0
C      1  0.4213720000000  0.4781970000000  0.4409910000000 1.0
C      1  0.4229570000000  0.4525420000000  0.5384950000000 1.0
C      1  0.4272270000000  0.4272380000000  0.5187950000000 1.0
C      1  0.4164050000000  0.5287810000000  0.4393190000000 1.0
C      1  0.4192690000000  0.5538280000000  0.5493460000000 1.0
C      1  0.4775880000000  0.4851960000000  0.3940280000000 1.0
C      1  0.4883250000000  0.4147280000000  0.5631750000000 1.0
C      1  0.4905510000000  0.6062440000000  0.5459720000000 1.0
C      1  0.4774890000000  0.5194280000000  0.3893180000000 1.0
C      1  0.4849320000000  0.5802990000000  0.5661040000000 1.0
C      1  0.4788420000000  0.4042410000000  0.5332500000000 1.0
C      1  0.4500010000000  0.4707930000000  0.6006080000000 1.0
C      1  0.4527840000000  0.6058990000000  0.4859720000000 1.0
C      1  0.4585500000000  0.4253930000000  0.4247380000000 1.0
C      1  0.4504920000000  0.5244100000000  0.6002930000000 1.0
C      1  0.4489610000000  0.3928630000000  0.4727540000000 1.0
C      1  0.4507270000000  0.5825000000000  0.4313710000000 1.0
C      1  0.4003540000000  0.5162940000000  0.4656070000000 1.0
C      1  0.4089300000000  0.4724790000000  0.4872070000000 1.0
C      1  0.4036300000000  0.5072690000000  0.5242800000000 1.0
C      1  0.4041570000000  0.4853130000000  0.4622930000000 1.0
C      1  0.4028440000000  0.5274630000000  0.4969360000000 1.0
C      1  0.4064330000000  0.4755340000000  0.5193680000000 1.0
C      1  0.5323960000000  0.5717590000000  0.4457620000000 1.0
C      1  0.5372520000000  0.4164840000000  0.4721100000000 1.0
C      1  0.5270150000000  0.5225670000000  0.5807010000000 1.0
C      1  0.5379660000000  0.4345820000000  0.4473140000000 1.0
C      1  0.5353070000000  0.5843690000000  0.4748410000000 1.0
C      1  0.5295070000000  0.4920040000000  0.5839570000000 1.0
C      1  0.5046500000000  0.3908820000000  0.4992240000000 1.0
C      1  0.5051480000000  0.5528360000000  0.5945500000000 1.0
C      1  0.5232900000000  0.5596210000000  0.4087880000000 1.0
C      1  0.5174660000000  0.6114410000000  0.5033660000000 1.0
C      1  0.5283230000000  0.4458340000000  0.6046470000000 1.0
C      1  0.5199750000000  0.4426060000000  0.3991460000000 1.0
C      1  0.5105570000000  0.4763870000000  0.4363760000000 1.0
C      1  0.5059030000000  0.4616930000000  0.5424930000000 1.0
C      1  0.5140650000000  0.5607830000000  0.5140470000000 1.0
C      1  0.5020660000000  0.5093030000000  0.4343350000000 1.0
C      1  0.5041310000000  0.5518010000000  0.5411300000000 1.0
C      1  0.5137390000000  0.4395110000000  0.5179180000000 1.0
C      1  0.4450630000000  0.5153980000000  0.5258840000000 1.0
C      1  0.4330900000000  0.5169690000000  0.4730760000000 1.0
C      1  0.4416880000000  0.4684610000000  0.4953970000000 1.0
C      1  0.4377110000000  0.4865180000000  0.5242310000000 1.0
C      1  0.4462190000000  0.4901770000000  0.4699280000000 1.0
C      1  0.4353040000000  0.5319460000000  0.5016690000000 1.0
C      1  0.5153860000000  0.6117500000000  0.4716500000000 1.0
C      1  0.5092050000000  0.4228700000000  0.4101570000000 1.0
C      1  0.5177750000000  0.4711380000000  0.6065140000000 1.0
C      1  0.5194820000000  0.3898440000000  0.4729550000000 1.0
C      1  0.5160070000000  0.5863060000000  0.4197650000000 1.0
C      1  0.5255810000000  0.5383810000000  0.6107740000000 1.0
C      1  0.5323400000000  0.4706770000000  0.4115020000000 1.0
C      1  0.5351460000000  0.4342610000000  0.5766530000000 1.0
C      1  0.5320480000000  0.5870720000000  0.5185490000000 1.0
C      1  0.5217400000000  0.5298000000000  0.4157410000000 1.0
C      1  0.5188990000000  0.5594800000000  0.5677260000000 1.0
C      1  0.5164230000000  0.4056590000000  0.5197370000000 1.0
C      1  0.5434760000000  0.5270330000000  0.4993420000000 1.0
C      1  0.5454690000000  0.4795120000000  0.4732250000000 1.0
C      1  0.5415550000000  0.4811250000000  0.5287340000000 1.0
C      1  0.5541250000000  0.4684790000000  0.4997460000000 1.0
C      1  0.5466820000000  0.5106340000000  0.4697120000000 1.0
C      1  0.5374250000000  0.5148330000000  0.5307690000000 1.0
C      1  0.4792660000000  0.5323970000000  0.4962070000000 1.0
C      1  0.4796820000000  0.4842920000000  0.4712320000000 1.0
C      1  0.4818910000000  0.4885210000000  0.5251630000000 1.0
C      1  0.4750980000000  0.4706910000000  0.5020150000000 1.0
C      1  0.4840880000000  0.5152320000000  0.4694730000000 1.0
C      1  0.4753680000000  0.5185930000000  0.5209570000000 1.0
C      1  0.4732960000000  0.3924110000000  0.4933750000000 1.0
C      1  0.4738330000000  0.5474910000000  0.5944300000000 1.0
C      1  0.4711510000000  0.5597130000000  0.4165450000000 1.0
C      1  0.4842110000000  0.6108090000000  0.4966940000000 1.0
C      1  0.4746970000000  0.4549810000000  0.5908520000000 1.0
C      1  0.4513620000000  0.4426190000000  0.4027360000000 1.0
C      1  0.4381580000000  0.4173370000000  0.4691170000000 1.0
C      1  0.4340910000000  0.5120510000000  0.5813270000000 1.0
C      1  0.4391020000000  0.5720170000000  0.4544600000000 1.0
C      1  0.4420540000000  0.5816990000000  0.4800430000000 1.0
C      1  0.4363300000000  0.4846120000000  0.5801520000000 1.0
C      1  0.4429230000000  0.4315320000000  0.4467200000000 1.0
C      1  0.5763240000000  0.4433970000000  0.4937730000000 1.0
C      1  0.5692670000000  0.5122400000000  0.5423510000000 1.0
C      1  0.5661790000000  0.5329410000000  0.4530050000000 1.0
C      1  0.5749740000000  0.5432450000000  0.4809380000000 1.0
C      1  0.5755450000000  0.4907300000000  0.5633790000000 1.0
C      1  0.5811900000000  0.4617800000000  0.4707640000000 1.0
C      1  0.4401970000000  0.5185520000000  0.4197840000000 1.0
C      1  0.4390100000000  0.4047220000000  0.5348800000000 1.0
C      1  0.4341700000000  0.5768890000000  0.5598340000000 1.0
C      1  0.4311510000000  0.4879200000000  0.4158390000000 1.0
C      1  0.4477320000000  0.5945920000000  0.5345400000000 1.0
C      1  0.4472700000000  0.4331230000000  0.5523130000000 1.0
C      1  0.5005410000000  0.4785800000000  0.5715290000000 1.0
C      1  0.5039510000000  0.5772710000000  0.4875670000000 1.0
C      1  0.5076050000000  0.4434580000000  0.4443220000000 1.0
C      1  0.4975400000000  0.5221510000000  0.5702350000000 1.0
C      1  0.5056640000000  0.4260810000000  0.4802520000000 1.0
C      1  0.5014880000000  0.5577670000000  0.4435340000000 1.0
C      1  0.5130410000000  0.5016050000000  0.4934560000000 1.0
END
