TITL C-2622968-4806-297 0.00456795995122169 125000 -1126.44281673482 0 0 195 (C1) n - 1
REM
REM in /nfs/bkarasulu/CARBON/AIRSS/Generating-Clusters/AIREBO/with-SteepDescent/Higher-Symm/SD-CG/HFTN-CG
REM
REM
REM
REM
REM
REM ./C.cell (b20cbc046b6831c77cfcea5457e17084)
REM
REM compiler GCC version 9.2.1 20190827 (Red Hat 9.2.1-1)
REM options -cpp -mtune=generic -march=x86-64 -g -O0 -fpre-include=/usr/include/finclude/math-vector-fortran.h
REM seed -259271021 -1445735373 -1845407894 -1618752122 -354562935 -608957985 75656610 -1331730275 1336740426 1686540121 1904196779 -582471275 -1837970132 463691463 841012843 1858142805 1434740932 -1859146304 -321998013 -1812086972 -1337115499 -521976474 1353172022 1674948383 1118248931 2119155154 -1149220798 -1013416623 1521452248 -1881215645 786909964 182816951 -1856499444
REM
CELL 1.54180   50.00000   50.00000   50.00000   90.00000   90.00000   90.00000
LATT -1
SFAC C  
C      1  0.5164130000000  0.5148050000000  0.5671710000000 1.0
C      1  0.4333430000000  0.5096490000000  0.4827850000000 1.0
C      1  0.5532880000000  0.5078450000000  0.4491740000000 1.0
C      1  0.5111490000000  0.4823590000000  0.5735330000000 1.0
C      1  0.4319260000000  0.4785520000000  0.4746590000000 1.0
C      1  0.5588690000000  0.4772070000000  0.4554950000000 1.0
C      1  0.5254640000000  0.5108210000000  0.4358890000000 1.0
C      1  0.4352100000000  0.5139470000000  0.5157960000000 1.0
C      1  0.5454960000000  0.5087770000000  0.5520260000000 1.0
C      1  0.5150650000000  0.4816560000000  0.4295160000000 1.0
C      1  0.4304000000000  0.4813590000000  0.5244680000000 1.0
C      1  0.5520920000000  0.4791760000000  0.5469730000000 1.0
C      1  0.5216190000000  0.5225230000000  0.5998710000000 1.0
C      1  0.4060230000000  0.5218620000000  0.4701380000000 1.0
C      1  0.5783310000000  0.5142530000000  0.4297250000000 1.0
C      1  0.5223570000000  0.4727020000000  0.6025590000000 1.0
C      1  0.4003680000000  0.4710330000000  0.4703430000000 1.0
C      1  0.5730840000000  0.4795100000000  0.4253860000000 1.0
C      1  0.5222940000000  0.5223390000000  0.4061310000000 1.0
C      1  0.4049000000000  0.5211430000000  0.5282770000000 1.0
C      1  0.5686090000000  0.5228220000000  0.5664600000000 1.0
C      1  0.5206040000000  0.4742760000000  0.3990080000000 1.0
C      1  0.4002190000000  0.4723800000000  0.5321400000000 1.0
C      1  0.5760960000000  0.4735610000000  0.5671620000000 1.0
C      1  0.5250630000000  0.4389740000000  0.4807710000000 1.0
C      1  0.5011550000000  0.4489090000000  0.5305910000000 1.0
C      1  0.4737450000000  0.4402330000000  0.4831660000000 1.0
C      1  0.5257430000000  0.5509730000000  0.4829500000000 1.0
C      1  0.5010420000000  0.5552910000000  0.5345370000000 1.0
C      1  0.4725410000000  0.5518030000000  0.4888210000000 1.0
C      1  0.5272240000000  0.4444050000000  0.5092320000000 1.0
C      1  0.4972580000000  0.4482220000000  0.4698920000000 1.0
C      1  0.4712820000000  0.4458360000000  0.5165790000000 1.0
C      1  0.5275640000000  0.5547720000000  0.5155260000000 1.0
C      1  0.4959150000000  0.5467350000000  0.4696270000000 1.0
C      1  0.4709620000000  0.5608220000000  0.5193120000000 1.0
C      1  0.4123270000000  0.5592260000000  0.5189920000000 1.0
C      1  0.5294650000000  0.5599780000000  0.4166480000000 1.0
C      1  0.5684530000000  0.5721920000000  0.5720000000000 1.0
C      1  0.4000350000000  0.4255470000000  0.5291610000000 1.0
C      1  0.5264550000000  0.4285190000000  0.4019890000000 1.0
C      1  0.5715940000000  0.4270940000000  0.5718130000000 1.0
C      1  0.3926320000000  0.5680730000000  0.4720110000000 1.0
C      1  0.5301710000000  0.5638460000000  0.5853440000000 1.0
C      1  0.5799600000000  0.5633270000000  0.4280700000000 1.0
C      1  0.4005730000000  0.4251910000000  0.4764550000000 1.0
C      1  0.5287510000000  0.4267830000000  0.5996050000000 1.0
C      1  0.5741010000000  0.4306070000000  0.4217250000000 1.0
C      1  0.5132520000000  0.5422440000000  0.4407150000000 1.0
C      1  0.5503470000000  0.5554010000000  0.5489570000000 1.0
C      1  0.4404340000000  0.5473380000000  0.5119910000000 1.0
C      1  0.5166980000000  0.4514700000000  0.4438030000000 1.0
C      1  0.5397070000000  0.4479670000000  0.5406760000000 1.0
C      1  0.4381270000000  0.4489420000000  0.5169950000000 1.0
C      1  0.5216620000000  0.5472890000000  0.5585890000000 1.0
C      1  0.5418000000000  0.5555350000000  0.4544320000000 1.0
C      1  0.4432170000000  0.5613240000000  0.4833320000000 1.0
C      1  0.5154930000000  0.4510560000000  0.5613460000000 1.0
C      1  0.5451700000000  0.4480350000000  0.4557550000000 1.0
C      1  0.4425850000000  0.4482570000000  0.4858390000000 1.0
C      1  0.5522190000000  0.5884030000000  0.5465210000000 1.0
C      1  0.4176380000000  0.5887620000000  0.5143140000000 1.0
C      1  0.5370490000000  0.5857420000000  0.4287680000000 1.0
C      1  0.5607150000000  0.4253410000000  0.5472120000000 1.0
C      1  0.4282350000000  0.4260620000000  0.5342430000000 1.0
C      1  0.5109900000000  0.4283500000000  0.4241530000000 1.0
C      1  0.5615410000000  0.5804740000000  0.4499070000000 1.0
C      1  0.4187120000000  0.5832040000000  0.4810780000000 1.0
C      1  0.5291370000000  0.5901610000000  0.5710360000000 1.0
C      1  0.5649070000000  0.4261910000000  0.4467800000000 1.0
C      1  0.4268380000000  0.4253350000000  0.4706900000000 1.0
C      1  0.5103920000000  0.4266700000000  0.5796160000000 1.0
C      1  0.4062080000000  0.5144310000000  0.5558250000000 1.0
C      1  0.4957740000000  0.5149250000000  0.3973760000000 1.0
C      1  0.5927970000000  0.5182900000000  0.5520980000000 1.0
C      1  0.4056010000000  0.4865820000000  0.5586820000000 1.0
C      1  0.4947840000000  0.4871730000000  0.3909140000000 1.0
C      1  0.5956860000000  0.4899640000000  0.5479460000000 1.0
C      1  0.4063100000000  0.5126400000000  0.4433750000000 1.0
C      1  0.4957190000000  0.5141150000000  0.6089400000000 1.0
C      1  0.6060990000000  0.5118570000000  0.4489000000000 1.0
C      1  0.4059740000000  0.4844890000000  0.4432220000000 1.0
C      1  0.4945310000000  0.4860470000000  0.6096380000000 1.0
C      1  0.5978930000000  0.4838640000000  0.4465150000000 1.0
C      1  0.4711130000000  0.6209700000000  0.5156410000000 1.0
C      1  0.4978640000000  0.6264430000000  0.4738180000000 1.0
C      1  0.5183740000000  0.6235350000000  0.5160940000000 1.0
C      1  0.4807880000000  0.3790350000000  0.5174400000000 1.0
C      1  0.4966410000000  0.3781480000000  0.4708070000000 1.0
C      1  0.5276260000000  0.3829080000000  0.5103020000000 1.0
C      1  0.4700860000000  0.6243050000000  0.4874230000000 1.0
C      1  0.4940700000000  0.6319620000000  0.5285570000000 1.0
C      1  0.5194120000000  0.6353980000000  0.4901350000000 1.0
C      1  0.4750750000000  0.3832330000000  0.4882990000000 1.0
C      1  0.5063930000000  0.3684300000000  0.5229850000000 1.0
C      1  0.5242040000000  0.3848030000000  0.4821910000000 1.0
C      1  0.5308100000000  0.5243740000000  0.5272860000000 1.0
C      1  0.4748520000000  0.5108630000000  0.5190230000000 1.0
C      1  0.4978610000000  0.5140480000000  0.4645430000000 1.0
C      1  0.5277530000000  0.4759520000000  0.5149420000000 1.0
C      1  0.4690650000000  0.4791590000000  0.5150380000000 1.0
C      1  0.4986610000000  0.4803990000000  0.4683400000000 1.0
C      1  0.5280410000000  0.5171670000000  0.4800520000000 1.0
C      1  0.4720000000000  0.5192900000000  0.4861770000000 1.0
C      1  0.5038630000000  0.5130700000000  0.5294130000000 1.0
C      1  0.5261020000000  0.4864390000000  0.4843310000000 1.0
C      1  0.4696010000000  0.4863140000000  0.4849930000000 1.0
C      1  0.5048800000000  0.4834550000000  0.5340460000000 1.0
C      1  0.4280880000000  0.4788690000000  0.5738020000000 1.0
C      1  0.4700360000000  0.4760310000000  0.4010960000000 1.0
C      1  0.6000440000000  0.4782400000000  0.5218140000000 1.0
C      1  0.4288690000000  0.5254980000000  0.5705460000000 1.0
C      1  0.4728290000000  0.5206720000000  0.4133420000000 1.0
C      1  0.5976000000000  0.5421210000000  0.5337540000000 1.0
C      1  0.4282320000000  0.4752840000000  0.4293420000000 1.0
C      1  0.4720640000000  0.4782810000000  0.5943560000000 1.0
C      1  0.5979120000000  0.4724200000000  0.4715550000000 1.0
C      1  0.4284510000000  0.5232520000000  0.4278510000000 1.0
C      1  0.4740570000000  0.5250860000000  0.5933210000000 1.0
C      1  0.6046440000000  0.5174670000000  0.4778250000000 1.0
C      1  0.3912620000000  0.5409520000000  0.5110570000000 1.0
C      1  0.5469360000000  0.5409960000000  0.4023430000000 1.0
C      1  0.5649190000000  0.5442140000000  0.5844120000000 1.0
C      1  0.3907550000000  0.4503850000000  0.5168500000000 1.0
C      1  0.5396490000000  0.4534720000000  0.3968160000000 1.0
C      1  0.5677910000000  0.4525670000000  0.5853890000000 1.0
C      1  0.3905340000000  0.5413580000000  0.4825130000000 1.0
C      1  0.5408920000000  0.5428680000000  0.6029490000000 1.0
C      1  0.5724280000000  0.5398310000000  0.4154420000000 1.0
C      1  0.3908310000000  0.4501240000000  0.4873100000000 1.0
C      1  0.5425650000000  0.4524330000000  0.6015400000000 1.0
C      1  0.5657040000000  0.4552650000000  0.4088370000000 1.0
C      1  0.5231360000000  0.5898380000000  0.5162830000000 1.0
C      1  0.4664230000000  0.5936100000000  0.5261870000000 1.0
C      1  0.5030000000000  0.5970880000000  0.4644230000000 1.0
C      1  0.5339870000000  0.4075330000000  0.5246260000000 1.0
C      1  0.4769800000000  0.4121870000000  0.5156530000000 1.0
C      1  0.5053170000000  0.4002110000000  0.4508580000000 1.0
C      1  0.5245260000000  0.5849520000000  0.4826620000000 1.0
C      1  0.4689920000000  0.6006720000000  0.4658490000000 1.0
C      1  0.4953850000000  0.5874490000000  0.5358190000000 1.0
C      1  0.5333110000000  0.4114460000000  0.4666240000000 1.0
C      1  0.4611320000000  0.4093840000000  0.4829740000000 1.0
C      1  0.5034820000000  0.4156880000000  0.5366730000000 1.0
C      1  0.4377540000000  0.5518650000000  0.4438170000000 1.0
C      1  0.5855060000000  0.5379430000000  0.4822050000000 1.0
C      1  0.4861500000000  0.5518950000000  0.5761980000000 1.0
C      1  0.4410820000000  0.4504150000000  0.4419590000000 1.0
C      1  0.5798720000000  0.4488890000000  0.4755390000000 1.0
C      1  0.4780210000000  0.4495110000000  0.5776040000000 1.0
C      1  0.4391630000000  0.5524340000000  0.5524550000000 1.0
C      1  0.5673580000000  0.5401640000000  0.5304520000000 1.0
C      1  0.4901710000000  0.5643240000000  0.4290170000000 1.0
C      1  0.4393060000000  0.4506770000000  0.5635440000000 1.0
C      1  0.5844220000000  0.4479990000000  0.5218710000000 1.0
C      1  0.4770680000000  0.4484880000000  0.4189280000000 1.0
C      1  0.5556310000000  0.4697490000000  0.4871550000000 1.0
C      1  0.4832690000000  0.4738070000000  0.5562570000000 1.0
C      1  0.4608110000000  0.4707050000000  0.4585120000000 1.0
C      1  0.5576910000000  0.5275460000000  0.4749840000000 1.0
C      1  0.4861010000000  0.5248990000000  0.5554930000000 1.0
C      1  0.4517790000000  0.5267520000000  0.4598800000000 1.0
C      1  0.5613540000000  0.4711620000000  0.5169780000000 1.0
C      1  0.4845650000000  0.4742940000000  0.4380010000000 1.0
C      1  0.4547730000000  0.4717020000000  0.5449820000000 1.0
C      1  0.5556830000000  0.5277440000000  0.5067760000000 1.0
C      1  0.4739340000000  0.5369870000000  0.4361870000000 1.0
C      1  0.4552590000000  0.5247260000000  0.5410720000000 1.0
C      1  0.4816620000000  0.4190670000000  0.4354260000000 1.0
C      1  0.5613320000000  0.4244140000000  0.5134210000000 1.0
C      1  0.4497730000000  0.4209990000000  0.5559350000000 1.0
C      1  0.5090410000000  0.5870630000000  0.4376720000000 1.0
C      1  0.5566590000000  0.5954830000000  0.5154280000000 1.0
C      1  0.4400890000000  0.5812100000000  0.5359950000000 1.0
C      1  0.4818470000000  0.4193460000000  0.5627430000000 1.0
C      1  0.5621540000000  0.4202360000000  0.4801570000000 1.0
C      1  0.4555280000000  0.4216120000000  0.4528280000000 1.0
C      1  0.4997240000000  0.5799320000000  0.5657960000000 1.0
C      1  0.5592600000000  0.5832960000000  0.4837570000000 1.0
C      1  0.4444400000000  0.5819150000000  0.4584360000000 1.0
C      1  0.4432730000000  0.5725710000000  0.4196350000000 1.0
C      1  0.5855990000000  0.5636800000000  0.4927030000000 1.0
C      1  0.4613530000000  0.5625030000000  0.5947780000000 1.0
C      1  0.4353940000000  0.4271800000000  0.4189500000000 1.0
C      1  0.6013440000000  0.4254080000000  0.4845380000000 1.0
C      1  0.4590230000000  0.4422140000000  0.6043200000000 1.0
C      1  0.4386340000000  0.5612530000000  0.5837010000000 1.0
C      1  0.6023930000000  0.5645150000000  0.5157730000000 1.0
C      1  0.4669250000000  0.5752690000000  0.4113260000000 1.0
C      1  0.4343850000000  0.4459840000000  0.5955350000000 1.0
C      1  0.6029010000000  0.4250660000000  0.5101310000000 1.0
C      1  0.4572610000000  0.4270980000000  0.4047350000000 1.0
C      1  0.4491750000000  0.4986340000000  0.4160250000000 1.0
C      1  0.4515980000000  0.5023530000000  0.5813830000000 1.0
C      1  0.6031380000000  0.4902390000000  0.4947500000000 1.0
END
