TITL C-2622965-4321-268 -0.000645056503139951 125000 -329.019567336751 0 0 63 (C1) n - 1
REM
REM in /nfs/bkarasulu/CARBON/AIRSS/Generating-Clusters/AIREBO/with-SteepDescent/Higher-Symm/SD-CG/HFTN-CG
REM
REM
REM
REM
REM
REM ./C.cell (b20cbc046b6831c77cfcea5457e17084)
REM
REM compiler GCC version 9.2.1 20190827 (Red Hat 9.2.1-1)
REM options -cpp -mtune=generic -march=x86-64 -g -O0 -fpre-include=/usr/include/finclude/math-vector-fortran.h
REM seed 1263901279 -1410679387 1902856506 -1066435303 1350781094 424142188 -164319059 -1147968948 1237984405 313814200 -348594568 1748970206 550127878 -476368412 1912744411 424488526 1888887840 1586806426 -79910945 261714430 -1988696551 964822446 -561030386 -1378462846 -928068912 -126195261 270281021 -1057188630 845679078 1880649715 1894443491 -1033268655 1579437287
REM
CELL 1.54180   50.00000   50.00000   50.00000   90.00000   90.00000   90.00000
LATT -1
SFAC C  
C      1  0.5269190000000  0.4626850000000  0.4387660000000 1.0
C      1  0.5299730000000  0.5724670000000  0.5015870000000 1.0
C      1  0.5296920000000  0.4624630000000  0.5620070000000 1.0
C      1  0.4722990000000  0.5374530000000  0.4387740000000 1.0
C      1  0.4696820000000  0.4274720000000  0.5016220000000 1.0
C      1  0.4706520000000  0.5372700000000  0.5621030000000 1.0
C      1  0.5032110000000  0.4866690000000  0.4343150000000 1.0
C      1  0.5054110000000  0.5608400000000  0.5205730000000 1.0
C      1  0.5045950000000  0.4517320000000  0.5432600000000 1.0
C      1  0.4959110000000  0.5133740000000  0.4343310000000 1.0
C      1  0.4944090000000  0.4385940000000  0.5203170000000 1.0
C      1  0.4954860000000  0.5474250000000  0.5436020000000 1.0
C      1  0.4607610000000  0.4635450000000  0.5160830000000 1.0
C      1  0.4610200000000  0.5047420000000  0.4606930000000 1.0
C      1  0.4614880000000  0.5321970000000  0.5236530000000 1.0
C      1  0.5390700000000  0.5363520000000  0.5157580000000 1.0
C      1  0.5382710000000  0.4951610000000  0.4603310000000 1.0
C      1  0.5381540000000  0.4678460000000  0.5234680000000 1.0
C      1  0.4585430000000  0.4937980000000  0.5235550000000 1.0
C      1  0.4585410000000  0.4829360000000  0.4828660000000 1.0
C      1  0.4580940000000  0.5245990000000  0.4936280000000 1.0
C      1  0.5414390000000  0.5060870000000  0.5230800000000 1.0
C      1  0.5410770000000  0.5169780000000  0.4825130000000 1.0
C      1  0.5414500000000  0.4755410000000  0.4933920000000 1.0
C      1  0.5475920000000  0.5362880000000  0.5481780000000 1.0
C      1  0.5470170000000  0.4390360000000  0.5080140000000 1.0
C      1  0.5454550000000  0.5232880000000  0.4435630000000 1.0
C      1  0.4518080000000  0.4636000000000  0.5485050000000 1.0
C      1  0.4526900000000  0.5610840000000  0.5083590000000 1.0
C      1  0.4536430000000  0.4767340000000  0.4439500000000 1.0
C      1  0.5056330000000  0.5188500000000  0.5590270000000 1.0
C      1  0.5044940000000  0.4401540000000  0.4878710000000 1.0
C      1  0.5027590000000  0.5415630000000  0.4533170000000 1.0
C      1  0.4947490000000  0.4805580000000  0.5583880000000 1.0
C      1  0.4951230000000  0.5596070000000  0.4881760000000 1.0
C      1  0.4964410000000  0.4584360000000  0.4532310000000 1.0
C      1  0.4561830000000  0.5120730000000  0.5589870000000 1.0
C      1  0.4566490000000  0.4431110000000  0.4803910000000 1.0
C      1  0.4548820000000  0.5469470000000  0.4606420000000 1.0
C      1  0.5438500000000  0.4880090000000  0.5586510000000 1.0
C      1  0.5427960000000  0.5568230000000  0.4801640000000 1.0
C      1  0.5445620000000  0.4532440000000  0.4603660000000 1.0
C      1  0.5136770000000  0.4899910000000  0.5325300000000 1.0
C      1  0.5136160000000  0.4770870000000  0.4759000000000 1.0
C      1  0.5137600000000  0.5326060000000  0.4930650000000 1.0
C      1  0.4861400000000  0.5102050000000  0.5325640000000 1.0
C      1  0.4858480000000  0.5227620000000  0.4760590000000 1.0
C      1  0.4858790000000  0.4671740000000  0.4931460000000 1.0
C      1  0.5644170000000  0.4858560000000  0.5353930000000 1.0
C      1  0.5642230000000  0.4752030000000  0.4695170000000 1.0
C      1  0.5641700000000  0.5379460000000  0.4928730000000 1.0
C      1  0.4354370000000  0.5140730000000  0.5358640000000 1.0
C      1  0.4352740000000  0.5249820000000  0.4698390000000 1.0
C      1  0.4354950000000  0.4620180000000  0.4933760000000 1.0
C      1  0.5349610000000  0.4376050000000  0.4827390000000 1.0
C      1  0.5329980000000  0.5452200000000  0.4554200000000 1.0
C      1  0.5349260000000  0.5153420000000  0.5613690000000 1.0
C      1  0.4646510000000  0.5625270000000  0.4830000000000 1.0
C      1  0.4662100000000  0.4547630000000  0.4555830000000 1.0
C      1  0.4643590000000  0.4846040000000  0.5619880000000 1.0
C      1  0.4936250000000  0.5739930000000  0.4579250000000 1.0
C      1  0.5054480000000  0.4259300000000  0.4575420000000 1.0
C      1  0.4921730000000  0.5024820000000  0.5842510000000 1.0
END
