TITL C-2622968-4806-207 -0.00276093898679218 125000 -879.058980457087 0 0 161 (C1) n - 1
REM
REM in /nfs/bkarasulu/CARBON/AIRSS/Generating-Clusters/AIREBO/with-SteepDescent/Higher-Symm/SD-CG/HFTN-CG
REM
REM
REM
REM
REM
REM ./C.cell (b20cbc046b6831c77cfcea5457e17084)
REM
REM compiler GCC version 9.2.1 20190827 (Red Hat 9.2.1-1)
REM options -cpp -mtune=generic -march=x86-64 -g -O0 -fpre-include=/usr/include/finclude/math-vector-fortran.h
REM seed 2044329874 1170740805 1733036626 1311658567 1740178607 510512898 845256477 1381969185 -505236199 -1936175958 -1396382206 877883364 -1836979132 -329849906 1132645533 -487034154 833617762 862165958 -284710785 -1866916235 -558964095 558451834 348001356 -215177054 -479255016 -330095894 -686085442 1647533186 1760082755 -736146240 -990284134 -1490868395 -1263839500
REM
CELL 1.54180   50.00000   50.00000   50.00000   90.00000   90.00000   90.00000
LATT -1
SFAC C  
C      1  0.4421100000000  0.6175650000000  0.4759120000000 1.0
C      1  0.5699020000000  0.4250650000000  0.5328720000000 1.0
C      1  0.4882780000000  0.4704380000000  0.4071540000000 1.0
C      1  0.4404830000000  0.4823490000000  0.4800980000000 1.0
C      1  0.4348650000000  0.5053510000000  0.5591680000000 1.0
C      1  0.4949210000000  0.4329050000000  0.4982880000000 1.0
C      1  0.5992660000000  0.4659300000000  0.4391690000000 1.0
C      1  0.5510760000000  0.4437670000000  0.5131960000000 1.0
C      1  0.4318080000000  0.4988330000000  0.4283240000000 1.0
C      1  0.4971110000000  0.4381570000000  0.4039690000000 1.0
C      1  0.4294760000000  0.4658350000000  0.5259310000000 1.0
C      1  0.5547380000000  0.4652600000000  0.4702440000000 1.0
C      1  0.4606870000000  0.5939390000000  0.5975080000000 1.0
C      1  0.5079800000000  0.4434900000000  0.4687260000000 1.0
C      1  0.4804440000000  0.5007070000000  0.4053030000000 1.0
C      1  0.4029460000000  0.5045720000000  0.5137560000000 1.0
C      1  0.4507020000000  0.5561810000000  0.5645010000000 1.0
C      1  0.5025020000000  0.5120070000000  0.5060190000000 1.0
C      1  0.4725450000000  0.5220920000000  0.5683370000000 1.0
C      1  0.5486380000000  0.5028450000000  0.4824890000000 1.0
C      1  0.4476460000000  0.4305200000000  0.5432660000000 1.0
C      1  0.5781750000000  0.4972130000000  0.4740000000000 1.0
C      1  0.5325280000000  0.5690020000000  0.5948690000000 1.0
C      1  0.5849680000000  0.4691640000000  0.4623050000000 1.0
C      1  0.5091780000000  0.6118640000000  0.4883370000000 1.0
C      1  0.4509880000000  0.4844670000000  0.5416320000000 1.0
C      1  0.4340380000000  0.4500280000000  0.4496350000000 1.0
C      1  0.4829820000000  0.6107530000000  0.5101500000000 1.0
C      1  0.5020550000000  0.5869860000000  0.4365350000000 1.0
C      1  0.5776160000000  0.4870750000000  0.5644290000000 1.0
C      1  0.4206320000000  0.5520090000000  0.5217680000000 1.0
C      1  0.4570750000000  0.3941120000000  0.4476080000000 1.0
C      1  0.4339710000000  0.5328240000000  0.4234320000000 1.0
C      1  0.5306790000000  0.4508700000000  0.5748180000000 1.0
C      1  0.5629400000000  0.5332680000000  0.5327050000000 1.0
C      1  0.4169750000000  0.5223530000000  0.5382170000000 1.0
C      1  0.4907610000000  0.4384330000000  0.5815260000000 1.0
C      1  0.5075230000000  0.5156250000000  0.4121650000000 1.0
C      1  0.5856330000000  0.4821530000000  0.5400230000000 1.0
C      1  0.4792230000000  0.4931940000000  0.5530020000000 1.0
C      1  0.4549630000000  0.4985110000000  0.5857300000000 1.0
C      1  0.4945930000000  0.4240790000000  0.4298580000000 1.0
C      1  0.4447530000000  0.5598270000000  0.4283190000000 1.0
C      1  0.5124690000000  0.4089160000000  0.5151100000000 1.0
C      1  0.5661680000000  0.4028760000000  0.5004200000000 1.0
C      1  0.5291040000000  0.4886870000000  0.4506980000000 1.0
C      1  0.4670850000000  0.4484930000000  0.5254210000000 1.0
C      1  0.4744100000000  0.4063730000000  0.5039030000000 1.0
C      1  0.5654800000000  0.5836690000000  0.5000890000000 1.0
C      1  0.5526330000000  0.5514810000000  0.5823700000000 1.0
C      1  0.4069860000000  0.4514090000000  0.5436930000000 1.0
C      1  0.5161620000000  0.4031240000000  0.4438670000000 1.0
C      1  0.5561270000000  0.5673610000000  0.4109220000000 1.0
C      1  0.4050050000000  0.5016010000000  0.4577840000000 1.0
C      1  0.5622650000000  0.5834320000000  0.5312840000000 1.0
C      1  0.3976120000000  0.4306710000000  0.5264980000000 1.0
C      1  0.5193220000000  0.4201330000000  0.5773430000000 1.0
C      1  0.5678170000000  0.5427230000000  0.4135580000000 1.0
C      1  0.5474400000000  0.4374730000000  0.4829680000000 1.0
C      1  0.5484120000000  0.4081690000000  0.4404180000000 1.0
C      1  0.4767510000000  0.5692460000000  0.4293810000000 1.0
C      1  0.5505110000000  0.4246440000000  0.4172220000000 1.0
C      1  0.5638090000000  0.4156390000000  0.4626550000000 1.0
C      1  0.5223240000000  0.5461330000000  0.4095700000000 1.0
C      1  0.5496330000000  0.5472270000000  0.4963800000000 1.0
C      1  0.4585090000000  0.4867630000000  0.5085950000000 1.0
C      1  0.5301380000000  0.5224620000000  0.4991850000000 1.0
C      1  0.4261410000000  0.4788980000000  0.4522220000000 1.0
C      1  0.4938350000000  0.4829540000000  0.6150680000000 1.0
C      1  0.4388350000000  0.4699030000000  0.5768470000000 1.0
C      1  0.4965190000000  0.3963440000000  0.5356230000000 1.0
C      1  0.5365590000000  0.5918230000000  0.4853440000000 1.0
C      1  0.5672770000000  0.4689220000000  0.5164110000000 1.0
C      1  0.5846350000000  0.4243200000000  0.4879090000000 1.0
C      1  0.4545010000000  0.4416420000000  0.4747430000000 1.0
C      1  0.4421380000000  0.4446160000000  0.5026330000000 1.0
C      1  0.4826180000000  0.4769160000000  0.4395970000000 1.0
C      1  0.5100830000000  0.4710600000000  0.5928980000000 1.0
C      1  0.4718790000000  0.5740930000000  0.5778140000000 1.0
C      1  0.4822120000000  0.5766410000000  0.5464180000000 1.0
C      1  0.5990400000000  0.4785020000000  0.5089700000000 1.0
C      1  0.4174990000000  0.4230940000000  0.5085070000000 1.0
C      1  0.5381460000000  0.5405050000000  0.4650560000000 1.0
C      1  0.4941160000000  0.4168510000000  0.5558860000000 1.0
C      1  0.4564800000000  0.5331340000000  0.5404290000000 1.0
C      1  0.4987230000000  0.5477620000000  0.4324750000000 1.0
C      1  0.5336340000000  0.4468630000000  0.4177180000000 1.0
C      1  0.4605560000000  0.5476920000000  0.5098610000000 1.0
C      1  0.4788420000000  0.4452830000000  0.4512780000000 1.0
C      1  0.4642190000000  0.5352220000000  0.4721760000000 1.0
C      1  0.4876310000000  0.5369500000000  0.4944110000000 1.0
C      1  0.5374870000000  0.5722160000000  0.4589260000000 1.0
C      1  0.5069590000000  0.5592500000000  0.4812450000000 1.0
C      1  0.5403010000000  0.6008380000000  0.5471090000000 1.0
C      1  0.4911500000000  0.4682740000000  0.5651660000000 1.0
C      1  0.5213940000000  0.5901560000000  0.5733570000000 1.0
C      1  0.5357880000000  0.4862380000000  0.3862410000000 1.0
C      1  0.5165770000000  0.4946410000000  0.5391390000000 1.0
C      1  0.5775110000000  0.5578430000000  0.5442720000000 1.0
C      1  0.5425200000000  0.4066870000000  0.5245580000000 1.0
C      1  0.4401980000000  0.5732000000000  0.5037380000000 1.0
C      1  0.4732090000000  0.4799800000000  0.4721360000000 1.0
C      1  0.5257880000000  0.5921740000000  0.5176050000000 1.0
C      1  0.5605600000000  0.5003170000000  0.5825290000000 1.0
C      1  0.4482920000000  0.5859770000000  0.4751800000000 1.0
C      1  0.4837460000000  0.4649480000000  0.5007610000000 1.0
C      1  0.4557460000000  0.4400330000000  0.4267030000000 1.0
C      1  0.4706760000000  0.4918900000000  0.6114930000000 1.0
C      1  0.4345560000000  0.5314880000000  0.5762290000000 1.0
C      1  0.5055620000000  0.5357560000000  0.4587420000000 1.0
C      1  0.4552370000000  0.5100590000000  0.4098110000000 1.0
C      1  0.5325430000000  0.5139680000000  0.5700810000000 1.0
C      1  0.4410120000000  0.4168400000000  0.4439350000000 1.0
C      1  0.5504180000000  0.5129600000000  0.4500750000000 1.0
C      1  0.4948330000000  0.5184460000000  0.5363350000000 1.0
C      1  0.5288370000000  0.5518850000000  0.5589170000000 1.0
C      1  0.4370840000000  0.5721050000000  0.5417090000000 1.0
C      1  0.4186630000000  0.4837260000000  0.5039360000000 1.0
C      1  0.4615840000000  0.5888510000000  0.5250590000000 1.0
C      1  0.5004240000000  0.5716550000000  0.5112740000000 1.0
C      1  0.5632270000000  0.4967890000000  0.6096430000000 1.0
C      1  0.5469480000000  0.5094380000000  0.5394610000000 1.0
C      1  0.4085200000000  0.5286760000000  0.4407700000000 1.0
C      1  0.5037610000000  0.5006760000000  0.4398000000000 1.0
C      1  0.5354260000000  0.4295650000000  0.5487460000000 1.0
C      1  0.5291210000000  0.5743450000000  0.4273690000000 1.0
C      1  0.5422730000000  0.3926210000000  0.4872080000000 1.0
C      1  0.4501270000000  0.4065290000000  0.5273100000000 1.0
C      1  0.5009270000000  0.5647490000000  0.5841980000000 1.0
C      1  0.4843450000000  0.5105540000000  0.4646220000000 1.0
C      1  0.5979440000000  0.5075180000000  0.4927090000000 1.0
C      1  0.5189100000000  0.4630520000000  0.3960960000000 1.0
C      1  0.5912020000000  0.4519130000000  0.4892460000000 1.0
C      1  0.4417240000000  0.5138650000000  0.5165000000000 1.0
C      1  0.5032490000000  0.5510950000000  0.5379490000000 1.0
C      1  0.5364350000000  0.5079630000000  0.4026730000000 1.0
C      1  0.5995110000000  0.5356930000000  0.4926210000000 1.0
C      1  0.4788880000000  0.5861280000000  0.4891680000000 1.0
C      1  0.4388570000000  0.5311570000000  0.4894500000000 1.0
C      1  0.4291860000000  0.5806150000000  0.4464030000000 1.0
C      1  0.4615590000000  0.5602550000000  0.4573340000000 1.0
C      1  0.5413190000000  0.5573500000000  0.5277640000000 1.0
C      1  0.5066810000000  0.5955160000000  0.5447080000000 1.0
C      1  0.4933610000000  0.4461470000000  0.5425320000000 1.0
C      1  0.5045130000000  0.5329780000000  0.5733360000000 1.0
C      1  0.5285570000000  0.4820580000000  0.5670290000000 1.0
C      1  0.4715770000000  0.3828110000000  0.5270920000000 1.0
C      1  0.4015450000000  0.5331210000000  0.5032530000000 1.0
C      1  0.5136410000000  0.4788160000000  0.5091880000000 1.0
C      1  0.5018440000000  0.5886800000000  0.4659590000000 1.0
C      1  0.5801710000000  0.5562470000000  0.4934050000000 1.0
C      1  0.5211540000000  0.4511920000000  0.5275430000000 1.0
C      1  0.5250610000000  0.4142850000000  0.4721280000000 1.0
C      1  0.5269460000000  0.4561460000000  0.4432080000000 1.0
C      1  0.4834530000000  0.3949000000000  0.4422480000000 1.0
C      1  0.4313780000000  0.4470890000000  0.5610730000000 1.0
C      1  0.5240670000000  0.4714220000000  0.4795520000000 1.0
C      1  0.5461030000000  0.4893400000000  0.5128840000000 1.0
C      1  0.5780590000000  0.5571980000000  0.5723390000000 1.0
C      1  0.4113850000000  0.5303890000000  0.4738760000000 1.0
C      1  0.5557310000000  0.5184050000000  0.4204180000000 1.0
END
