TITL C-2622957-9142-699 -0.00169641057605432 125000 -450.190503836723 0 0 85 (C1) n - 1
REM
REM in /nfs/bkarasulu/CARBON/AIRSS/Generating-Clusters/AIREBO/with-SteepDescent/Higher-Symm/SD-CG/HFTN-CG
REM
REM
REM
REM
REM
REM ./C.cell (b20cbc046b6831c77cfcea5457e17084)
REM
REM compiler GCC version 9.2.1 20190827 (Red Hat 9.2.1-1)
REM options -cpp -mtune=generic -march=x86-64 -g -O0 -fpre-include=/usr/include/finclude/math-vector-fortran.h
REM seed 1648290010 -1744220049 28761258 -1289934875 -380815639 691856820 -1835270022 -1314709952 1756993143 2026836126 -2100655858 -1496939108 -1365087776 -1822044657 -1789919774 -610807435 -1940232819 -2068905401 -401391978 -757162457 -1963779979 846827272 -867543171 -693499524 1674544233 -1776244293 -1841978211 1857689153 -356997991 -1637724459 -1582739118 311738886 1356929278
REM
CELL 1.54180   50.00000   50.00000   50.00000   90.00000   90.00000   90.00000
LATT -1
SFAC C  
C      1  0.5414200000000  0.4365050000000  0.4617980000000 1.0
C      1  0.5528350000000  0.5620570000000  0.5115310000000 1.0
C      1  0.5170910000000  0.4409750000000  0.5538030000000 1.0
C      1  0.4581080000000  0.5653420000000  0.5417390000000 1.0
C      1  0.4492800000000  0.4396930000000  0.4837570000000 1.0
C      1  0.4877750000000  0.5647360000000  0.4497110000000 1.0
C      1  0.5781790000000  0.4970970000000  0.5047050000000 1.0
C      1  0.5376180000000  0.5076580000000  0.5698770000000 1.0
C      1  0.4406790000000  0.4996280000000  0.5666340000000 1.0
C      1  0.4260950000000  0.5053300000000  0.4897080000000 1.0
C      1  0.4652110000000  0.5003460000000  0.4267870000000 1.0
C      1  0.5428490000000  0.5013450000000  0.4334610000000 1.0
C      1  0.4783090000000  0.5612050000000  0.4883610000000 1.0
C      1  0.5056200000000  0.4297490000000  0.4780580000000 1.0
C      1  0.5277300000000  0.5608660000000  0.4805750000000 1.0
C      1  0.5318390000000  0.4254530000000  0.5101210000000 1.0
C      1  0.5033620000000  0.5651700000000  0.5271230000000 1.0
C      1  0.4815310000000  0.4333740000000  0.5175260000000 1.0
C      1  0.5698980000000  0.5427590000000  0.5009550000000 1.0
C      1  0.5314750000000  0.4630050000000  0.5617410000000 1.0
C      1  0.4610190000000  0.5399650000000  0.5556630000000 1.0
C      1  0.4317460000000  0.4596680000000  0.4900480000000 1.0
C      1  0.4702530000000  0.5425110000000  0.4444600000000 1.0
C      1  0.5370820000000  0.4566590000000  0.4432020000000 1.0
C      1  0.4784620000000  0.5843050000000  0.5329300000000 1.0
C      1  0.4633130000000  0.4160620000000  0.4955710000000 1.0
C      1  0.4827440000000  0.5869810000000  0.4672350000000 1.0
C      1  0.5304880000000  0.4091570000000  0.4673930000000 1.0
C      1  0.5443510000000  0.5843770000000  0.4952590000000 1.0
C      1  0.5262490000000  0.4162230000000  0.5407340000000 1.0
C      1  0.4510600000000  0.4854150000000  0.5137550000000 1.0
C      1  0.4614370000000  0.5127250000000  0.4695470000000 1.0
C      1  0.5113290000000  0.4857780000000  0.4524330000000 1.0
C      1  0.5487090000000  0.5138650000000  0.4835210000000 1.0
C      1  0.5372060000000  0.4889550000000  0.5320800000000 1.0
C      1  0.4891390000000  0.4970750000000  0.5563370000000 1.0
C      1  0.4490460000000  0.5363890000000  0.4992830000000 1.0
C      1  0.4789040000000  0.4628330000000  0.4558550000000 1.0
C      1  0.5351870000000  0.5343030000000  0.4520850000000 1.0
C      1  0.5557240000000  0.4643440000000  0.5066910000000 1.0
C      1  0.5197960000000  0.5364110000000  0.5492910000000 1.0
C      1  0.4516510000000  0.4600920000000  0.5446130000000 1.0
C      1  0.5244680000000  0.5269620000000  0.4951590000000 1.0
C      1  0.5158600000000  0.4790520000000  0.5193220000000 1.0
C      1  0.4881170000000  0.5167870000000  0.5286220000000 1.0
C      1  0.4754830000000  0.4806950000000  0.5035290000000 1.0
C      1  0.4847000000000  0.5276560000000  0.4833980000000 1.0
C      1  0.5114880000000  0.4794950000000  0.4796330000000 1.0
C      1  0.5708490000000  0.5201500000000  0.5174800000000 1.0
C      1  0.5190420000000  0.4872350000000  0.5692470000000 1.0
C      1  0.4407430000000  0.5217430000000  0.5495190000000 1.0
C      1  0.4329290000000  0.4832050000000  0.4751600000000 1.0
C      1  0.4822290000000  0.5213910000000  0.4307680000000 1.0
C      1  0.5516030000000  0.4798180000000  0.4481640000000 1.0
C      1  0.5829560000000  0.4635040000000  0.5514540000000 1.0
C      1  0.4941520000000  0.5336140000000  0.5959480000000 1.0
C      1  0.4018180000000  0.4609770000000  0.5310230000000 1.0
C      1  0.4191910000000  0.5485350000000  0.4579840000000 1.0
C      1  0.4989550000000  0.4517440000000  0.4090190000000 1.0
C      1  0.5871560000000  0.5408120000000  0.4516440000000 1.0
C      1  0.5593160000000  0.4844010000000  0.4794260000000 1.0
C      1  0.5469180000000  0.5184990000000  0.5391580000000 1.0
C      1  0.4611910000000  0.4814970000000  0.5596820000000 1.0
C      1  0.4385690000000  0.5143840000000  0.5200260000000 1.0
C      1  0.4580400000000  0.4846520000000  0.4534240000000 1.0
C      1  0.5116520000000  0.5140500000000  0.4381650000000 1.0
C      1  0.5578400000000  0.4668360000000  0.5405910000000 1.0
C      1  0.4908400000000  0.5296200000000  0.5657730000000 1.0
C      1  0.4276700000000  0.4635410000000  0.5217960000000 1.0
C      1  0.4439400000000  0.5394390000000  0.4657810000000 1.0
C      1  0.5053310000000  0.4600630000000  0.4345580000000 1.0
C      1  0.5652900000000  0.5363910000000  0.4678540000000 1.0
C      1  0.4810500000000  0.4509970000000  0.4881110000000 1.0
C      1  0.5048210000000  0.5432740000000  0.4645590000000 1.0
C      1  0.5292540000000  0.4519290000000  0.4889330000000 1.0
C      1  0.5281540000000  0.5470490000000  0.5184020000000 1.0
C      1  0.5086680000000  0.4470160000000  0.5225890000000 1.0
C      1  0.4755540000000  0.5469200000000  0.5190980000000 1.0
C      1  0.4647040000000  0.4367720000000  0.5424510000000 1.0
C      1  0.4476840000000  0.5689560000000  0.5009400000000 1.0
C      1  0.4843230000000  0.4317090000000  0.4533170000000 1.0
C      1  0.5319100000000  0.5667420000000  0.4473730000000 1.0
C      1  0.5626940000000  0.4336230000000  0.5008220000000 1.0
C      1  0.5259650000000  0.5679950000000  0.5523490000000 1.0
C      1  0.5006430000000  0.5034560000000  0.5011860000000 1.0
END
