TITL C-2622963-3633-526 -0.00145183466953561 125000 -783.412610651674 0 0 143 (C1) n - 1
REM
REM in /nfs/bkarasulu/CARBON/AIRSS/Generating-Clusters/AIREBO/with-SteepDescent/Higher-Symm/SD-CG/HFTN-CG
REM
REM
REM
REM
REM
REM ./C.cell (b20cbc046b6831c77cfcea5457e17084)
REM
REM compiler GCC version 9.2.1 20190827 (Red Hat 9.2.1-1)
REM options -cpp -mtune=generic -march=x86-64 -g -O0 -fpre-include=/usr/include/finclude/math-vector-fortran.h
REM seed -126668273 -894243468 -1070898424 117810856 1417446869 196510786 -1352535431 1451486588 1895496004 324766907 1755184374 1861488091 1261905076 -1391286927 -1255621940 -223965209 -331041330 -1047558300 -1634448088 -1518296683 -1299648598 64410818 -2102615332 -354315075 755803427 -1213112279 253326012 -332922491 -1055672722 -536047119 1803988719 -1188181079 -278781407
REM
CELL 1.54180   50.00000   50.00000   50.00000   90.00000   90.00000   90.00000
LATT -1
SFAC C  
C      1  0.5244860000000  0.5125520000000  0.4404980000000 1.0
C      1  0.4777660000000  0.4941350000000  0.4374620000000 1.0
C      1  0.4992490000000  0.4590600000000  0.5048360000000 1.0
C      1  0.5031950000000  0.5391990000000  0.5036470000000 1.0
C      1  0.4521130000000  0.5667660000000  0.5304030000000 1.0
C      1  0.5562910000000  0.4323060000000  0.5393740000000 1.0
C      1  0.5738990000000  0.4483550000000  0.5184170000000 1.0
C      1  0.4250080000000  0.5492670000000  0.5196730000000 1.0
C      1  0.5678800000000  0.5098780000000  0.5116560000000 1.0
C      1  0.4324410000000  0.4906120000000  0.5145060000000 1.0
C      1  0.4823060000000  0.5634670000000  0.5150920000000 1.0
C      1  0.5399240000000  0.4128740000000  0.5208430000000 1.0
C      1  0.5132510000000  0.4143280000000  0.5367750000000 1.0
C      1  0.4972010000000  0.5981200000000  0.5400550000000 1.0
C      1  0.4161720000000  0.5197890000000  0.5209630000000 1.0
C      1  0.5809500000000  0.4794740000000  0.5196160000000 1.0
C      1  0.4690970000000  0.5369820000000  0.4141880000000 1.0
C      1  0.5272550000000  0.4751130000000  0.4043690000000 1.0
C      1  0.5393490000000  0.5354540000000  0.5231220000000 1.0
C      1  0.4512530000000  0.4428050000000  0.5131910000000 1.0
C      1  0.4303590000000  0.4787250000000  0.3979350000000 1.0
C      1  0.5717880000000  0.5203200000000  0.3990470000000 1.0
C      1  0.5315020000000  0.5158210000000  0.5804190000000 1.0
C      1  0.4685930000000  0.4887270000000  0.5837550000000 1.0
C      1  0.5298830000000  0.4527240000000  0.4240450000000 1.0
C      1  0.4658660000000  0.5621820000000  0.4354860000000 1.0
C      1  0.5110590000000  0.4242570000000  0.5673820000000 1.0
C      1  0.4885100000000  0.5734250000000  0.5619540000000 1.0
C      1  0.4835940000000  0.4948610000000  0.5178940000000 1.0
C      1  0.5142590000000  0.4919710000000  0.5224250000000 1.0
C      1  0.5470740000000  0.5660780000000  0.4480420000000 1.0
C      1  0.4487330000000  0.4325130000000  0.4494800000000 1.0
C      1  0.4307450000000  0.4996900000000  0.4158770000000 1.0
C      1  0.5731730000000  0.4969870000000  0.4187320000000 1.0
C      1  0.5580000000000  0.5018640000000  0.4661990000000 1.0
C      1  0.4436770000000  0.4984000000000  0.4640320000000 1.0
C      1  0.5079290000000  0.5598720000000  0.5375430000000 1.0
C      1  0.4829550000000  0.4356120000000  0.5518340000000 1.0
C      1  0.4129820000000  0.4645770000000  0.5737780000000 1.0
C      1  0.5756440000000  0.5391240000000  0.5731430000000 1.0
C      1  0.5407750000000  0.5003490000000  0.4137900000000 1.0
C      1  0.4574510000000  0.5119110000000  0.4206990000000 1.0
C      1  0.4628970000000  0.5892600000000  0.4811320000000 1.0
C      1  0.5332600000000  0.4142660000000  0.4875260000000 1.0
C      1  0.5249320000000  0.5048910000000  0.4736430000000 1.0
C      1  0.4771130000000  0.4972110000000  0.4702500000000 1.0
C      1  0.5429430000000  0.5302290000000  0.3978080000000 1.0
C      1  0.4510940000000  0.4612600000000  0.3930630000000 1.0
C      1  0.4716880000000  0.5217400000000  0.5281680000000 1.0
C      1  0.5240130000000  0.4649540000000  0.5354010000000 1.0
C      1  0.4998100000000  0.4133260000000  0.4905250000000 1.0
C      1  0.4959220000000  0.5909450000000  0.4833750000000 1.0
C      1  0.5259050000000  0.5493610000000  0.5808410000000 1.0
C      1  0.4730820000000  0.4550490000000  0.5853350000000 1.0
C      1  0.4058190000000  0.4929820000000  0.5641740000000 1.0
C      1  0.5880440000000  0.5131580000000  0.5601650000000 1.0
C      1  0.5285680000000  0.4439930000000  0.5131710000000 1.0
C      1  0.4625210000000  0.5376260000000  0.5052210000000 1.0
C      1  0.4386250000000  0.5405240000000  0.4833200000000 1.0
C      1  0.5738420000000  0.4588850000000  0.4860860000000 1.0
C      1  0.4824390000000  0.5837460000000  0.4530020000000 1.0
C      1  0.5056290000000  0.4295450000000  0.4272710000000 1.0
C      1  0.4913210000000  0.4615530000000  0.5379670000000 1.0
C      1  0.5022210000000  0.5276180000000  0.5356020000000 1.0
C      1  0.4496510000000  0.5311860000000  0.4547320000000 1.0
C      1  0.5501370000000  0.4683710000000  0.4657530000000 1.0
C      1  0.4882520000000  0.4410840000000  0.4781420000000 1.0
C      1  0.5185820000000  0.5587400000000  0.4821990000000 1.0
C      1  0.5640410000000  0.4277090000000  0.4928690000000 1.0
C      1  0.4412630000000  0.5707640000000  0.4984280000000 1.0
C      1  0.5642300000000  0.5622550000000  0.5568140000000 1.0
C      1  0.4282090000000  0.4397550000000  0.5633100000000 1.0
C      1  0.5830530000000  0.5503830000000  0.4751150000000 1.0
C      1  0.4251930000000  0.4482230000000  0.4776150000000 1.0
C      1  0.4245690000000  0.4814960000000  0.4865240000000 1.0
C      1  0.5804820000000  0.5184210000000  0.4856150000000 1.0
C      1  0.3997560000000  0.5119070000000  0.4941820000000 1.0
C      1  0.6015890000000  0.4859730000000  0.4956810000000 1.0
C      1  0.5300760000000  0.4473980000000  0.4798280000000 1.0
C      1  0.4748810000000  0.5574290000000  0.4818800000000 1.0
C      1  0.6079160000000  0.5305160000000  0.4712470000000 1.0
C      1  0.3978040000000  0.4654260000000  0.4767760000000 1.0
C      1  0.4422510000000  0.4769860000000  0.5657770000000 1.0
C      1  0.5505310000000  0.5250230000000  0.5537680000000 1.0
C      1  0.4969600000000  0.5238310000000  0.4775670000000 1.0
C      1  0.5045480000000  0.4778820000000  0.4770200000000 1.0
C      1  0.4802150000000  0.4376120000000  0.4482050000000 1.0
C      1  0.5141670000000  0.5734910000000  0.4523960000000 1.0
C      1  0.4645010000000  0.5223290000000  0.5903550000000 1.0
C      1  0.5393840000000  0.4847960000000  0.5924640000000 1.0
C      1  0.4925430000000  0.4119350000000  0.5210570000000 1.0
C      1  0.5100470000000  0.5922350000000  0.5142790000000 1.0
C      1  0.4441700000000  0.4221850000000  0.4798910000000 1.0
C      1  0.5564320000000  0.5708700000000  0.4803790000000 1.0
C      1  0.4316820000000  0.4695510000000  0.5370580000000 1.0
C      1  0.5773170000000  0.5319480000000  0.5339980000000 1.0
C      1  0.4777320000000  0.4899130000000  0.5510210000000 1.0
C      1  0.5159330000000  0.5053110000000  0.5521870000000 1.0
C      1  0.4165520000000  0.5175630000000  0.4713920000000 1.0
C      1  0.5867740000000  0.4837300000000  0.4667940000000 1.0
C      1  0.5413230000000  0.4372860000000  0.5628170000000 1.0
C      1  0.4591590000000  0.5646400000000  0.5590740000000 1.0
C      1  0.5289590000000  0.5909750000000  0.4854060000000 1.0
C      1  0.4681970000000  0.4024030000000  0.4893720000000 1.0
C      1  0.5571150000000  0.4560250000000  0.4373460000000 1.0
C      1  0.4353780000000  0.5505250000000  0.4306820000000 1.0
C      1  0.5647890000000  0.5787120000000  0.5119230000000 1.0
C      1  0.4363870000000  0.4122730000000  0.5114770000000 1.0
C      1  0.4223070000000  0.5199690000000  0.4379240000000 1.0
C      1  0.5779840000000  0.4776400000000  0.4372680000000 1.0
C      1  0.4873400000000  0.5441300000000  0.4540770000000 1.0
C      1  0.5134290000000  0.4591250000000  0.4525410000000 1.0
C      1  0.5140160000000  0.4692960000000  0.5993920000000 1.0
C      1  0.4879480000000  0.5349190000000  0.6002630000000 1.0
C      1  0.4998520000000  0.4802190000000  0.3968390000000 1.0
C      1  0.4950250000000  0.5320290000000  0.4051850000000 1.0
C      1  0.5719100000000  0.4919240000000  0.5469320000000 1.0
C      1  0.4230640000000  0.5077280000000  0.5490900000000 1.0
C      1  0.5794550000000  0.5642700000000  0.5309940000000 1.0
C      1  0.4241980000000  0.4367200000000  0.5323000000000 1.0
C      1  0.4642330000000  0.4176690000000  0.5306880000000 1.0
C      1  0.5343420000000  0.5687440000000  0.5180500000000 1.0
C      1  0.5002170000000  0.4481720000000  0.5870890000000 1.0
C      1  0.4995690000000  0.5568080000000  0.5866300000000 1.0
C      1  0.4547180000000  0.4375670000000  0.5706720000000 1.0
C      1  0.5353540000000  0.5621000000000  0.5575560000000 1.0
C      1  0.4871550000000  0.4646240000000  0.4314070000000 1.0
C      1  0.5156220000000  0.5440080000000  0.4371630000000 1.0
C      1  0.4623120000000  0.4862920000000  0.4988460000000 1.0
C      1  0.5344800000000  0.5062690000000  0.5063410000000 1.0
C      1  0.5545680000000  0.5352440000000  0.4605820000000 1.0
C      1  0.4488840000000  0.4650250000000  0.4599330000000 1.0
C      1  0.4622730000000  0.4564520000000  0.4899960000000 1.0
C      1  0.5431540000000  0.5413230000000  0.4907120000000 1.0
C      1  0.5073100000000  0.5150870000000  0.6043060000000 1.0
C      1  0.4952720000000  0.4898790000000  0.6048160000000 1.0
C      1  0.4529220000000  0.5396370000000  0.5703660000000 1.0
C      1  0.5433120000000  0.4619070000000  0.5732150000000 1.0
C      1  0.4776760000000  0.4618440000000  0.4007170000000 1.0
C      1  0.5212140000000  0.5459270000000  0.4048530000000 1.0
C      1  0.4534600000000  0.5138300000000  0.5529070000000 1.0
C      1  0.5437000000000  0.4856570000000  0.5527760000000 1.0
C      1  0.5011740000000  0.5044740000000  0.4173370000000 1.0
END
