TITL C-2622957-9142-734 0.00141973494770277 125000 -397.302052554239 0 0 72 (C1) n - 1
REM
REM in /nfs/bkarasulu/CARBON/AIRSS/Generating-Clusters/AIREBO/with-SteepDescent/Higher-Symm/SD-CG/HFTN-CG
REM
REM
REM
REM
REM
REM ./C.cell (b20cbc046b6831c77cfcea5457e17084)
REM
REM compiler GCC version 9.2.1 20190827 (Red Hat 9.2.1-1)
REM options -cpp -mtune=generic -march=x86-64 -g -O0 -fpre-include=/usr/include/finclude/math-vector-fortran.h
REM seed 473651962 -537393129 658509732 -1503594395 1144473749 1755969382 -430173166 -1999935279 1432952521 2132191338 1375843394 -1625369353 -1967974940 714207878 1491580876 -1007603793 -1378187226 2029517533 140817914 -2027520452 773997854 -1366020390 1041225290 1225838093 290607893 363605624 -1709968498 95110206 -960962074 1782074463 1966451137 -1843084973 -1214724875
REM
CELL 1.54180   50.00000   50.00000   50.00000   90.00000   90.00000   90.00000
LATT -1
SFAC C  
C      1  0.4754990000000  0.5455340000000  0.5093410000000 1.0
C      1  0.5239420000000  0.5463940000000  0.4884930000000 1.0
C      1  0.4818970000000  0.4436390000000  0.5234260000000 1.0
C      1  0.5123220000000  0.4436530000000  0.4690510000000 1.0
C      1  0.4842780000000  0.4728310000000  0.5330890000000 1.0
C      1  0.5179800000000  0.4734640000000  0.4672370000000 1.0
C      1  0.4931580000000  0.5326140000000  0.5308800000000 1.0
C      1  0.5050980000000  0.5338660000000  0.4674240000000 1.0
C      1  0.4537000000000  0.4828070000000  0.5441210000000 1.0
C      1  0.5504710000000  0.4811490000000  0.4604970000000 1.0
C      1  0.4413810000000  0.5135570000000  0.5446700000000 1.0
C      1  0.5597790000000  0.5127410000000  0.4569370000000 1.0
C      1  0.4500320000000  0.4729810000000  0.5124970000000 1.0
C      1  0.5557610000000  0.4737520000000  0.4920060000000 1.0
C      1  0.4436390000000  0.5046950000000  0.5125680000000 1.0
C      1  0.5581060000000  0.5063070000000  0.4901080000000 1.0
C      1  0.5644930000000  0.5569430000000  0.4991720000000 1.0
C      1  0.4324270000000  0.5540680000000  0.4992590000000 1.0
C      1  0.5598140000000  0.4443760000000  0.4998640000000 1.0
C      1  0.4460530000000  0.4495750000000  0.4922530000000 1.0
C      1  0.5378930000000  0.5373170000000  0.5609720000000 1.0
C      1  0.4627200000000  0.5182980000000  0.4414720000000 1.0
C      1  0.5356700000000  0.4681010000000  0.5699470000000 1.0
C      1  0.4644850000000  0.4904180000000  0.4387940000000 1.0
C      1  0.5217370000000  0.5703680000000  0.5455610000000 1.0
C      1  0.4750070000000  0.5635060000000  0.4508990000000 1.0
C      1  0.5040290000000  0.4379670000000  0.5556710000000 1.0
C      1  0.4837700000000  0.4486610000000  0.4415540000000 1.0
C      1  0.4882200000000  0.4873690000000  0.5635710000000 1.0
C      1  0.5118200000000  0.4882590000000  0.4380040000000 1.0
C      1  0.4858950000000  0.5190820000000  0.5613120000000 1.0
C      1  0.5157200000000  0.5188250000000  0.4393030000000 1.0
C      1  0.5391580000000  0.4700370000000  0.4335520000000 1.0
C      1  0.4586640000000  0.4739890000000  0.5740560000000 1.0
C      1  0.5438490000000  0.5248240000000  0.4364450000000 1.0
C      1  0.4575300000000  0.5266570000000  0.5644850000000 1.0
C      1  0.5388270000000  0.5246450000000  0.5068430000000 1.0
C      1  0.4599980000000  0.5226210000000  0.4929600000000 1.0
C      1  0.5384260000000  0.4789570000000  0.5183810000000 1.0
C      1  0.4675020000000  0.4832430000000  0.4879610000000 1.0
C      1  0.4522160000000  0.4746930000000  0.4617860000000 1.0
C      1  0.5523180000000  0.4665200000000  0.5443000000000 1.0
C      1  0.4448020000000  0.5281090000000  0.4649420000000 1.0
C      1  0.5541850000000  0.5332220000000  0.5337650000000 1.0
C      1  0.5093130000000  0.4626500000000  0.5675490000000 1.0
C      1  0.4859940000000  0.4749840000000  0.4309070000000 1.0
C      1  0.5070570000000  0.5450170000000  0.5578310000000 1.0
C      1  0.4871560000000  0.5367440000000  0.4394870000000 1.0
C      1  0.4840660000000  0.5698620000000  0.4890300000000 1.0
C      1  0.5110090000000  0.5696190000000  0.5073680000000 1.0
C      1  0.4936760000000  0.4376150000000  0.4941790000000 1.0
C      1  0.5147410000000  0.4348520000000  0.5229590000000 1.0
C      1  0.5686930000000  0.5368440000000  0.4831960000000 1.0
C      1  0.4303980000000  0.5349380000000  0.5168690000000 1.0
C      1  0.5771280000000  0.4272860000000  0.4876750000000 1.0
C      1  0.4254840000000  0.4335340000000  0.4919460000000 1.0
C      1  0.4227380000000  0.4848860000000  0.4618950000000 1.0
C      1  0.5758910000000  0.4874780000000  0.5448990000000 1.0
C      1  0.4192820000000  0.5101830000000  0.4628620000000 1.0
C      1  0.5757920000000  0.5120580000000  0.5405690000000 1.0
C      1  0.4992020000000  0.4855590000000  0.4875900000000 1.0
C      1  0.5086930000000  0.4837880000000  0.5176260000000 1.0
C      1  0.4901310000000  0.5161820000000  0.4865970000000 1.0
C      1  0.5095400000000  0.5147860000000  0.5126860000000 1.0
C      1  0.4705200000000  0.4474660000000  0.4710540000000 1.0
C      1  0.5448360000000  0.4402260000000  0.5240330000000 1.0
C      1  0.4544720000000  0.5585670000000  0.4766480000000 1.0
C      1  0.5415350000000  0.5619740000000  0.5207450000000 1.0
C      1  0.4937650000000  0.5852340000000  0.4601400000000 1.0
C      1  0.5090930000000  0.5940700000000  0.5309240000000 1.0
C      1  0.5076210000000  0.4303350000000  0.4434460000000 1.0
C      1  0.4779020000000  0.4226270000000  0.5498610000000 1.0
END
