TITL C-2622966-9038-278 -0.00124476387859219 125000 -1033.66197876919 0 0 199 (C1) n - 1
REM
REM in /nfs/bkarasulu/CARBON/AIRSS/Generating-Clusters/AIREBO/with-SteepDescent/Higher-Symm/SD-CG/HFTN-CG
REM
REM
REM
REM
REM
REM ./C.cell (b20cbc046b6831c77cfcea5457e17084)
REM
REM compiler GCC version 9.2.1 20190827 (Red Hat 9.2.1-1)
REM options -cpp -mtune=generic -march=x86-64 -g -O0 -fpre-include=/usr/include/finclude/math-vector-fortran.h
REM seed 382386872 -1521135839 -2072224852 1904679965 1298441159 441389262 2104208364 -670615082 -127252612 721796863 1786345309 2032766626 -1121315131 1279904629 -1338649935 -1980107580 1466511203 1187224662 -1828986421 -1431015034 1250956266 -1198939998 921110312 1310002305 -157254791 -1977982522 -1694492779 -1400862207 338986656 1423524075 -284330301 1603556343 754695641
REM
CELL 1.54180   50.00000   50.00000   50.00000   90.00000   90.00000   90.00000
LATT -1
SFAC C  
C      1  0.5542380000000  0.4638760000000  0.4463710000000 1.0
C      1  0.5517190000000  0.5334410000000  0.5449630000000 1.0
C      1  0.4979870000000  0.5639500000000  0.4463080000000 1.0
C      1  0.4407970000000  0.5303670000000  0.5559720000000 1.0
C      1  0.4345360000000  0.4540330000000  0.4463660000000 1.0
C      1  0.5002070000000  0.4330400000000  0.5562120000000 1.0
C      1  0.5358220000000  0.5649580000000  0.4749600000000 1.0
C      1  0.4549220000000  0.5685040000000  0.5260430000000 1.0
C      1  0.4251190000000  0.4888320000000  0.4756850000000 1.0
C      1  0.4618770000000  0.4286640000000  0.5256920000000 1.0
C      1  0.5372240000000  0.4373080000000  0.4707530000000 1.0
C      1  0.5793170000000  0.5014080000000  0.5278920000000 1.0
C      1  0.5468080000000  0.5929000000000  0.5086780000000 1.0
C      1  0.4455350000000  0.5977320000000  0.4863610000000 1.0
C      1  0.3944770000000  0.5039790000000  0.5076160000000 1.0
C      1  0.4375370000000  0.3995920000000  0.4867160000000 1.0
C      1  0.5511800000000  0.4116060000000  0.5097250000000 1.0
C      1  0.6076750000000  0.4947850000000  0.4887540000000 1.0
C      1  0.4555500000000  0.5855530000000  0.5696810000000 1.0
C      1  0.4014760000000  0.5047990000000  0.4393520000000 1.0
C      1  0.4426030000000  0.4203620000000  0.5674750000000 1.0
C      1  0.5346330000000  0.4130590000000  0.4325270000000 1.0
C      1  0.5934140000000  0.4949000000000  0.5708820000000 1.0
C      1  0.5557020000000  0.5788980000000  0.4353420000000 1.0
C      1  0.3950100000000  0.4567390000000  0.4600610000000 1.0
C      1  0.4850090000000  0.3968400000000  0.5478640000000 1.0
C      1  0.5790450000000  0.4329140000000  0.4505050000000 1.0
C      1  0.5991790000000  0.5389330000000  0.5441160000000 1.0
C      1  0.5140580000000  0.6005410000000  0.4530940000000 1.0
C      1  0.4133210000000  0.5680200000000  0.5433200000000 1.0
C      1  0.5217900000000  0.4628580000000  0.4348390000000 1.0
C      1  0.5276900000000  0.5145890000000  0.5599190000000 1.0
C      1  0.5139050000000  0.5353230000000  0.4371890000000 1.0
C      1  0.4697480000000  0.5150890000000  0.5549000000000 1.0
C      1  0.4586520000000  0.4999380000000  0.4428920000000 1.0
C      1  0.4951050000000  0.4667900000000  0.5576460000000 1.0
C      1  0.4615780000000  0.5151190000000  0.5108350000000 1.0
C      1  0.4753370000000  0.4745070000000  0.4906230000000 1.0
C      1  0.5103910000000  0.4542730000000  0.5074500000000 1.0
C      1  0.5356850000000  0.4939530000000  0.4888750000000 1.0
C      1  0.5274540000000  0.5332910000000  0.5103450000000 1.0
C      1  0.4934900000000  0.5274430000000  0.4901650000000 1.0
C      1  0.4633500000000  0.3853180000000  0.4908960000000 1.0
C      1  0.5927980000000  0.4261170000000  0.5135900000000 1.0
C      1  0.6220870000000  0.5255330000000  0.4904770000000 1.0
C      1  0.5268250000000  0.6204060000000  0.5081510000000 1.0
C      1  0.4148970000000  0.5825180000000  0.4814180000000 1.0
C      1  0.3800660000000  0.4767630000000  0.5210540000000 1.0
C      1  0.5297980000000  0.4623040000000  0.5783820000000 1.0
C      1  0.5567110000000  0.5094400000000  0.4168900000000 1.0
C      1  0.5165120000000  0.5471370000000  0.5802830000000 1.0
C      1  0.4766630000000  0.5424780000000  0.4196040000000 1.0
C      1  0.4515300000000  0.4895500000000  0.5823780000000 1.0
C      1  0.4796920000000  0.4545840000000  0.4194810000000 1.0
C      1  0.4715680000000  0.5283780000000  0.6128840000000 1.0
C      1  0.4604820000000  0.4917200000000  0.3904190000000 1.0
C      1  0.4873450000000  0.4596960000000  0.6104020000000 1.0
C      1  0.5340250000000  0.4719030000000  0.3863680000000 1.0
C      1  0.5452770000000  0.5144310000000  0.6124080000000 1.0
C      1  0.5183710000000  0.5456310000000  0.3894020000000 1.0
C      1  0.4910270000000  0.5417980000000  0.3887840000000 1.0
C      1  0.4623120000000  0.5013310000000  0.6124070000000 1.0
C      1  0.4761870000000  0.4646770000000  0.3872460000000 1.0
C      1  0.5155980000000  0.4612860000000  0.6093220000000 1.0
C      1  0.5479460000000  0.4963300000000  0.3857310000000 1.0
C      1  0.5276550000000  0.5360380000000  0.6111100000000 1.0
C      1  0.4759060000000  0.4519490000000  0.5814970000000 1.0
C      1  0.5427430000000  0.4572090000000  0.4086590000000 1.0
C      1  0.5541700000000  0.5076070000000  0.5803060000000 1.0
C      1  0.5271940000000  0.5584970000000  0.4161530000000 1.0
C      1  0.4620750000000  0.5486560000000  0.5951360000000 1.0
C      1  0.4442900000000  0.4912160000000  0.4133070000000 1.0
C      1  0.4742960000000  0.4164620000000  0.4990660000000 1.0
C      1  0.5656270000000  0.4404650000000  0.4989910000000 1.0
C      1  0.5834770000000  0.5175310000000  0.4963140000000 1.0
C      1  0.5155800000000  0.5832750000000  0.4988800000000 1.0
C      1  0.4398000000000  0.5662680000000  0.4979240000000 1.0
C      1  0.4163120000000  0.4780250000000  0.5042730000000 1.0
C      1  0.5091990000000  0.4312850000000  0.4319960000000 1.0
C      1  0.5656000000000  0.4783910000000  0.5713840000000 1.0
C      1  0.5553850000000  0.5467400000000  0.4310950000000 1.0
C      1  0.4821300000000  0.5665960000000  0.5742590000000 1.0
C      1  0.4304610000000  0.5188470000000  0.4397080000000 1.0
C      1  0.4458840000000  0.4512680000000  0.5723800000000 1.0
C      1  0.4739030000000  0.5974750000000  0.5003670000000 1.0
C      1  0.4048830000000  0.5288170000000  0.4942170000000 1.0
C      1  0.4285880000000  0.4186870000000  0.5063350000000 1.0
C      1  0.5293520000000  0.4058240000000  0.4939250000000 1.0
C      1  0.5963620000000  0.4685790000000  0.4999590000000 1.0
C      1  0.5687200000000  0.5789680000000  0.4921190000000 1.0
C      1  0.4117050000000  0.5340320000000  0.5441330000000 1.0
C      1  0.4182340000000  0.4319060000000  0.4596410000000 1.0
C      1  0.5173430000000  0.4075670000000  0.5439220000000 1.0
C      1  0.5875250000000  0.4659990000000  0.4529840000000 1.0
C      1  0.5721410000000  0.5594910000000  0.5405440000000 1.0
C      1  0.4809970000000  0.5921630000000  0.4547680000000 1.0
C      1  0.4973690000000  0.6058290000000  0.4810910000000 1.0
C      1  0.4152270000000  0.5497780000000  0.5146900000000 1.0
C      1  0.4085620000000  0.4491340000000  0.4880670000000 1.0
C      1  0.4974880000000  0.4000910000000  0.5177910000000 1.0
C      1  0.5921940000000  0.4457630000000  0.4784250000000 1.0
C      1  0.5889010000000  0.5459440000000  0.5142350000000 1.0
C      1  0.4648180000000  0.4682880000000  0.5223940000000 1.0
C      1  0.5020450000000  0.4603330000000  0.4750410000000 1.0
C      1  0.5431950000000  0.4859410000000  0.5210700000000 1.0
C      1  0.5409210000000  0.5263490000000  0.4798760000000 1.0
C      1  0.4895060000000  0.5422200000000  0.5206140000000 1.0
C      1  0.4611760000000  0.5246180000000  0.4799250000000 1.0
C      1  0.5250140000000  0.4297460000000  0.5869910000000 1.0
C      1  0.5810530000000  0.4862910000000  0.4166780000000 1.0
C      1  0.5479360000000  0.5465620000000  0.5725280000000 1.0
C      1  0.4782550000000  0.5759230000000  0.4136930000000 1.0
C      1  0.4296150000000  0.5141690000000  0.5907600000000 1.0
C      1  0.4486390000000  0.4443000000000  0.4184280000000 1.0
C      1  0.4302030000000  0.5206140000000  0.4730390000000 1.0
C      1  0.4373050000000  0.4482670000000  0.5207820000000 1.0
C      1  0.5081150000000  0.4269620000000  0.4778220000000 1.0
C      1  0.5741420000000  0.4717970000000  0.5222950000000 1.0
C      1  0.5653890000000  0.5499610000000  0.4814600000000 1.0
C      1  0.4842170000000  0.5757930000000  0.5222990000000 1.0
C      1  0.5959060000000  0.5389790000000  0.4734500000000 1.0
C      1  0.5073980000000  0.6000890000000  0.5272800000000 1.0
C      1  0.4146350000000  0.5506590000000  0.4695570000000 1.0
C      1  0.4073080000000  0.4590140000000  0.5305990000000 1.0
C      1  0.4857660000000  0.4024700000000  0.4702790000000 1.0
C      1  0.5827570000000  0.4432210000000  0.5348450000000 1.0
C      1  0.5033570000000  0.5146670000000  0.4602190000000 1.0
C      1  0.4827040000000  0.4962910000000  0.5296930000000 1.0
C      1  0.4847300000000  0.4862120000000  0.4600940000000 1.0
C      1  0.5112960000000  0.4778650000000  0.5300000000000 1.0
C      1  0.5241470000000  0.4882120000000  0.4573970000000 1.0
C      1  0.5089530000000  0.5175930000000  0.5334880000000 1.0
C      1  0.4909590000000  0.4397160000000  0.5269260000000 1.0
C      1  0.5529380000000  0.4659100000000  0.4802940000000 1.0
C      1  0.5564380000000  0.5229510000000  0.5162150000000 1.0
C      1  0.5027600000000  0.5583960000000  0.4795230000000 1.0
C      1  0.4514240000000  0.5383070000000  0.5281950000000 1.0
C      1  0.4491010000000  0.4708400000000  0.4692800000000 1.0
C      1  0.4464730000000  0.5484580000000  0.4071080000000 1.0
C      1  0.4303690000000  0.4720610000000  0.6024640000000 1.0
C      1  0.4757480000000  0.4311710000000  0.3951370000000 1.0
C      1  0.5519820000000  0.4568790000000  0.6035840000000 1.0
C      1  0.5752280000000  0.5322410000000  0.3997450000000 1.0
C      1  0.5116860000000  0.5745750000000  0.5997940000000 1.0
C      1  0.5321040000000  0.4889650000000  0.6079210000000 1.0
C      1  0.5328740000000  0.5216740000000  0.3872910000000 1.0
C      1  0.5000970000000  0.5289620000000  0.6116710000000 1.0
C      1  0.4755360000000  0.5166710000000  0.3891660000000 1.0
C      1  0.4727420000000  0.4778610000000  0.6251790000000 1.0
C      1  0.5056320000000  0.4743940000000  0.3893320000000 1.0
C      1  0.5552370000000  0.5183030000000  0.4498000000000 1.0
C      1  0.5022480000000  0.5535850000000  0.5500730000000 1.0
C      1  0.4722910000000  0.5428310000000  0.4533790000000 1.0
C      1  0.4483600000000  0.4774000000000  0.5507400000000 1.0
C      1  0.4842190000000  0.4454740000000  0.4501830000000 1.0
C      1  0.5446090000000  0.4650450000000  0.5478750000000 1.0
C      1  0.5861530000000  0.5340590000000  0.4278670000000 1.0
C      1  0.5102760000000  0.5857750000000  0.5722040000000 1.0
C      1  0.4295590000000  0.5466660000000  0.4279700000000 1.0
C      1  0.4175280000000  0.4700290000000  0.5749370000000 1.0
C      1  0.4800510000000  0.4152800000000  0.4244410000000 1.0
C      1  0.5654960000000  0.4448460000000  0.5769260000000 1.0
C      1  0.4597570000000  0.4099240000000  0.5491160000000 1.0
C      1  0.5527850000000  0.4230550000000  0.4520410000000 1.0
C      1  0.5957830000000  0.5117300000000  0.5496550000000 1.0
C      1  0.5386980000000  0.5871670000000  0.4553100000000 1.0
C      1  0.4392020000000  0.5805350000000  0.5485780000000 1.0
C      1  0.4010860000000  0.4839090000000  0.4569160000000 1.0
C      1  0.4955630000000  0.4250280000000  0.5881950000000 1.0
C      1  0.5706360000000  0.4606300000000  0.4173050000000 1.0
C      1  0.5689460000000  0.5364180000000  0.5907200000000 1.0
C      1  0.5063060000000  0.5820850000000  0.4185970000000 1.0
C      1  0.4382580000000  0.5404810000000  0.5844620000000 1.0
C      1  0.4296020000000  0.4680580000000  0.4163320000000 1.0
C      1  0.5229240000000  0.5616810000000  0.5241010000000 1.0
C      1  0.4687530000000  0.5632890000000  0.4803150000000 1.0
C      1  0.4374270000000  0.4954040000000  0.5239070000000 1.0
C      1  0.4668130000000  0.4434230000000  0.4797420000000 1.0
C      1  0.5391320000000  0.4479520000000  0.5189620000000 1.0
C      1  0.5665500000000  0.4972020000000  0.4749230000000 1.0
C      1  0.4368480000000  0.4076310000000  0.4588110000000 1.0
C      1  0.5472640000000  0.4117610000000  0.5388700000000 1.0
C      1  0.6022460000000  0.4936510000000  0.4563710000000 1.0
C      1  0.5519050000000  0.5843760000000  0.5388740000000 1.0
C      1  0.4489860000000  0.5871710000000  0.4550760000000 1.0
C      1  0.3989040000000  0.5059220000000  0.5409120000000 1.0
C      1  0.5674440000000  0.4287390000000  0.5543550000000 1.0
C      1  0.5980870000000  0.5219040000000  0.4485410000000 1.0
C      1  0.5249510000000  0.5916580000000  0.5505060000000 1.0
C      1  0.4283170000000  0.5690110000000  0.4465510000000 1.0
C      1  0.4056220000000  0.4803820000000  0.5529110000000 1.0
C      1  0.4654320000000  0.4065420000000  0.4470220000000 1.0
C      1  0.4808790000000  0.5084860000000  0.4204570000000 1.0
C      1  0.4854380000000  0.4905290000000  0.5800090000000 1.0
C      1  0.5052840000000  0.4873720000000  0.4180090000000 1.0
C      1  0.5172400000000  0.4923370000000  0.5788100000000 1.0
C      1  0.5228790000000  0.5127260000000  0.4177900000000 1.0
C      1  0.4921790000000  0.5234080000000  0.5790720000000 1.0
C      1  0.5022160000000  0.4949250000000  0.4949450000000 1.0
END
