TITL C-2622964-2985-288 0.000903044771799823 125000 -561.193781141394 0 0 108 (C1) n - 1
REM
REM in /nfs/bkarasulu/CARBON/AIRSS/Generating-Clusters/AIREBO/with-SteepDescent/Higher-Symm/SD-CG/HFTN-CG
REM
REM
REM
REM
REM
REM ./C.cell (b20cbc046b6831c77cfcea5457e17084)
REM
REM compiler GCC version 9.2.1 20190827 (Red Hat 9.2.1-1)
REM options -cpp -mtune=generic -march=x86-64 -g -O0 -fpre-include=/usr/include/finclude/math-vector-fortran.h
REM seed 666871081 -955959858 1862915788 1686054734 1185152651 199068640 1671289529 1877877949 1490993099 202141783 493616143 -1675146733 -717593625 -231263243 654204166 -476886297 -143714154 1275450351 -1463786947 2005352543 770951843 1614165328 720848379 -1492795378 913438694 -1275827632 -2023200190 1206397585 -1309296545 -882562336 -1972599939 -153264728 602006699
REM
CELL 1.54180   50.00000   50.00000   50.00000   90.00000   90.00000   90.00000
LATT -1
SFAC C  
C      1  0.5155270000000  0.4415980000000  0.4822390000000 1.0
C      1  0.4358710000000  0.5733820000000  0.4682620000000 1.0
C      1  0.4172250000000  0.5251330000000  0.4991470000000 1.0
C      1  0.5732490000000  0.4977280000000  0.4469800000000 1.0
C      1  0.4597250000000  0.5858780000000  0.5282800000000 1.0
C      1  0.4737970000000  0.4320300000000  0.4903940000000 1.0
C      1  0.4178540000000  0.4774470000000  0.5120630000000 1.0
C      1  0.4328010000000  0.4771100000000  0.5614970000000 1.0
C      1  0.5468210000000  0.4827740000000  0.4966480000000 1.0
C      1  0.5406500000000  0.4626910000000  0.5452730000000 1.0
C      1  0.5242790000000  0.5219210000000  0.5013110000000 1.0
C      1  0.5189610000000  0.4348560000000  0.4297400000000 1.0
C      1  0.5321360000000  0.5807420000000  0.4747380000000 1.0
C      1  0.5722310000000  0.4687990000000  0.4804240000000 1.0
C      1  0.4898720000000  0.5526310000000  0.5619940000000 1.0
C      1  0.5107510000000  0.4394630000000  0.5323940000000 1.0
C      1  0.5462600000000  0.4301300000000  0.4884820000000 1.0
C      1  0.4852860000000  0.4886440000000  0.5155900000000 1.0
C      1  0.5828820000000  0.5324770000000  0.4905150000000 1.0
C      1  0.4406530000000  0.5189210000000  0.4332960000000 1.0
C      1  0.4789820000000  0.4298690000000  0.4509930000000 1.0
C      1  0.4594790000000  0.5469140000000  0.4288970000000 1.0
C      1  0.4232030000000  0.5440790000000  0.4799660000000 1.0
C      1  0.5416430000000  0.5677360000000  0.4991780000000 1.0
C      1  0.4817830000000  0.5214260000000  0.5540150000000 1.0
C      1  0.5432710000000  0.4380730000000  0.5225290000000 1.0
C      1  0.5661910000000  0.4854320000000  0.5491190000000 1.0
C      1  0.5028340000000  0.5691500000000  0.4875280000000 1.0
C      1  0.5147710000000  0.4615590000000  0.5076560000000 1.0
C      1  0.5639920000000  0.4428410000000  0.4623960000000 1.0
C      1  0.5263450000000  0.4756870000000  0.4509540000000 1.0
C      1  0.5060340000000  0.4998910000000  0.5587380000000 1.0
C      1  0.5459210000000  0.4796550000000  0.5742680000000 1.0
C      1  0.5480190000000  0.5282700000000  0.5880500000000 1.0
C      1  0.4532790000000  0.4617760000000  0.5308970000000 1.0
C      1  0.5264220000000  0.5025060000000  0.4121750000000 1.0
C      1  0.5150620000000  0.5625660000000  0.5191540000000 1.0
C      1  0.5010000000000  0.4847530000000  0.4169000000000 1.0
C      1  0.4314590000000  0.4750000000000  0.4823460000000 1.0
C      1  0.4090530000000  0.4992030000000  0.4909550000000 1.0
C      1  0.4435070000000  0.5605290000000  0.5239710000000 1.0
C      1  0.4689810000000  0.5073890000000  0.4943850000000 1.0
C      1  0.4842820000000  0.5792660000000  0.4608790000000 1.0
C      1  0.5196970000000  0.4834750000000  0.4820950000000 1.0
C      1  0.4485030000000  0.4122450000000  0.5129630000000 1.0
C      1  0.5302030000000  0.5068180000000  0.4517560000000 1.0
C      1  0.4613370000000  0.5352210000000  0.5099060000000 1.0
C      1  0.5597020000000  0.5461570000000  0.4532760000000 1.0
C      1  0.5487130000000  0.5727600000000  0.4528670000000 1.0
C      1  0.4865970000000  0.4628210000000  0.5376100000000 1.0
C      1  0.4651990000000  0.4669150000000  0.5951080000000 1.0
C      1  0.4613170000000  0.5547810000000  0.4838120000000 1.0
C      1  0.4215500000000  0.4753630000000  0.4267790000000 1.0
C      1  0.4623410000000  0.5104720000000  0.5792440000000 1.0
C      1  0.5430020000000  0.5106990000000  0.5692530000000 1.0
C      1  0.4513270000000  0.4496300000000  0.4719130000000 1.0
C      1  0.5154720000000  0.5930410000000  0.5342360000000 1.0
C      1  0.4953320000000  0.4561820000000  0.4254500000000 1.0
C      1  0.4982030000000  0.4134990000000  0.5322810000000 1.0
C      1  0.4856630000000  0.5357950000000  0.4210000000000 1.0
C      1  0.5292930000000  0.4548910000000  0.5872540000000 1.0
C      1  0.5057510000000  0.5380260000000  0.4804970000000 1.0
C      1  0.5021050000000  0.3912220000000  0.4874420000000 1.0
C      1  0.4374280000000  0.5462070000000  0.5512680000000 1.0
C      1  0.4470130000000  0.4449280000000  0.5058640000000 1.0
C      1  0.5528930000000  0.5082980000000  0.5103890000000 1.0
C      1  0.5513180000000  0.4927600000000  0.4210740000000 1.0
C      1  0.5173820000000  0.5718800000000  0.5578780000000 1.0
C      1  0.5682260000000  0.5372220000000  0.5499900000000 1.0
C      1  0.4645160000000  0.4578520000000  0.4416580000000 1.0
C      1  0.4815920000000  0.4767070000000  0.4721930000000 1.0
C      1  0.5292880000000  0.4380260000000  0.6063180000000 1.0
C      1  0.4478010000000  0.4867550000000  0.4351990000000 1.0
C      1  0.4700380000000  0.4922950000000  0.4100810000000 1.0
C      1  0.5638410000000  0.4583810000000  0.5105730000000 1.0
C      1  0.4814740000000  0.4053350000000  0.5067840000000 1.0
C      1  0.5075590000000  0.5069850000000  0.5266430000000 1.0
C      1  0.5374040000000  0.5493650000000  0.5421130000000 1.0
C      1  0.5766690000000  0.5110860000000  0.5421970000000 1.0
C      1  0.5178650000000  0.5294770000000  0.4161740000000 1.0
C      1  0.4962030000000  0.5062860000000  0.4728780000000 1.0
C      1  0.4542170000000  0.4913110000000  0.4682880000000 1.0
C      1  0.4360820000000  0.4910960000000  0.5338160000000 1.0
C      1  0.4839370000000  0.4604970000000  0.4978560000000 1.0
C      1  0.4477030000000  0.4862710000000  0.5826640000000 1.0
C      1  0.4927350000000  0.5083360000000  0.4388410000000 1.0
C      1  0.5430300000000  0.5257920000000  0.4732120000000 1.0
C      1  0.5104080000000  0.4667580000000  0.5615820000000 1.0
C      1  0.4343370000000  0.4483160000000  0.5557260000000 1.0
C      1  0.4879550000000  0.5441040000000  0.5291280000000 1.0
C      1  0.5005000000000  0.4550230000000  0.4587980000000 1.0
C      1  0.4473300000000  0.5369830000000  0.4590470000000 1.0
C      1  0.5562730000000  0.4684280000000  0.4438650000000 1.0
C      1  0.5580730000000  0.5466960000000  0.4931120000000 1.0
C      1  0.4603330000000  0.5732170000000  0.4485770000000 1.0
C      1  0.5780050000000  0.5295810000000  0.4407920000000 1.0
C      1  0.4743330000000  0.5768420000000  0.5044060000000 1.0
C      1  0.4919540000000  0.5059080000000  0.5890950000000 1.0
C      1  0.5868000000000  0.5093570000000  0.5127290000000 1.0
C      1  0.4876380000000  0.5832220000000  0.5762880000000 1.0
C      1  0.5221730000000  0.4087490000000  0.4774910000000 1.0
C      1  0.4920280000000  0.4746920000000  0.5891680000000 1.0
C      1  0.5826280000000  0.5002840000000  0.4795710000000 1.0
C      1  0.5362750000000  0.5166620000000  0.5388940000000 1.0
C      1  0.4349290000000  0.5217940000000  0.5277180000000 1.0
C      1  0.4609310000000  0.5701010000000  0.5583280000000 1.0
C      1  0.5121480000000  0.5342260000000  0.4493520000000 1.0
C      1  0.5350860000000  0.4279720000000  0.4524210000000 1.0
END
