TITL C-2622965-4321-402 -0.000261184391527332 125000 -618.995680979745 0 0 114 (C1) n - 1
REM
REM in /nfs/bkarasulu/CARBON/AIRSS/Generating-Clusters/AIREBO/with-SteepDescent/Higher-Symm/SD-CG/HFTN-CG
REM
REM
REM
REM
REM
REM ./C.cell (b20cbc046b6831c77cfcea5457e17084)
REM
REM compiler GCC version 9.2.1 20190827 (Red Hat 9.2.1-1)
REM options -cpp -mtune=generic -march=x86-64 -g -O0 -fpre-include=/usr/include/finclude/math-vector-fortran.h
REM seed 1677250551 -790664221 -1005994883 1643578009 -564791959 -1381285115 -1343895061 1218914475 234901140 1183298654 1481088672 2017449419 -1122373425 1783270117 1161605972 -786855968 -182600205 -1860444022 729843437 -1618729733 1190810080 -613615968 -212908321 -1489124103 -2115087990 173512677 -991158940 -1181410851 -2014129743 1117858427 -912539764 667750571 -1637828316
REM
CELL 1.54180   50.00000   50.00000   50.00000   90.00000   90.00000   90.00000
LATT -1
SFAC C  
C      1  0.5127880000000  0.4348040000000  0.5289130000000 1.0
C      1  0.4856070000000  0.5650720000000  0.5219560000000 1.0
C      1  0.4878970000000  0.4417500000000  0.5088530000000 1.0
C      1  0.5131510000000  0.5744850000000  0.5280890000000 1.0
C      1  0.5649210000000  0.4666010000000  0.5125840000000 1.0
C      1  0.4330990000000  0.5308190000000  0.5105610000000 1.0
C      1  0.4240630000000  0.4714400000000  0.5283960000000 1.0
C      1  0.5829960000000  0.5307550000000  0.5104750000000 1.0
C      1  0.4454440000000  0.4807560000000  0.4740870000000 1.0
C      1  0.5502880000000  0.5185120000000  0.4635560000000 1.0
C      1  0.5581340000000  0.4861080000000  0.4583520000000 1.0
C      1  0.4494460000000  0.5150010000000  0.4617840000000 1.0
C      1  0.5368830000000  0.5970110000000  0.5221480000000 1.0
C      1  0.4811760000000  0.4116730000000  0.5232980000000 1.0
C      1  0.4659610000000  0.5879820000000  0.5331720000000 1.0
C      1  0.5144530000000  0.4022540000000  0.5231120000000 1.0
C      1  0.5482190000000  0.4893850000000  0.5872480000000 1.0
C      1  0.4516270000000  0.5132810000000  0.5824110000000 1.0
C      1  0.4471400000000  0.4807270000000  0.5815930000000 1.0
C      1  0.5399360000000  0.5195120000000  0.5883980000000 1.0
C      1  0.4967030000000  0.4835350000000  0.5174290000000 1.0
C      1  0.5120650000000  0.5246460000000  0.5257470000000 1.0
C      1  0.5299160000000  0.4842060000000  0.5205890000000 1.0
C      1  0.4812770000000  0.5136960000000  0.5203280000000 1.0
C      1  0.5762360000000  0.4769480000000  0.4845270000000 1.0
C      1  0.4252090000000  0.5128840000000  0.4853400000000 1.0
C      1  0.4193750000000  0.4810830000000  0.4959160000000 1.0
C      1  0.5762110000000  0.5109730000000  0.4836640000000 1.0
C      1  0.5216050000000  0.5153460000000  0.4271460000000 1.0
C      1  0.4812210000000  0.4820270000000  0.4301690000000 1.0
C      1  0.4784130000000  0.5105870000000  0.4255210000000 1.0
C      1  0.5245740000000  0.4869310000000  0.4200090000000 1.0
C      1  0.5177570000000  0.4131640000000  0.5551530000000 1.0
C      1  0.4692120000000  0.5872900000000  0.5606900000000 1.0
C      1  0.4742220000000  0.4208340000000  0.5552950000000 1.0
C      1  0.5299610000000  0.5908370000000  0.5533220000000 1.0
C      1  0.4569870000000  0.4351980000000  0.4534310000000 1.0
C      1  0.5376970000000  0.5590250000000  0.4609210000000 1.0
C      1  0.5351640000000  0.4384340000000  0.4548690000000 1.0
C      1  0.4520710000000  0.5659090000000  0.4498170000000 1.0
C      1  0.4735510000000  0.5435990000000  0.5454530000000 1.0
C      1  0.5321030000000  0.4495540000000  0.5494080000000 1.0
C      1  0.5285180000000  0.5482770000000  0.5369850000000 1.0
C      1  0.4718930000000  0.4484730000000  0.5358520000000 1.0
C      1  0.5598730000000  0.4898210000000  0.5328020000000 1.0
C      1  0.4484820000000  0.5130850000000  0.5293310000000 1.0
C      1  0.4528980000000  0.4847070000000  0.5170890000000 1.0
C      1  0.5709890000000  0.5191090000000  0.5386140000000 1.0
C      1  0.5536410000000  0.5917510000000  0.4988730000000 1.0
C      1  0.4536080000000  0.4212140000000  0.5078680000000 1.0
C      1  0.4460210000000  0.5789170000000  0.5113700000000 1.0
C      1  0.5409960000000  0.4166780000000  0.5071450000000 1.0
C      1  0.4154920000000  0.4542010000000  0.4814350000000 1.0
C      1  0.5841090000000  0.5440170000000  0.4802050000000 1.0
C      1  0.5772500000000  0.4431590000000  0.4808280000000 1.0
C      1  0.4213840000000  0.5452050000000  0.4754830000000 1.0
C      1  0.5242650000000  0.4862540000000  0.4543970000000 1.0
C      1  0.4829360000000  0.5132150000000  0.4575180000000 1.0
C      1  0.4946350000000  0.4751860000000  0.4537750000000 1.0
C      1  0.5164120000000  0.5183290000000  0.4606170000000 1.0
C      1  0.4498710000000  0.4545590000000  0.5032620000000 1.0
C      1  0.5413780000000  0.5603110000000  0.5006430000000 1.0
C      1  0.5390300000000  0.4496700000000  0.5029190000000 1.0
C      1  0.4529010000000  0.5471880000000  0.4880890000000 1.0
C      1  0.5225420000000  0.5423220000000  0.4153590000000 1.0
C      1  0.4765020000000  0.4571810000000  0.4138080000000 1.0
C      1  0.4745580000000  0.5382640000000  0.4206070000000 1.0
C      1  0.5263150000000  0.4588980000000  0.4111650000000 1.0
C      1  0.4387740000000  0.4416500000000  0.5322730000000 1.0
C      1  0.5555330000000  0.5440030000000  0.5237190000000 1.0
C      1  0.5545590000000  0.4385150000000  0.5295410000000 1.0
C      1  0.4478550000000  0.5530020000000  0.5272490000000 1.0
C      1  0.4860670000000  0.5611380000000  0.5709630000000 1.0
C      1  0.5144970000000  0.4394520000000  0.5766860000000 1.0
C      1  0.5177180000000  0.5625380000000  0.5659140000000 1.0
C      1  0.4834610000000  0.4399370000000  0.5767830000000 1.0
C      1  0.4836480000000  0.5507670000000  0.4948680000000 1.0
C      1  0.5231810000000  0.4551510000000  0.4792030000000 1.0
C      1  0.5148970000000  0.5500990000000  0.4845870000000 1.0
C      1  0.4906330000000  0.4564220000000  0.4815980000000 1.0
C      1  0.5268520000000  0.4868200000000  0.4883030000000 1.0
C      1  0.4793790000000  0.5176930000000  0.4880660000000 1.0
C      1  0.4741290000000  0.4842840000000  0.4920100000000 1.0
C      1  0.5187580000000  0.5186190000000  0.4946260000000 1.0
C      1  0.4410070000000  0.4340490000000  0.4784710000000 1.0
C      1  0.5641990000000  0.5671420000000  0.4777680000000 1.0
C      1  0.5555260000000  0.4244680000000  0.4770850000000 1.0
C      1  0.4375210000000  0.5752670000000  0.4786510000000 1.0
C      1  0.5681500000000  0.4834420000000  0.4280600000000 1.0
C      1  0.4342460000000  0.5127440000000  0.4334840000000 1.0
C      1  0.4404480000000  0.4807720000000  0.4432630000000 1.0
C      1  0.5646010000000  0.5168110000000  0.4336400000000 1.0
C      1  0.4228080000000  0.4825050000000  0.5577520000000 1.0
C      1  0.5660030000000  0.5210970000000  0.5711480000000 1.0
C      1  0.5702480000000  0.4890500000000  0.5645810000000 1.0
C      1  0.4360850000000  0.5095540000000  0.5567770000000 1.0
C      1  0.4768000000000  0.5772600000000  0.4435410000000 1.0
C      1  0.5062350000000  0.4303080000000  0.4421310000000 1.0
C      1  0.5092160000000  0.5757410000000  0.4540410000000 1.0
C      1  0.4844180000000  0.4333140000000  0.4593930000000 1.0
C      1  0.5494050000000  0.4576900000000  0.4311660000000 1.0
C      1  0.4484770000000  0.5430170000000  0.4333330000000 1.0
C      1  0.4516820000000  0.4553250000000  0.4331370000000 1.0
C      1  0.5477880000000  0.5445120000000  0.4334550000000 1.0
C      1  0.5177770000000  0.4803510000000  0.5521160000000 1.0
C      1  0.4796000000000  0.5111690000000  0.5541950000000 1.0
C      1  0.4840810000000  0.4776260000000  0.5484670000000 1.0
C      1  0.5195210000000  0.5124720000000  0.5542120000000 1.0
C      1  0.5126440000000  0.5320290000000  0.5776780000000 1.0
C      1  0.4705770000000  0.4657950000000  0.5759810000000 1.0
C      1  0.4790270000000  0.5299470000000  0.5825340000000 1.0
C      1  0.5276670000000  0.4701570000000  0.5830080000000 1.0
C      1  0.5027500000000  0.4429700000000  0.4167220000000 1.0
C      1  0.5002940000000  0.5586980000000  0.4279530000000 1.0
END
