TITL C-2622961-1971-173 -0.000971585931739903 125000 -313.678300761576 0 0 63 (C1) n - 1
REM
REM in /nfs/bkarasulu/CARBON/AIRSS/Generating-Clusters/AIREBO/with-SteepDescent/Higher-Symm/SD-CG/HFTN-CG
REM
REM
REM
REM
REM
REM ./C.cell (b20cbc046b6831c77cfcea5457e17084)
REM
REM compiler GCC version 9.2.1 20190827 (Red Hat 9.2.1-1)
REM options -cpp -mtune=generic -march=x86-64 -g -O0 -fpre-include=/usr/include/finclude/math-vector-fortran.h
REM seed -614663517 1048701405 1227475750 188917446 225309962 -1047616728 -19980961 1328256959 119328022 -798665205 -532441969 -35629414 -154411568 -163116539 -1812973270 -200967252 -1709486836 -321423423 219427155 1876401515 1620522888 848835088 315178586 -288665994 -468676204 772986901 973031188 -890776610 -292135104 -781937608 -938233531 1500615817 -1339686440
REM
CELL 1.54180   50.00000   50.00000   50.00000   90.00000   90.00000   90.00000
LATT -1
SFAC C  
C      1  0.5129070000000  0.5192790000000  0.5669500000000 1.0
C      1  0.5132750000000  0.4295770000000  0.4824540000000 1.0
C      1  0.5156820000000  0.5436030000000  0.4541590000000 1.0
C      1  0.5528970000000  0.4574700000000  0.5254680000000 1.0
C      1  0.5498040000000  0.4988760000000  0.4488520000000 1.0
C      1  0.5537970000000  0.5475340000000  0.5226700000000 1.0
C      1  0.4815560000000  0.5483860000000  0.5362490000000 1.0
C      1  0.4829740000000  0.4456590000000  0.5293260000000 1.0
C      1  0.4812890000000  0.4982160000000  0.4369310000000 1.0
C      1  0.4365310000000  0.4897030000000  0.4612100000000 1.0
C      1  0.4389110000000  0.5372840000000  0.5088620000000 1.0
C      1  0.4366480000000  0.4734510000000  0.5243920000000 1.0
C      1  0.4923780000000  0.4503960000000  0.4993660000000 1.0
C      1  0.4915970000000  0.5200440000000  0.4579310000000 1.0
C      1  0.4958150000000  0.5206760000000  0.5392950000000 1.0
C      1  0.5289350000000  0.4757980000000  0.4616320000000 1.0
C      1  0.5249140000000  0.5506590000000  0.5091450000000 1.0
C      1  0.5320960000000  0.4812330000000  0.5380700000000 1.0
C      1  0.4580210000000  0.5483750000000  0.4829780000000 1.0
C      1  0.4576080000000  0.4885530000000  0.5465040000000 1.0
C      1  0.4610270000000  0.4622780000000  0.4611760000000 1.0
C      1  0.5668850000000  0.5244850000000  0.5038710000000 1.0
C      1  0.5606970000000  0.4855540000000  0.5104580000000 1.0
C      1  0.5612700000000  0.4939760000000  0.4787050000000 1.0
C      1  0.5287210000000  0.4919080000000  0.5680980000000 1.0
C      1  0.5261940000000  0.4427470000000  0.4571910000000 1.0
C      1  0.5196360000000  0.5617610000000  0.4777590000000 1.0
C      1  0.5423110000000  0.5312320000000  0.4472180000000 1.0
C      1  0.5333310000000  0.5326290000000  0.5456880000000 1.0
C      1  0.5325470000000  0.4422200000000  0.5030260000000 1.0
C      1  0.5554050000000  0.5273970000000  0.4762170000000 1.0
C      1  0.5514300000000  0.5084920000000  0.5299870000000 1.0
C      1  0.5497420000000  0.4637490000000  0.4862780000000 1.0
C      1  0.4989470000000  0.5660950000000  0.5246120000000 1.0
C      1  0.5117590000000  0.4551290000000  0.5459110000000 1.0
C      1  0.5062370000000  0.4743590000000  0.4361390000000 1.0
C      1  0.4572760000000  0.4412950000000  0.4829910000000 1.0
C      1  0.4575210000000  0.5405420000000  0.4549060000000 1.0
C      1  0.4586780000000  0.5192390000000  0.5583580000000 1.0
C      1  0.5592720000000  0.5152410000000  0.4224220000000 1.0
C      1  0.5533790000000  0.5571210000000  0.5552880000000 1.0
C      1  0.5519680000000  0.4254750000000  0.5241960000000 1.0
C      1  0.4752830000000  0.5124990000000  0.4868070000000 1.0
C      1  0.4713890000000  0.5138860000000  0.5190220000000 1.0
C      1  0.4756640000000  0.4788020000000  0.4944900000000 1.0
C      1  0.4954870000000  0.4647870000000  0.5741590000000 1.0
C      1  0.4779990000000  0.4582520000000  0.4341930000000 1.0
C      1  0.4972300000000  0.5755480000000  0.4950860000000 1.0
C      1  0.4875300000000  0.5434850000000  0.4936770000000 1.0
C      1  0.4855890000000  0.4766590000000  0.5430540000000 1.0
C      1  0.4894140000000  0.4807910000000  0.4649830000000 1.0
C      1  0.4445050000000  0.4819430000000  0.4935220000000 1.0
C      1  0.4413090000000  0.5128360000000  0.4852730000000 1.0
C      1  0.4404490000000  0.5073710000000  0.5248010000000 1.0
C      1  0.5128520000000  0.4913400000000  0.4872470000000 1.0
C      1  0.5108570000000  0.5217590000000  0.5023150000000 1.0
C      1  0.5055600000000  0.4937740000000  0.5209020000000 1.0
C      1  0.4538120000000  0.5127160000000  0.4473630000000 1.0
C      1  0.4528790000000  0.5424560000000  0.5394330000000 1.0
C      1  0.4543710000000  0.4477930000000  0.5112190000000 1.0
C      1  0.4844160000000  0.5498110000000  0.4423300000000 1.0
C      1  0.4803120000000  0.5230480000000  0.5759260000000 1.0
C      1  0.4812250000000  0.4227460000000  0.4812630000000 1.0
END
