TITL C-2622959-7779-170 -0.00027820019643249 125000 -369.267866228325 0 0 68 (C1) n - 1
REM
REM in /nfs/bkarasulu/CARBON/AIRSS/Generating-Clusters/AIREBO/with-SteepDescent/Higher-Symm/SD-CG/HFTN-CG
REM
REM
REM
REM
REM
REM ./C.cell (b20cbc046b6831c77cfcea5457e17084)
REM
REM compiler GCC version 9.2.1 20190827 (Red Hat 9.2.1-1)
REM options -cpp -mtune=generic -march=x86-64 -g -O0 -fpre-include=/usr/include/finclude/math-vector-fortran.h
REM seed -929167166 -1899837225 -832596719 -527550439 1267870865 -942491088 -1600092746 -1809395003 33545538 -462177883 -2143024175 -851691783 1144065617 -1937450275 533412458 -2147293627 622531222 -1200362093 -2087007025 233901147 1612092867 -442056871 -645044299 407647278 -1594017820 859997838 1092406821 1062355263 -1731425918 705500523 -1106258726 -458506679 1064365700
REM
CELL 1.54180   50.00000   50.00000   50.00000   90.00000   90.00000   90.00000
LATT -1
SFAC C  
C      1  0.5194060000000  0.4849180000000  0.4550950000000 1.0
C      1  0.4809640000000  0.4928280000000  0.4620220000000 1.0
C      1  0.5059260000000  0.5223540000000  0.4553440000000 1.0
C      1  0.5182060000000  0.5134960000000  0.5431410000000 1.0
C      1  0.4786100000000  0.5084290000000  0.5424940000000 1.0
C      1  0.5030980000000  0.4769330000000  0.5402560000000 1.0
C      1  0.5173940000000  0.4392850000000  0.4939660000000 1.0
C      1  0.4418650000000  0.5263570000000  0.4859460000000 1.0
C      1  0.5505820000000  0.5383490000000  0.4877880000000 1.0
C      1  0.5097680000000  0.5655090000000  0.5109940000000 1.0
C      1  0.4425340000000  0.4759350000000  0.5094490000000 1.0
C      1  0.5428020000000  0.4599380000000  0.5041770000000 1.0
C      1  0.4810750000000  0.4469270000000  0.5592730000000 1.0
C      1  0.4636360000000  0.5428700000000  0.5560650000000 1.0
C      1  0.5553110000000  0.5096630000000  0.5569010000000 1.0
C      1  0.4856570000000  0.5524370000000  0.4401070000000 1.0
C      1  0.4618850000000  0.4581760000000  0.4389820000000 1.0
C      1  0.5543510000000  0.4911000000000  0.4370000000000 1.0
C      1  0.5212730000000  0.4463640000000  0.4453350000000 1.0
C      1  0.4470300000000  0.5038660000000  0.4433060000000 1.0
C      1  0.5382380000000  0.5599490000000  0.4438930000000 1.0
C      1  0.5215140000000  0.5525600000000  0.5553670000000 1.0
C      1  0.4441950000000  0.4913960000000  0.5536370000000 1.0
C      1  0.5344480000000  0.4527510000000  0.5545530000000 1.0
C      1  0.4349150000000  0.5026800000000  0.4690890000000 1.0
C      1  0.5379960000000  0.5598880000000  0.4724320000000 1.0
C      1  0.5359400000000  0.4421850000000  0.4690580000000 1.0
C      1  0.4347900000000  0.4965650000000  0.5270960000000 1.0
C      1  0.5337690000000  0.4401980000000  0.5299660000000 1.0
C      1  0.5306380000000  0.5588170000000  0.5289730000000 1.0
C      1  0.5060010000000  0.4275020000000  0.5219690000000 1.0
C      1  0.4384130000000  0.5251780000000  0.5151590000000 1.0
C      1  0.5519960000000  0.5414570000000  0.5165700000000 1.0
C      1  0.5124320000000  0.5693330000000  0.4830830000000 1.0
C      1  0.4392100000000  0.4753870000000  0.4816270000000 1.0
C      1  0.5596200000000  0.4614560000000  0.4758890000000 1.0
C      1  0.5212240000000  0.4912800000000  0.4840860000000 1.0
C      1  0.4764240000000  0.4895670000000  0.4932410000000 1.0
C      1  0.4966930000000  0.5262520000000  0.4880030000000 1.0
C      1  0.5193790000000  0.5122520000000  0.5091690000000 1.0
C      1  0.4798930000000  0.5136170000000  0.5147290000000 1.0
C      1  0.5021430000000  0.4738240000000  0.5062160000000 1.0
C      1  0.5491920000000  0.5103710000000  0.4805890000000 1.0
C      1  0.4900250000000  0.4538630000000  0.4814650000000 1.0
C      1  0.4668390000000  0.5398150000000  0.4789000000000 1.0
C      1  0.5454440000000  0.4911710000000  0.5149690000000 1.0
C      1  0.4861730000000  0.5470400000000  0.5127890000000 1.0
C      1  0.4708880000000  0.4634780000000  0.5147700000000 1.0
C      1  0.5252440000000  0.5079730000000  0.4313280000000 1.0
C      1  0.4929780000000  0.4667940000000  0.4437310000000 1.0
C      1  0.4738940000000  0.5207610000000  0.4439360000000 1.0
C      1  0.5329960000000  0.4849690000000  0.5543310000000 1.0
C      1  0.4956030000000  0.5303690000000  0.5621420000000 1.0
C      1  0.4766690000000  0.4805770000000  0.5613660000000 1.0
C      1  0.5611560000000  0.4882550000000  0.4645030000000 1.0
C      1  0.4630870000000  0.4579740000000  0.4693590000000 1.0
C      1  0.4872030000000  0.5620950000000  0.4687690000000 1.0
C      1  0.5580250000000  0.5150060000000  0.5286120000000 1.0
C      1  0.4578070000000  0.5438470000000  0.5284210000000 1.0
C      1  0.4822440000000  0.4400010000000  0.5318960000000 1.0
C      1  0.5338590000000  0.4690640000000  0.4287070000000 1.0
C      1  0.4465290000000  0.4797060000000  0.4281960000000 1.0
C      1  0.5157190000000  0.5465050000000  0.4335050000000 1.0
C      1  0.5347910000000  0.5281340000000  0.5689720000000 1.0
C      1  0.4570900000000  0.5152500000000  0.5679250000000 1.0
C      1  0.5082670000000  0.4576080000000  0.5695940000000 1.0
C      1  0.5009620000000  0.4881930000000  0.4180890000000 1.0
C      1  0.4916680000000  0.5027110000000  0.5823830000000 1.0
END
