TITL C-2622962-9663-801 2.75185314784282e-07 125000 -666.208894716899 0 0 119 (C1) n - 1
REM
REM in /nfs/bkarasulu/CARBON/AIRSS/Generating-Clusters/AIREBO/with-SteepDescent/Higher-Symm/SD-CG/HFTN-CG
REM
REM
REM
REM
REM
REM ./C.cell (b20cbc046b6831c77cfcea5457e17084)
REM
REM compiler GCC version 9.2.1 20190827 (Red Hat 9.2.1-1)
REM options -cpp -mtune=generic -march=x86-64 -g -O0 -fpre-include=/usr/include/finclude/math-vector-fortran.h
REM seed -1177354026 21038275 310497218 -781650651 2124650513 -1312987527 -403552642 -649013808 -2143975958 -391586523 -1821967347 -916003819 368404230 563076233 -3871071 1876882934 -1523822333 -546638658 -650245484 -504914177 -1439114213 -1710311078 816301248 -361220348 -683020379 575072864 598184606 -925219637 -178247168 1455761568 -1912270932 715500450 -1288344220
REM
CELL 1.54180   50.00000   50.00000   50.00000   90.00000   90.00000   90.00000
LATT -1
SFAC C  
C      1  0.5557480000000  0.5576690000000  0.4500980000000 1.0
C      1  0.5428740000000  0.4382310000000  0.4727220000000 1.0
C      1  0.5540290000000  0.5183760000000  0.5673580000000 1.0
C      1  0.5803330000000  0.5482380000000  0.4663520000000 1.0
C      1  0.5659610000000  0.4559470000000  0.4704600000000 1.0
C      1  0.5791530000000  0.5069510000000  0.5518680000000 1.0
C      1  0.5279350000000  0.5897920000000  0.5156960000000 1.0
C      1  0.5327460000000  0.4749670000000  0.4173940000000 1.0
C      1  0.5277710000000  0.4452790000000  0.5641330000000 1.0
C      1  0.4744550000000  0.4186050000000  0.4425260000000 1.0
C      1  0.4924270000000  0.4800110000000  0.5889010000000 1.0
C      1  0.4896740000000  0.5838600000000  0.4742280000000 1.0
C      1  0.4887000000000  0.4230490000000  0.4728210000000 1.0
C      1  0.4994130000000  0.5099280000000  0.5803440000000 1.0
C      1  0.5032690000000  0.5598580000000  0.4543510000000 1.0
C      1  0.5104820000000  0.4445860000000  0.4808810000000 1.0
C      1  0.5205270000000  0.5198170000000  0.5617160000000 1.0
C      1  0.5280900000000  0.5475350000000  0.4661260000000 1.0
C      1  0.4787570000000  0.4259250000000  0.5547820000000 1.0
C      1  0.4820930000000  0.5744030000000  0.5436220000000 1.0
C      1  0.4826280000000  0.4947220000000  0.4087080000000 1.0
C      1  0.5089870000000  0.3993540000000  0.4834490000000 1.0
C      1  0.5112410000000  0.5371350000000  0.5964140000000 1.0
C      1  0.5077340000000  0.5613360000000  0.4229200000000 1.0
C      1  0.5374960000000  0.4249790000000  0.5026710000000 1.0
C      1  0.5394770000000  0.5490990000000  0.5659430000000 1.0
C      1  0.5481150000000  0.5356900000000  0.4274080000000 1.0
C      1  0.5370940000000  0.5171920000000  0.4609500000000 1.0
C      1  0.5236540000000  0.4624130000000  0.5036650000000 1.0
C      1  0.5338020000000  0.5263140000000  0.5337760000000 1.0
C      1  0.5737150000000  0.4619970000000  0.4403180000000 1.0
C      1  0.5799880000000  0.4730730000000  0.5547700000000 1.0
C      1  0.5818520000000  0.5683130000000  0.4941070000000 1.0
C      1  0.5402900000000  0.4992070000000  0.5895090000000 1.0
C      1  0.5370110000000  0.5842820000000  0.4534120000000 1.0
C      1  0.5262850000000  0.4283840000000  0.4479790000000 1.0
C      1  0.4489990000000  0.3930510000000  0.4902180000000 1.0
C      1  0.4564790000000  0.5268790000000  0.6004240000000 1.0
C      1  0.4603550000000  0.5668630000000  0.4274510000000 1.0
C      1  0.5182540000000  0.4027970000000  0.4552280000000 1.0
C      1  0.5279750000000  0.5159930000000  0.6076750000000 1.0
C      1  0.5215810000000  0.5860590000000  0.4303440000000 1.0
C      1  0.5319190000000  0.5567570000000  0.4951480000000 1.0
C      1  0.5138500000000  0.4664930000000  0.4596390000000 1.0
C      1  0.5274410000000  0.4788070000000  0.5432940000000 1.0
C      1  0.4258360000000  0.5224990000000  0.4783640000000 1.0
C      1  0.4253390000000  0.4611400000000  0.4790430000000 1.0
C      1  0.4205460000000  0.5074650000000  0.5464270000000 1.0
C      1  0.5053720000000  0.4630770000000  0.5290380000000 1.0
C      1  0.5152940000000  0.5453580000000  0.5179370000000 1.0
C      1  0.5138880000000  0.4964700000000  0.4562470000000 1.0
C      1  0.5704860000000  0.5380630000000  0.4959180000000 1.0
C      1  0.5593080000000  0.4870590000000  0.4745930000000 1.0
C      1  0.5717680000000  0.4885690000000  0.5242260000000 1.0
C      1  0.4793470000000  0.4751460000000  0.5251620000000 1.0
C      1  0.4923830000000  0.5316980000000  0.5044020000000 1.0
C      1  0.5011600000000  0.5086550000000  0.4840740000000 1.0
C      1  0.4357020000000  0.4512210000000  0.5352940000000 1.0
C      1  0.4418020000000  0.5302150000000  0.5066400000000 1.0
C      1  0.4431370000000  0.4879830000000  0.4684560000000 1.0
C      1  0.4762240000000  0.4566020000000  0.5910450000000 1.0
C      1  0.4718230000000  0.5916540000000  0.4977380000000 1.0
C      1  0.4748600000000  0.4390890000000  0.4247820000000 1.0
C      1  0.4851370000000  0.5267320000000  0.4198910000000 1.0
C      1  0.4753640000000  0.4178310000000  0.5231280000000 1.0
C      1  0.4742670000000  0.5614740000000  0.5727820000000 1.0
C      1  0.5577330000000  0.5499340000000  0.5380950000000 1.0
C      1  0.5601480000000  0.5083520000000  0.4389720000000 1.0
C      1  0.5516280000000  0.4513810000000  0.5165850000000 1.0
C      1  0.5065200000000  0.4338800000000  0.5420130000000 1.0
C      1  0.5128550000000  0.5696160000000  0.5387260000000 1.0
C      1  0.5127500000000  0.4987370000000  0.4239650000000 1.0
C      1  0.4181600000000  0.4835590000000  0.4469290000000 1.0
C      1  0.4122760000000  0.4631960000000  0.5264380000000 1.0
C      1  0.4121050000000  0.5440690000000  0.5052660000000 1.0
C      1  0.4691670000000  0.5722900000000  0.5163970000000 1.0
C      1  0.4816060000000  0.4686770000000  0.4366740000000 1.0
C      1  0.4663140000000  0.4473380000000  0.5675460000000 1.0
C      1  0.4038360000000  0.4849970000000  0.5421430000000 1.0
C      1  0.4303630000000  0.5609370000000  0.4837680000000 1.0
C      1  0.4176880000000  0.4570030000000  0.4400740000000 1.0
C      1  0.5063730000000  0.5561600000000  0.5694460000000 1.0
C      1  0.5187380000000  0.5315540000000  0.4173700000000 1.0
C      1  0.5078400000000  0.4162400000000  0.5129500000000 1.0
C      1  0.4387700000000  0.4380650000000  0.4585090000000 1.0
C      1  0.4506530000000  0.4985250000000  0.5576700000000 1.0
C      1  0.4536790000000  0.5401390000000  0.4699660000000 1.0
C      1  0.5308480000000  0.4931770000000  0.4921960000000 1.0
C      1  0.5406410000000  0.4987930000000  0.5242680000000 1.0
C      1  0.5498930000000  0.5213410000000  0.4916840000000 1.0
C      1  0.4565770000000  0.5184520000000  0.5330190000000 1.0
C      1  0.4687090000000  0.5097190000000  0.4739200000000 1.0
C      1  0.4641880000000  0.4677360000000  0.4956600000000 1.0
C      1  0.5790530000000  0.5142340000000  0.4652550000000 1.0
C      1  0.5771910000000  0.4638860000000  0.5014480000000 1.0
C      1  0.5832620000000  0.5373920000000  0.5438890000000 1.0
C      1  0.4613560000000  0.5466230000000  0.5460330000000 1.0
C      1  0.4771560000000  0.5020170000000  0.4418470000000 1.0
C      1  0.4578320000000  0.4428190000000  0.5167800000000 1.0
C      1  0.4561310000000  0.4136900000000  0.4693060000000 1.0
C      1  0.4674310000000  0.5065080000000  0.5824060000000 1.0
C      1  0.4702790000000  0.5625740000000  0.4561090000000 1.0
C      1  0.4076640000000  0.4603170000000  0.4989420000000 1.0
C      1  0.4134320000000  0.5311160000000  0.5345990000000 1.0
C      1  0.4094520000000  0.5077900000000  0.4601940000000 1.0
C      1  0.4665020000000  0.5488720000000  0.4108470000000 1.0
C      1  0.4589950000000  0.3934770000000  0.5133670000000 1.0
C      1  0.4608990000000  0.5520670000000  0.5981680000000 1.0
C      1  0.5536360000000  0.4575260000000  0.5471810000000 1.0
C      1  0.5556040000000  0.5700260000000  0.5144570000000 1.0
C      1  0.5585730000000  0.4808040000000  0.4275970000000 1.0
C      1  0.4684310000000  0.5458750000000  0.5066750000000 1.0
C      1  0.4620170000000  0.4618260000000  0.4635060000000 1.0
C      1  0.4585560000000  0.4702460000000  0.5477690000000 1.0
C      1  0.5115940000000  0.4536420000000  0.4308370000000 1.0
C      1  0.5228830000000  0.4768140000000  0.5765600000000 1.0
C      1  0.5214190000000  0.5851570000000  0.4820990000000 1.0
C      1  0.4678140000000  0.5001950000000  0.5065670000000 1.0
C      1  0.5848030000000  0.4974990000000  0.4941090000000 1.0
END
