TITL C-2622965-4321-808 0.000112026196269174 125000 -655.567664618652 0 0 125 (C1) n - 1
REM
REM in /nfs/bkarasulu/CARBON/AIRSS/Generating-Clusters/AIREBO/with-SteepDescent/Higher-Symm/SD-CG/HFTN-CG
REM
REM
REM
REM
REM
REM ./C.cell (b20cbc046b6831c77cfcea5457e17084)
REM
REM compiler GCC version 9.2.1 20190827 (Red Hat 9.2.1-1)
REM options -cpp -mtune=generic -march=x86-64 -g -O0 -fpre-include=/usr/include/finclude/math-vector-fortran.h
REM seed -241836765 -1568657423 -1931370298 -2010437109 -2089411757 1284382993 1448442306 1189736106 923715950 -1831832240 1562581013 -509704467 1703147592 2016144579 -870424079 -683284512 1817806783 934433748 125722376 -1003777862 -1825073567 -1434385904 1713736902 -53974908 1064614220 1702288006 1706448408 -361442779 1822664704 -1738933033 1446325053 -20930595 -1583719567
REM
CELL 1.54180   50.00000   50.00000   50.00000   90.00000   90.00000   90.00000
LATT -1
SFAC C  
C      1  0.4496350000000  0.5739080000000  0.4656010000000 1.0
C      1  0.5537490000000  0.5706550000000  0.4654280000000 1.0
C      1  0.5837030000000  0.4702990000000  0.4651600000000 1.0
C      1  0.4979560000000  0.4109030000000  0.4653460000000 1.0
C      1  0.4144170000000  0.4746540000000  0.4645530000000 1.0
C      1  0.4511700000000  0.4239100000000  0.5352280000000 1.0
C      1  0.5542040000000  0.4293350000000  0.5351610000000 1.0
C      1  0.5839890000000  0.5295330000000  0.5350500000000 1.0
C      1  0.4982740000000  0.5892430000000  0.5350550000000 1.0
C      1  0.4125180000000  0.5277000000000  0.5350170000000 1.0
C      1  0.4389410000000  0.5472370000000  0.5262410000000 1.0
C      1  0.5256510000000  0.5712890000000  0.5258300000000 1.0
C      1  0.5758720000000  0.4979650000000  0.5253270000000 1.0
C      1  0.5217550000000  0.4274500000000  0.5251340000000 1.0
C      1  0.4354110000000  0.4531980000000  0.5281360000000 1.0
C      1  0.4395510000000  0.4537040000000  0.4738520000000 1.0
C      1  0.5252770000000  0.4286920000000  0.4750430000000 1.0
C      1  0.5756970000000  0.5018070000000  0.4751690000000 1.0
C      1  0.5214760000000  0.5721030000000  0.4760800000000 1.0
C      1  0.4368980000000  0.5437690000000  0.4748870000000 1.0
C      1  0.4453590000000  0.4814620000000  0.4886770000000 1.0
C      1  0.4627630000000  0.5487190000000  0.4934120000000 1.0
C      1  0.5363050000000  0.5494730000000  0.4940960000000 1.0
C      1  0.5582430000000  0.4809980000000  0.4936880000000 1.0
C      1  0.5002020000000  0.4388610000000  0.4934910000000 1.0
C      1  0.4414830000000  0.5193340000000  0.5094860000000 1.0
C      1  0.4627830000000  0.4507860000000  0.5081100000000 1.0
C      1  0.5360680000000  0.4504090000000  0.5067930000000 1.0
C      1  0.5577150000000  0.5184930000000  0.5073520000000 1.0
C      1  0.5006340000000  0.5599400000000  0.5082970000000 1.0
C      1  0.5462070000000  0.5869710000000  0.5037500000000 1.0
C      1  0.5970480000000  0.4830600000000  0.5032940000000 1.0
C      1  0.5141960000000  0.4027060000000  0.5033330000000 1.0
C      1  0.4100700000000  0.4544110000000  0.5058220000000 1.0
C      1  0.4311880000000  0.5711050000000  0.5034780000000 1.0
C      1  0.5459430000000  0.4129730000000  0.4967800000000 1.0
C      1  0.5970670000000  0.5164580000000  0.4969080000000 1.0
C      1  0.5143400000000  0.5969490000000  0.4973360000000 1.0
C      1  0.4114360000000  0.5440950000000  0.4974180000000 1.0
C      1  0.4311380000000  0.4295110000000  0.4962110000000 1.0
C      1  0.5164700000000  0.4824120000000  0.5938370000000 1.0
C      1  0.4878750000000  0.4786330000000  0.5936750000000 1.0
C      1  0.4752360000000  0.5047210000000  0.5934470000000 1.0
C      1  0.4964270000000  0.5245180000000  0.5937740000000 1.0
C      1  0.5217620000000  0.5106980000000  0.5938950000000 1.0
C      1  0.5167270000000  0.5176540000000  0.4056040000000 1.0
C      1  0.4880600000000  0.5215710000000  0.4054430000000 1.0
C      1  0.4756100000000  0.4954560000000  0.4060580000000 1.0
C      1  0.4965210000000  0.4755600000000  0.4062270000000 1.0
C      1  0.5218740000000  0.4892480000000  0.4059480000000 1.0
C      1  0.4820030000000  0.4797440000000  0.4704500000000 1.0
C      1  0.4747340000000  0.5105240000000  0.4674080000000 1.0
C      1  0.5020030000000  0.5265110000000  0.4684450000000 1.0
C      1  0.5254850000000  0.5060740000000  0.4695710000000 1.0
C      1  0.5134010000000  0.4771880000000  0.4704520000000 1.0
C      1  0.4828970000000  0.5216600000000  0.5318090000000 1.0
C      1  0.4761290000000  0.4905080000000  0.5305650000000 1.0
C      1  0.5024420000000  0.4737450000000  0.5299680000000 1.0
C      1  0.5261310000000  0.4943160000000  0.5293310000000 1.0
C      1  0.5139140000000  0.5235410000000  0.5293100000000 1.0
C      1  0.4677500000000  0.5330660000000  0.5554320000000 1.0
C      1  0.5209790000000  0.5406530000000  0.5548310000000 1.0
C      1  0.5444730000000  0.4931420000000  0.5544440000000 1.0
C      1  0.5070580000000  0.4554570000000  0.5545870000000 1.0
C      1  0.4603390000000  0.4795720000000  0.5546540000000 1.0
C      1  0.4676620000000  0.4677760000000  0.4454270000000 1.0
C      1  0.5204570000000  0.4598320000000  0.4456760000000 1.0
C      1  0.5441770000000  0.5069570000000  0.4449940000000 1.0
C      1  0.5067610000000  0.5447160000000  0.4443210000000 1.0
C      1  0.4590700000000  0.5215370000000  0.4435530000000 1.0
C      1  0.5309200000000  0.4675970000000  0.5707880000000 1.0
C      1  0.4784120000000  0.4600780000000  0.5706660000000 1.0
C      1  0.4550780000000  0.5084280000000  0.5695560000000 1.0
C      1  0.4943620000000  0.5453440000000  0.5709020000000 1.0
C      1  0.5406760000000  0.5196010000000  0.5708790000000 1.0
C      1  0.5310320000000  0.5328220000000  0.4286910000000 1.0
C      1  0.4782350000000  0.5406860000000  0.4281250000000 1.0
C      1  0.4551950000000  0.4917960000000  0.4293390000000 1.0
C      1  0.4939250000000  0.4552530000000  0.4295380000000 1.0
C      1  0.5405310000000  0.4803590000000  0.4290620000000 1.0
C      1  0.5579380000000  0.4557560000000  0.5547730000000 1.0
C      1  0.4764600000000  0.4301190000000  0.5550390000000 1.0
C      1  0.4293610000000  0.5035820000000  0.5478410000000 1.0
C      1  0.4794110000000  0.5709750000000  0.5547170000000 1.0
C      1  0.5607570000000  0.5420150000000  0.5550540000000 1.0
C      1  0.5577610000000  0.5442740000000  0.4457310000000 1.0
C      1  0.4757080000000  0.5694440000000  0.4461410000000 1.0
C      1  0.4266210000000  0.4988370000000  0.4462730000000 1.0
C      1  0.4791690000000  0.4297200000000  0.4462210000000 1.0
C      1  0.5601670000000  0.4580930000000  0.4452500000000 1.0
C      1  0.5473350000000  0.5449050000000  0.5251210000000 1.0
C      1  0.5582940000000  0.4687860000000  0.5244470000000 1.0
C      1  0.4887580000000  0.4360010000000  0.5248160000000 1.0
C      1  0.4379710000000  0.4860720000000  0.5198370000000 1.0
C      1  0.4707060000000  0.5596140000000  0.5243710000000 1.0
C      1  0.5468900000000  0.4551420000000  0.4753290000000 1.0
C      1  0.5579780000000  0.5309760000000  0.4762090000000 1.0
C      1  0.4885860000000  0.5631870000000  0.4766690000000 1.0
C      1  0.4339890000000  0.5098490000000  0.4775850000000 1.0
C      1  0.4714250000000  0.4416960000000  0.4764690000000 1.0
C      1  0.4834310000000  0.4026540000000  0.4930340000000 1.0
C      1  0.4052050000000  0.4822510000000  0.4932830000000 1.0
C      1  0.4569800000000  0.5882150000000  0.4935440000000 1.0
C      1  0.5711430000000  0.5688420000000  0.4930760000000 1.0
C      1  0.5875230000000  0.4539140000000  0.4928360000000 1.0
C      1  0.4838440000000  0.5962050000000  0.5072120000000 1.0
C      1  0.4021710000000  0.5136420000000  0.5060420000000 1.0
C      1  0.4563800000000  0.4114490000000  0.5067110000000 1.0
C      1  0.5708300000000  0.4308460000000  0.5073410000000 1.0
C      1  0.5873480000000  0.5452850000000  0.5073050000000 1.0
C      1  0.5768880000000  0.5161910000000  0.4443810000000 1.0
C      1  0.5391030000000  0.4314290000000  0.4441010000000 1.0
C      1  0.4471330000000  0.4407390000000  0.4433490000000 1.0
C      1  0.4273330000000  0.5327650000000  0.4441710000000 1.0
C      1  0.5085030000000  0.5783770000000  0.4452840000000 1.0
C      1  0.5771280000000  0.4837880000000  0.5562090000000 1.0
C      1  0.5399260000000  0.5688420000000  0.5565930000000 1.0
C      1  0.4472850000000  0.5599940000000  0.5566360000000 1.0
C      1  0.4282600000000  0.4703880000000  0.5562320000000 1.0
C      1  0.5092050000000  0.4215470000000  0.5561780000000 1.0
C      1  0.5272190000000  0.4799880000000  0.4996140000000 1.0
C      1  0.4681800000000  0.5028140000000  0.4998690000000 1.0
C      1  0.4883680000000  0.5302600000000  0.4993650000000 1.0
C      1  0.5268720000000  0.5196200000000  0.4986020000000 1.0
C      1  0.4893290000000  0.4678870000000  0.5008030000000 1.0
END
