TITL C-2622957-9142-811 0.000959079168183541 125000 -469.968714548923 0 0 82 (C1) n - 1
REM
REM in /nfs/bkarasulu/CARBON/AIRSS/Generating-Clusters/AIREBO/with-SteepDescent/Higher-Symm/SD-CG/HFTN-CG
REM
REM
REM
REM
REM
REM ./C.cell (b20cbc046b6831c77cfcea5457e17084)
REM
REM compiler GCC version 9.2.1 20190827 (Red Hat 9.2.1-1)
REM options -cpp -mtune=generic -march=x86-64 -g -O0 -fpre-include=/usr/include/finclude/math-vector-fortran.h
REM seed 1141577962 -94029459 -1180605042 -1681605474 2095291719 -1476199336 1977310764 -1638672838 1529595218 1765405692 -1177950959 547347606 661183189 1032574606 514984017 -2099374404 235033901 636316385 1115133346 332452903 -2058457096 -1060561308 230943981 -826629689 -1286501383 915512566 -1833527329 279306790 980752938 -1551828629 862839949 827296689 -862378413
REM
CELL 1.54180   50.00000   50.00000   50.00000   90.00000   90.00000   90.00000
LATT -1
SFAC C  
C      1  0.4522710000000  0.4440370000000  0.5446010000000 1.0
C      1  0.5710510000000  0.4857550000000  0.5486310000000 1.0
C      1  0.4763300000000  0.5656030000000  0.5450400000000 1.0
C      1  0.4501940000000  0.5534960000000  0.5476870000000 1.0
C      1  0.5738960000000  0.5141700000000  0.5435180000000 1.0
C      1  0.4757850000000  0.4285270000000  0.5512560000000 1.0
C      1  0.5489300000000  0.5314690000000  0.5482520000000 1.0
C      1  0.4498340000000  0.5225710000000  0.5482590000000 1.0
C      1  0.4959300000000  0.4452920000000  0.5674180000000 1.0
C      1  0.5459570000000  0.4764470000000  0.5584580000000 1.0
C      1  0.4558910000000  0.4720460000000  0.5497900000000 1.0
C      1  0.4994270000000  0.5488980000000  0.5484280000000 1.0
C      1  0.5452930000000  0.5633230000000  0.5367140000000 1.0
C      1  0.4223990000000  0.5058970000000  0.5374780000000 1.0
C      1  0.5138730000000  0.4315460000000  0.5348840000000 1.0
C      1  0.5461350000000  0.4281670000000  0.5391650000000 1.0
C      1  0.4128180000000  0.4965170000000  0.5146760000000 1.0
C      1  0.5403780000000  0.5764770000000  0.5140640000000 1.0
C      1  0.4990230000000  0.4161590000000  0.4921020000000 1.0
C      1  0.5871530000000  0.5230140000000  0.4846710000000 1.0
C      1  0.4267160000000  0.5467190000000  0.4932920000000 1.0
C      1  0.4925230000000  0.5901250000000  0.4936570000000 1.0
C      1  0.5707520000000  0.4426740000000  0.5233890000000 1.0
C      1  0.4293080000000  0.4530410000000  0.4906400000000 1.0
C      1  0.5023700000000  0.5333850000000  0.4592540000000 1.0
C      1  0.4553480000000  0.4951570000000  0.4440730000000 1.0
C      1  0.5344710000000  0.4905000000000  0.4427190000000 1.0
C      1  0.5133400000000  0.4694610000000  0.4572530000000 1.0
C      1  0.4712360000000  0.5205270000000  0.4534110000000 1.0
C      1  0.5273830000000  0.5241420000000  0.4432850000000 1.0
C      1  0.5195720000000  0.5736470000000  0.4899440000000 1.0
C      1  0.4277320000000  0.4838230000000  0.4875450000000 1.0
C      1  0.5412490000000  0.4385850000000  0.5069880000000 1.0
C      1  0.5245490000000  0.4267970000000  0.4848650000000 1.0
C      1  0.4274930000000  0.5177830000000  0.4845100000000 1.0
C      1  0.5650090000000  0.5375060000000  0.4733990000000 1.0
C      1  0.4696220000000  0.4765910000000  0.4294810000000 1.0
C      1  0.5333050000000  0.4997220000000  0.4122540000000 1.0
C      1  0.4868030000000  0.5549180000000  0.4405420000000 1.0
C      1  0.4614280000000  0.5466320000000  0.4339560000000 1.0
C      1  0.5240240000000  0.5254190000000  0.4094720000000 1.0
C      1  0.4901890000000  0.4621500000000  0.4389780000000 1.0
C      1  0.4751360000000  0.5150260000000  0.5296760000000 1.0
C      1  0.4980930000000  0.4674950000000  0.5422360000000 1.0
C      1  0.5277100000000  0.5117930000000  0.5323000000000 1.0
C      1  0.4752520000000  0.4843090000000  0.5277230000000 1.0
C      1  0.5038120000000  0.5292060000000  0.5230140000000 1.0
C      1  0.5238540000000  0.4806080000000  0.5357040000000 1.0
C      1  0.4757320000000  0.4158290000000  0.4746790000000 1.0
C      1  0.5918680000000  0.4977520000000  0.4717830000000 1.0
C      1  0.4361350000000  0.5692730000000  0.4773480000000 1.0
C      1  0.4626220000000  0.5774980000000  0.4834690000000 1.0
C      1  0.5708270000000  0.4791700000000  0.4754570000000 1.0
C      1  0.4555840000000  0.4346630000000  0.4805060000000 1.0
C      1  0.5333950000000  0.5706120000000  0.4608630000000 1.0
C      1  0.4311850000000  0.4911610000000  0.4551920000000 1.0
C      1  0.5528390000000  0.4681120000000  0.4577040000000 1.0
C      1  0.5324400000000  0.4433410000000  0.4626900000000 1.0
C      1  0.4046670000000  0.5050200000000  0.4627810000000 1.0
C      1  0.5460300000000  0.5472040000000  0.4533960000000 1.0
C      1  0.5763060000000  0.4705800000000  0.5247130000000 1.0
C      1  0.4787440000000  0.5772920000000  0.5195280000000 1.0
C      1  0.4438790000000  0.4429680000000  0.5174700000000 1.0
C      1  0.5839130000000  0.5205940000000  0.5151460000000 1.0
C      1  0.4894170000000  0.4123200000000  0.5245300000000 1.0
C      1  0.4385080000000  0.5493490000000  0.5206060000000 1.0
C      1  0.4609570000000  0.5299530000000  0.5050660000000 1.0
C      1  0.4888780000000  0.4458460000000  0.5178950000000 1.0
C      1  0.5511040000000  0.5127800000000  0.5107990000000 1.0
C      1  0.4679400000000  0.4567430000000  0.4997400000000 1.0
C      1  0.4788350000000  0.5529450000000  0.4969130000000 1.0
C      1  0.5592230000000  0.4831390000000  0.5025650000000 1.0
C      1  0.4600110000000  0.5082890000000  0.4815570000000 1.0
C      1  0.5089290000000  0.4788670000000  0.4863720000000 1.0
C      1  0.5417500000000  0.5324880000000  0.4903160000000 1.0
C      1  0.4763830000000  0.4850590000000  0.4940470000000 1.0
C      1  0.5089540000000  0.5413840000000  0.4916550000000 1.0
C      1  0.5312400000000  0.4691590000000  0.5068600000000 1.0
C      1  0.5289730000000  0.4489780000000  0.5596390000000 1.0
C      1  0.5250800000000  0.5533970000000  0.5585710000000 1.0
C      1  0.4399180000000  0.4924060000000  0.5593950000000 1.0
C      1  0.5087150000000  0.5077710000000  0.4891010000000 1.0
END
