TITL C-2622958-629-655 0.00199569894789597 125000 -393.796319622778 0 0 73 (C1) n - 1
REM
REM in /nfs/bkarasulu/CARBON/AIRSS/Generating-Clusters/AIREBO/with-SteepDescent/Higher-Symm/SD-CG/HFTN-CG
REM
REM
REM
REM
REM
REM ./C.cell (b20cbc046b6831c77cfcea5457e17084)
REM
REM compiler GCC version 9.2.1 20190827 (Red Hat 9.2.1-1)
REM options -cpp -mtune=generic -march=x86-64 -g -O0 -fpre-include=/usr/include/finclude/math-vector-fortran.h
REM seed 1921619238 2123972754 -690139840 687676908 771039127 -1684520418 1705326754 -3679096 378997582 948320897 -687659618 991781511 1521331616 -549971759 1482932753 -1858417827 1955038186 -1762383084 233359966 -1528787842 -349121011 2118787873 -398704187 -2124618825 -1611540589 -1530927752 1364629698 -784988715 -1198577143 -1803273484 -1416405150 49963271 1759543119
REM
CELL 1.54180   50.00000   50.00000   50.00000   90.00000   90.00000   90.00000
LATT -1
SFAC C  
C      1  0.5143830000000  0.4991310000000  0.4564270000000 1.0
C      1  0.4832290000000  0.5211430000000  0.4670610000000 1.0
C      1  0.4828030000000  0.4880750000000  0.4630840000000 1.0
C      1  0.5088620000000  0.5723590000000  0.5303130000000 1.0
C      1  0.4399720000000  0.4657040000000  0.5215700000000 1.0
C      1  0.5671220000000  0.4617660000000  0.5312050000000 1.0
C      1  0.5032110000000  0.5467960000000  0.5525070000000 1.0
C      1  0.4634410000000  0.4630580000000  0.5463390000000 1.0
C      1  0.5496830000000  0.4698050000000  0.5595490000000 1.0
C      1  0.5266740000000  0.4449960000000  0.5606860000000 1.0
C      1  0.5305170000000  0.5306460000000  0.5627190000000 1.0
C      1  0.4517180000000  0.5095140000000  0.5622020000000 1.0
C      1  0.5237950000000  0.4880020000000  0.4195650000000 1.0
C      1  0.4815260000000  0.5219850000000  0.4209770000000 1.0
C      1  0.4767500000000  0.4751480000000  0.4139550000000 1.0
C      1  0.4987330000000  0.4564630000000  0.5269250000000 1.0
C      1  0.5587180000000  0.5200390000000  0.5388990000000 1.0
C      1  0.4575740000000  0.5503550000000  0.5256310000000 1.0
C      1  0.4646530000000  0.5188060000000  0.5361480000000 1.0
C      1  0.5154330000000  0.4852330000000  0.5252330000000 1.0
C      1  0.5261270000000  0.5233550000000  0.5297980000000 1.0
C      1  0.5032830000000  0.4596260000000  0.5772840000000 1.0
C      1  0.5222610000000  0.5070380000000  0.5810490000000 1.0
C      1  0.4717460000000  0.4967820000000  0.5776900000000 1.0
C      1  0.4437710000000  0.5174300000000  0.4643770000000 1.0
C      1  0.5191980000000  0.4277880000000  0.4845140000000 1.0
C      1  0.5536430000000  0.5525780000000  0.4713980000000 1.0
C      1  0.5071080000000  0.4676330000000  0.4968340000000 1.0
C      1  0.5345650000000  0.5301910000000  0.4983900000000 1.0
C      1  0.4636710000000  0.5190410000000  0.5023630000000 1.0
C      1  0.4770890000000  0.4697400000000  0.5698210000000 1.0
C      1  0.5268350000000  0.4798940000000  0.5794720000000 1.0
C      1  0.4939770000000  0.5161890000000  0.5678790000000 1.0
C      1  0.4694040000000  0.5014160000000  0.4051030000000 1.0
C      1  0.5045650000000  0.4693890000000  0.4089440000000 1.0
C      1  0.5089820000000  0.5155790000000  0.4271320000000 1.0
C      1  0.4281890000000  0.4701330000000  0.4725940000000 1.0
C      1  0.5596670000000  0.4536190000000  0.4805340000000 1.0
C      1  0.5117150000000  0.5756130000000  0.4787630000000 1.0
C      1  0.4773810000000  0.4940580000000  0.4956370000000 1.0
C      1  0.5101600000000  0.5000060000000  0.4888140000000 1.0
C      1  0.5009320000000  0.5323530000000  0.4938380000000 1.0
C      1  0.5472670000000  0.4893760000000  0.5318320000000 1.0
C      1  0.4896730000000  0.5464490000000  0.5226610000000 1.0
C      1  0.4719900000000  0.4723980000000  0.5150570000000 1.0
C      1  0.5554380000000  0.4865700000000  0.4764100000000 1.0
C      1  0.4837710000000  0.5596320000000  0.4829760000000 1.0
C      1  0.4619170000000  0.4551520000000  0.4714210000000 1.0
C      1  0.5518650000000  0.5659910000000  0.5002060000000 1.0
C      1  0.4259110000000  0.5111350000000  0.4928030000000 1.0
C      1  0.5341740000000  0.4294330000000  0.5122100000000 1.0
C      1  0.4545860000000  0.5445820000000  0.4817920000000 1.0
C      1  0.4898610000000  0.4450390000000  0.4808160000000 1.0
C      1  0.5539090000000  0.5186400000000  0.4743740000000 1.0
C      1  0.4340260000000  0.5312420000000  0.5137640000000 1.0
C      1  0.5189960000000  0.4364380000000  0.5348450000000 1.0
C      1  0.5582290000000  0.5444520000000  0.5198310000000 1.0
C      1  0.5424130000000  0.4375180000000  0.4656710000000 1.0
C      1  0.5290470000000  0.5676670000000  0.4588050000000 1.0
C      1  0.4436470000000  0.4868170000000  0.4552110000000 1.0
C      1  0.4319450000000  0.5652150000000  0.4786900000000 1.0
C      1  0.4902360000000  0.4117790000000  0.4812720000000 1.0
C      1  0.5765600000000  0.5333630000000  0.4559000000000 1.0
C      1  0.4670270000000  0.5316070000000  0.4439750000000 1.0
C      1  0.4678500000000  0.4705580000000  0.4416940000000 1.0
C      1  0.5430370000000  0.4872250000000  0.4459260000000 1.0
C      1  0.5260650000000  0.5778880000000  0.5033210000000 1.0
C      1  0.4247860000000  0.4829730000000  0.4978440000000 1.0
C      1  0.5580210000000  0.4442480000000  0.5075670000000 1.0
C      1  0.4856970000000  0.5829700000000  0.5077920000000 1.0
C      1  0.4467870000000  0.4444650000000  0.4962270000000 1.0
C      1  0.5690620000000  0.4834380000000  0.5050730000000 1.0
C      1  0.4974360000000  0.5096840000000  0.5356750000000 1.0
END
