TITL C-2622967-6265-724 -0.00151075830425669 125000 -923.916141469148 0 0 164 (C1) n - 1
REM
REM in /nfs/bkarasulu/CARBON/AIRSS/Generating-Clusters/AIREBO/with-SteepDescent/Higher-Symm/SD-CG/HFTN-CG
REM
REM
REM
REM
REM
REM ./C.cell (b20cbc046b6831c77cfcea5457e17084)
REM
REM compiler GCC version 9.2.1 20190827 (Red Hat 9.2.1-1)
REM options -cpp -mtune=generic -march=x86-64 -g -O0 -fpre-include=/usr/include/finclude/math-vector-fortran.h
REM seed -313020097 1327164104 -1459926819 -530529944 -3749760 -1094985022 -2079848835 -1795282705 -862740700 199437206 -1805279991 914047697 -1862051431 -1499675066 234100864 727667684 -927286511 1457806774 -1044503972 -1101387547 1958886888 -275478612 -661581101 -416864216 -1781228058 -1360089262 -1024355673 -2143924331 -1536569948 1666995443 -1153569485 556107584 -272503762
REM
CELL 1.54180   50.00000   50.00000   50.00000   90.00000   90.00000   90.00000
LATT -1
SFAC C  
C      1  0.5682500000000  0.5716510000000  0.4675350000000 1.0
C      1  0.4028630000000  0.5090060000000  0.4676900000000 1.0
C      1  0.5219320000000  0.4024810000000  0.4464900000000 1.0
C      1  0.4311270000000  0.4239110000000  0.4757810000000 1.0
C      1  0.6024510000000  0.4755570000000  0.4850420000000 1.0
C      1  0.4654780000000  0.5933130000000  0.4770250000000 1.0
C      1  0.5018050000000  0.3972710000000  0.5582070000000 1.0
C      1  0.5891530000000  0.5537560000000  0.5468450000000 1.0
C      1  0.4080420000000  0.5424980000000  0.5361140000000 1.0
C      1  0.5086480000000  0.5271230000000  0.4307890000000 1.0
C      1  0.4735300000000  0.4870740000000  0.4246650000000 1.0
C      1  0.5208500000000  0.4816880000000  0.4320190000000 1.0
C      1  0.5446300000000  0.5273250000000  0.4479500000000 1.0
C      1  0.4620940000000  0.5254020000000  0.4529530000000 1.0
C      1  0.4991320000000  0.4477820000000  0.4528000000000 1.0
C      1  0.5319130000000  0.5732020000000  0.4224200000000 1.0
C      1  0.4206260000000  0.4982030000000  0.4070740000000 1.0
C      1  0.5379610000000  0.4412950000000  0.4183270000000 1.0
C      1  0.4637520000000  0.5516530000000  0.5459210000000 1.0
C      1  0.4785980000000  0.4511750000000  0.5427900000000 1.0
C      1  0.5653230000000  0.5213400000000  0.5422220000000 1.0
C      1  0.5086440000000  0.4668570000000  0.4093240000000 1.0
C      1  0.5301230000000  0.5275890000000  0.4086240000000 1.0
C      1  0.4657830000000  0.5088000000000  0.4073150000000 1.0
C      1  0.5507250000000  0.5428080000000  0.5996180000000 1.0
C      1  0.4315470000000  0.5231870000000  0.5943280000000 1.0
C      1  0.5144960000000  0.4463930000000  0.6016410000000 1.0
C      1  0.4920160000000  0.5344460000000  0.4663460000000 1.0
C      1  0.4706000000000  0.4817150000000  0.4826580000000 1.0
C      1  0.5371010000000  0.4807970000000  0.4704700000000 1.0
C      1  0.4057130000000  0.4774880000000  0.5579840000000 1.0
C      1  0.5540950000000  0.4283630000000  0.5526120000000 1.0
C      1  0.5301520000000  0.5916790000000  0.5516040000000 1.0
C      1  0.4065700000000  0.4751930000000  0.4671620000000 1.0
C      1  0.5450590000000  0.4187150000000  0.4650950000000 1.0
C      1  0.5202060000000  0.5902760000000  0.4555490000000 1.0
C      1  0.5086750000000  0.4219580000000  0.5805760000000 1.0
C      1  0.5715000000000  0.5558240000000  0.5759950000000 1.0
C      1  0.4159380000000  0.5385360000000  0.5682550000000 1.0
C      1  0.4807450000000  0.5167840000000  0.5548390000000 1.0
C      1  0.4990870000000  0.4782200000000  0.5449870000000 1.0
C      1  0.5264340000000  0.5220780000000  0.5504980000000 1.0
C      1  0.4345320000000  0.4180350000000  0.5047030000000 1.0
C      1  0.6037010000000  0.4800620000000  0.5130960000000 1.0
C      1  0.4621520000000  0.5995340000000  0.5088660000000 1.0
C      1  0.4098840000000  0.5394070000000  0.4642240000000 1.0
C      1  0.4980750000000  0.3997630000000  0.4602320000000 1.0
C      1  0.5871990000000  0.5503820000000  0.4669120000000 1.0
C      1  0.4402550000000  0.5077210000000  0.4809810000000 1.0
C      1  0.5217760000000  0.4319080000000  0.4850980000000 1.0
C      1  0.5418870000000  0.5459190000000  0.4829320000000 1.0
C      1  0.4309130000000  0.4736490000000  0.5159770000000 1.0
C      1  0.5413720000000  0.4505110000000  0.5142350000000 1.0
C      1  0.5217200000000  0.5624860000000  0.5130240000000 1.0
C      1  0.4895620000000  0.5754490000000  0.4930630000000 1.0
C      1  0.4183230000000  0.4578780000000  0.4923750000000 1.0
C      1  0.5719010000000  0.4382210000000  0.4719010000000 1.0
C      1  0.4479080000000  0.4705920000000  0.4359470000000 1.0
C      1  0.5522350000000  0.4833040000000  0.4398700000000 1.0
C      1  0.4901880000000  0.5518180000000  0.4368480000000 1.0
C      1  0.5734100000000  0.5223020000000  0.4653530000000 1.0
C      1  0.4398160000000  0.5474580000000  0.4661280000000 1.0
C      1  0.4805670000000  0.4256330000000  0.4680280000000 1.0
C      1  0.5795960000000  0.5244710000000  0.5793050000000 1.0
C      1  0.4405200000000  0.5581650000000  0.5777260000000 1.0
C      1  0.4770190000000  0.4193580000000  0.5802540000000 1.0
C      1  0.4658260000000  0.5597850000000  0.5077360000000 1.0
C      1  0.4713380000000  0.4320200000000  0.4981030000000 1.0
C      1  0.5738520000000  0.5065690000000  0.5148570000000 1.0
C      1  0.4643140000000  0.5709170000000  0.4337890000000 1.0
C      1  0.4510960000000  0.4401640000000  0.4334770000000 1.0
C      1  0.5781260000000  0.4999390000000  0.4401770000000 1.0
C      1  0.4921720000000  0.5576760000000  0.5291730000000 1.0
C      1  0.4578990000000  0.4532310000000  0.5194640000000 1.0
C      1  0.5547110000000  0.4894650000000  0.5370110000000 1.0
C      1  0.4990370000000  0.4450720000000  0.5027100000000 1.0
C      1  0.5594080000000  0.5202300000000  0.4933120000000 1.0
C      1  0.4567160000000  0.5357220000000  0.4910960000000 1.0
C      1  0.5288890000000  0.5295170000000  0.5173890000000 1.0
C      1  0.4672900000000  0.5151190000000  0.5236420000000 1.0
C      1  0.5281070000000  0.4767970000000  0.5272960000000 1.0
C      1  0.6040230000000  0.5097500000000  0.5239040000000 1.0
C      1  0.4415960000000  0.5792000000000  0.5185760000000 1.0
C      1  0.4619940000000  0.4067790000000  0.5152620000000 1.0
C      1  0.5955460000000  0.4494810000000  0.4762270000000 1.0
C      1  0.4978540000000  0.5968900000000  0.4692560000000 1.0
C      1  0.4063850000000  0.4410930000000  0.4680550000000 1.0
C      1  0.5660150000000  0.5109220000000  0.4133990000000 1.0
C      1  0.4602210000000  0.5526770000000  0.4105300000000 1.0
C      1  0.4689760000000  0.4413040000000  0.4102560000000 1.0
C      1  0.4456550000000  0.5272300000000  0.4235740000000 1.0
C      1  0.4981030000000  0.4393210000000  0.4195800000000 1.0
C      1  0.5573210000000  0.5425770000000  0.4203370000000 1.0
C      1  0.4398780000000  0.4785640000000  0.4049140000000 1.0
C      1  0.5504850000000  0.4647040000000  0.4114530000000 1.0
C      1  0.5093000000000  0.5614600000000  0.4105190000000 1.0
C      1  0.4888010000000  0.5178460000000  0.3873570000000 1.0
C      1  0.4911640000000  0.4839590000000  0.3889360000000 1.0
C      1  0.5195300000000  0.5033690000000  0.3888880000000 1.0
C      1  0.4973910000000  0.4728590000000  0.4938040000000 1.0
C      1  0.5324830000000  0.5052970000000  0.4936740000000 1.0
C      1  0.4848020000000  0.5170430000000  0.4946590000000 1.0
C      1  0.5462280000000  0.4544320000000  0.4827200000000 1.0
C      1  0.5088170000000  0.5538140000000  0.4834900000000 1.0
C      1  0.4541910000000  0.4936820000000  0.5050140000000 1.0
C      1  0.4126720000000  0.5016820000000  0.4999220000000 1.0
C      1  0.5264710000000  0.4199390000000  0.5165520000000 1.0
C      1  0.5519470000000  0.5728750000000  0.4974870000000 1.0
C      1  0.4167630000000  0.5677550000000  0.5249860000000 1.0
C      1  0.4814410000000  0.3954190000000  0.5312440000000 1.0
C      1  0.6066570000000  0.5343960000000  0.5379800000000 1.0
C      1  0.4483340000000  0.3794760000000  0.6009980000000 1.0
C      1  0.5899190000000  0.4795160000000  0.5772850000000 1.0
C      1  0.4796580000000  0.5828150000000  0.5748420000000 1.0
C      1  0.4970880000000  0.5667610000000  0.5615870000000 1.0
C      1  0.4422980000000  0.4871150000000  0.5450510000000 1.0
C      1  0.5769390000000  0.4735630000000  0.5533990000000 1.0
C      1  0.4342520000000  0.4881280000000  0.4556040000000 1.0
C      1  0.5296370000000  0.4415540000000  0.4472950000000 1.0
C      1  0.5333290000000  0.5589920000000  0.4530210000000 1.0
C      1  0.5354210000000  0.5207370000000  0.6053110000000 1.0
C      1  0.4526730000000  0.5142040000000  0.6052450000000 1.0
C      1  0.5007030000000  0.4706430000000  0.5995570000000 1.0
C      1  0.4521760000000  0.4259510000000  0.4570260000000 1.0
C      1  0.5968120000000  0.4963930000000  0.4682700000000 1.0
C      1  0.4505220000000  0.5752480000000  0.4577000000000 1.0
C      1  0.4126510000000  0.4582520000000  0.5396700000000 1.0
C      1  0.5663840000000  0.4424160000000  0.5307680000000 1.0
C      1  0.5138560000000  0.5914930000000  0.5289320000000 1.0
C      1  0.5079140000000  0.4412180000000  0.5338930000000 1.0
C      1  0.5524180000000  0.5468500000000  0.5331020000000 1.0
C      1  0.4442160000000  0.5268990000000  0.5428440000000 1.0
C      1  0.5027640000000  0.5363720000000  0.5671370000000 1.0
C      1  0.4686500000000  0.4881810000000  0.5529650000000 1.0
C      1  0.5158810000000  0.4954110000000  0.5642050000000 1.0
C      1  0.5478070000000  0.4925930000000  0.4012410000000 1.0
C      1  0.4850800000000  0.5477000000000  0.3974430000000 1.0
C      1  0.4635920000000  0.4646650000000  0.3932710000000 1.0
C      1  0.4188890000000  0.4332220000000  0.5237980000000 1.0
C      1  0.5902700000000  0.4607810000000  0.5297990000000 1.0
C      1  0.4883080000000  0.6033340000000  0.5216080000000 1.0
C      1  0.4639850000000  0.5379810000000  0.5754780000000 1.0
C      1  0.4697440000000  0.4448900000000  0.5709080000000 1.0
C      1  0.5518230000000  0.5111010000000  0.5702770000000 1.0
C      1  0.5481030000000  0.4933330000000  0.5984500000000 1.0
C      1  0.4842980000000  0.5203390000000  0.5943690000000 1.0
C      1  0.4741320000000  0.4660400000000  0.5893180000000 1.0
C      1  0.5639570000000  0.5732220000000  0.4338220000000 1.0
C      1  0.4191270000000  0.5112890000000  0.4377170000000 1.0
C      1  0.5200960000000  0.4142020000000  0.4200600000000 1.0
C      1  0.5973510000000  0.5050850000000  0.5849820000000 1.0
C      1  0.4523490000000  0.5825270000000  0.5803090000000 1.0
C      1  0.4623630000000  0.3984770000000  0.5896340000000 1.0
C      1  0.5269870000000  0.4278590000000  0.5557430000000 1.0
C      1  0.5552190000000  0.5735370000000  0.5528400000000 1.0
C      1  0.4221490000000  0.5068800000000  0.5592290000000 1.0
C      1  0.4735940000000  0.4951530000000  0.4552310000000 1.0
C      1  0.5043310000000  0.4802880000000  0.4613580000000 1.0
C      1  0.5159320000000  0.5120110000000  0.4573640000000 1.0
C      1  0.5725870000000  0.5719410000000  0.5233480000000 1.0
C      1  0.4004800000000  0.5216710000000  0.5188530000000 1.0
C      1  0.5139130000000  0.3950930000000  0.5284710000000 1.0
C      1  0.5065620000000  0.4971380000000  0.5106010000000 1.0
C      1  0.5094020000000  0.5018120000000  0.5942630000000 1.0
END
