TITL C-2622955-8511-317 0.00200943490344276 125000 -169.548768427062 0 0 33 (C1) n - 1
REM
REM in /nfs/bkarasulu/CARBON/AIRSS/Generating-Clusters/AIREBO/with-SteepDescent/Higher-Symm/SD-CG/HFTN-CG
REM
REM
REM
REM
REM
REM ./C.cell (b20cbc046b6831c77cfcea5457e17084)
REM
REM compiler GCC version 9.2.1 20190827 (Red Hat 9.2.1-1)
REM options -cpp -mtune=generic -march=x86-64 -g -O0 -fpre-include=/usr/include/finclude/math-vector-fortran.h
REM seed 1464885073 963638033 224550554 -1718293325 -500170541 -651539103 -1186778252 851687791 550954153 -1452078728 -846012494 2134931056 1347684409 1177287934 -534692086 679519400 1632290516 2000219997 1479807901 1912938405 -1002588036 1684305061 997035881 -372024320 -1648996982 -1402681156 -694555301 964405497 -1682497917 -768934041 1652689125 713358947 -380720186
REM
CELL 1.54180   50.00000   50.00000   50.00000   90.00000   90.00000   90.00000
LATT -1
SFAC C  
C      1  0.4807400000000  0.4738850000000  0.4369350000000 1.0
C      1  0.4904230000000  0.5519090000000  0.4591420000000 1.0
C      1  0.4878890000000  0.5506750000000  0.5280600000000 1.0
C      1  0.4907960000000  0.4852320000000  0.5537520000000 1.0
C      1  0.4946760000000  0.4290110000000  0.5128770000000 1.0
C      1  0.4726020000000  0.5501860000000  0.4881940000000 1.0
C      1  0.4662180000000  0.5279880000000  0.5411760000000 1.0
C      1  0.4698860000000  0.4640500000000  0.5373110000000 1.0
C      1  0.4765900000000  0.4596430000000  0.4834200000000 1.0
C      1  0.4634930000000  0.5020740000000  0.4449360000000 1.0
C      1  0.5174090000000  0.4458900000000  0.5239300000000 1.0
C      1  0.5050850000000  0.4684420000000  0.4507360000000 1.0
C      1  0.5064320000000  0.5253830000000  0.4550620000000 1.0
C      1  0.5085900000000  0.5493300000000  0.5080180000000 1.0
C      1  0.5103070000000  0.5055090000000  0.5500580000000 1.0
C      1  0.5145900000000  0.5122160000000  0.4782460000000 1.0
C      1  0.5198890000000  0.5242500000000  0.5029710000000 1.0
C      1  0.5265910000000  0.5037340000000  0.5246690000000 1.0
C      1  0.5238510000000  0.4715110000000  0.5088270000000 1.0
C      1  0.5034990000000  0.4804420000000  0.4830930000000 1.0
C      1  0.5019190000000  0.5672150000000  0.4855710000000 1.0
C      1  0.4963920000000  0.5293950000000  0.5568000000000 1.0
C      1  0.4986780000000  0.4488590000000  0.5471520000000 1.0
C      1  0.5022530000000  0.4434580000000  0.4680690000000 1.0
C      1  0.4940960000000  0.5111810000000  0.4353730000000 1.0
C      1  0.4582270000000  0.4720840000000  0.4602420000000 1.0
C      1  0.4658840000000  0.5286190000000  0.4625710000000 1.0
C      1  0.4572780000000  0.5484370000000  0.5154180000000 1.0
C      1  0.4627000000000  0.4968330000000  0.5435290000000 1.0
C      1  0.4727920000000  0.4467160000000  0.5103100000000 1.0
C      1  0.5777830000000  0.4838140000000  0.5160540000000 1.0
C      1  0.5524470000000  0.4853850000000  0.5168780000000 1.0
C      1  0.4786690000000  0.4972770000000  0.4964870000000 1.0
END
