TITL C-2622963-3633-374 0.00131113687492308 125000 -715.898648393821 0 0 128 (C1) n - 1
REM
REM in /nfs/bkarasulu/CARBON/AIRSS/Generating-Clusters/AIREBO/with-SteepDescent/Higher-Symm/SD-CG/HFTN-CG
REM
REM
REM
REM
REM
REM ./C.cell (b20cbc046b6831c77cfcea5457e17084)
REM
REM compiler GCC version 9.2.1 20190827 (Red Hat 9.2.1-1)
REM options -cpp -mtune=generic -march=x86-64 -g -O0 -fpre-include=/usr/include/finclude/math-vector-fortran.h
REM seed 720383342 -859917100 -497552682 1827964597 747547432 1567955981 -462840563 1536684884 1917272099 -1642072351 1023361295 663730305 -144208264 715482208 -117722379 -1590034590 312359836 -1925051148 -729054510 611692856 640240194 1049438743 1389541686 -1478044000 1397442071 1248251254 929493014 452387472 1543532865 1841284907 -1419418237 -831795238 1721053948
REM
CELL 1.54180   50.00000   50.00000   50.00000   90.00000   90.00000   90.00000
LATT -1
SFAC C  
C      1  0.5465010000000  0.4721160000000  0.5572850000000 1.0
C      1  0.4669740000000  0.5315520000000  0.4534430000000 1.0
C      1  0.5032670000000  0.4748600000000  0.4307920000000 1.0
C      1  0.4963880000000  0.5275490000000  0.5655720000000 1.0
C      1  0.5394890000000  0.4519800000000  0.5749560000000 1.0
C      1  0.4525080000000  0.5355150000000  0.4229250000000 1.0
C      1  0.4138650000000  0.5419230000000  0.5292180000000 1.0
C      1  0.5879880000000  0.4606820000000  0.4950770000000 1.0
C      1  0.5506090000000  0.5093660000000  0.4978830000000 1.0
C      1  0.4497460000000  0.4911070000000  0.5068940000000 1.0
C      1  0.5569810000000  0.4913890000000  0.5240040000000 1.0
C      1  0.4354670000000  0.4997910000000  0.4772670000000 1.0
C      1  0.4713940000000  0.4842460000000  0.4852080000000 1.0
C      1  0.5250880000000  0.5228690000000  0.5086190000000 1.0
C      1  0.4773370000000  0.4175450000000  0.4589830000000 1.0
C      1  0.5237590000000  0.5824630000000  0.5330740000000 1.0
C      1  0.5543780000000  0.5186000000000  0.5888540000000 1.0
C      1  0.4511880000000  0.4901110000000  0.4123670000000 1.0
C      1  0.4113870000000  0.4870960000000  0.4976710000000 1.0
C      1  0.5899630000000  0.5158270000000  0.4949200000000 1.0
C      1  0.4828230000000  0.4463880000000  0.4498120000000 1.0
C      1  0.5183050000000  0.5551900000000  0.5469070000000 1.0
C      1  0.5599100000000  0.5694250000000  0.4878090000000 1.0
C      1  0.4404540000000  0.4269640000000  0.5018970000000 1.0
C      1  0.5176820000000  0.5168550000000  0.4022360000000 1.0
C      1  0.4858090000000  0.5005000000000  0.5949240000000 1.0
C      1  0.4729370000000  0.4206590000000  0.5390560000000 1.0
C      1  0.5210680000000  0.5737550000000  0.4821780000000 1.0
C      1  0.4102980000000  0.4752930000000  0.4466720000000 1.0
C      1  0.5923010000000  0.5261830000000  0.5448200000000 1.0
C      1  0.5461310000000  0.4993300000000  0.6331670000000 1.0
C      1  0.4606110000000  0.5117650000000  0.3697130000000 1.0
C      1  0.5871860000000  0.5332650000000  0.5178090000000 1.0
C      1  0.4143890000000  0.4663220000000  0.4719840000000 1.0
C      1  0.4819070000000  0.5231240000000  0.5164470000000 1.0
C      1  0.5135240000000  0.4789070000000  0.4815250000000 1.0
C      1  0.5415910000000  0.5490370000000  0.4249680000000 1.0
C      1  0.4607660000000  0.4472560000000  0.5701070000000 1.0
C      1  0.4624700000000  0.4963670000000  0.5471530000000 1.0
C      1  0.5392010000000  0.5010980000000  0.4467750000000 1.0
C      1  0.5739880000000  0.5175350000000  0.5638270000000 1.0
C      1  0.4287470000000  0.4914430000000  0.4335220000000 1.0
C      1  0.3974060000000  0.4427770000000  0.5185090000000 1.0
C      1  0.6041380000000  0.5560710000000  0.4713650000000 1.0
C      1  0.5400130000000  0.5031220000000  0.6067900000000 1.0
C      1  0.4654420000000  0.5068190000000  0.3962090000000 1.0
C      1  0.4070780000000  0.5117730000000  0.4624010000000 1.0
C      1  0.6055200000000  0.4776930000000  0.5391800000000 1.0
C      1  0.5124610000000  0.5445010000000  0.4356980000000 1.0
C      1  0.4925330000000  0.4556430000000  0.5665270000000 1.0
C      1  0.4996180000000  0.4007800000000  0.4575130000000 1.0
C      1  0.5029920000000  0.6008940000000  0.5362040000000 1.0
C      1  0.4214970000000  0.4308500000000  0.5257620000000 1.0
C      1  0.5788190000000  0.5650660000000  0.4640560000000 1.0
C      1  0.5362400000000  0.4475700000000  0.4722940000000 1.0
C      1  0.4608000000000  0.5549600000000  0.5277050000000 1.0
C      1  0.4247320000000  0.5126830000000  0.5156760000000 1.0
C      1  0.5735320000000  0.4873790000000  0.4861410000000 1.0
C      1  0.4866870000000  0.4992180000000  0.4343520000000 1.0
C      1  0.5118390000000  0.5029230000000  0.5646650000000 1.0
C      1  0.5410100000000  0.4358600000000  0.5007760000000 1.0
C      1  0.4452650000000  0.5668590000000  0.5012160000000 1.0
C      1  0.5044220000000  0.5020030000000  0.5234150000000 1.0
C      1  0.4939930000000  0.5022580000000  0.4734570000000 1.0
C      1  0.4619710000000  0.4406680000000  0.5193870000000 1.0
C      1  0.5395470000000  0.5463580000000  0.4741800000000 1.0
C      1  0.5851160000000  0.4771860000000  0.5228410000000 1.0
C      1  0.4125650000000  0.5322280000000  0.4820460000000 1.0
C      1  0.5526090000000  0.4384300000000  0.5328030000000 1.0
C      1  0.4390450000000  0.5582140000000  0.4689200000000 1.0
C      1  0.4663580000000  0.5822670000000  0.4842680000000 1.0
C      1  0.5262420000000  0.4124090000000  0.5165060000000 1.0
C      1  0.5556110000000  0.5200690000000  0.4665450000000 1.0
C      1  0.4534680000000  0.4707040000000  0.5304820000000 1.0
C      1  0.4536170000000  0.4166800000000  0.4735980000000 1.0
C      1  0.5453640000000  0.5810110000000  0.5157900000000 1.0
C      1  0.4830540000000  0.4577970000000  0.5027250000000 1.0
C      1  0.5098930000000  0.5417320000000  0.4878820000000 1.0
C      1  0.5360390000000  0.4666490000000  0.5256850000000 1.0
C      1  0.4458910000000  0.5300340000000  0.4867120000000 1.0
C      1  0.5451590000000  0.4189790000000  0.4638720000000 1.0
C      1  0.4565440000000  0.5839400000000  0.5385750000000 1.0
C      1  0.5159180000000  0.4897040000000  0.5945840000000 1.0
C      1  0.4880680000000  0.5219210000000  0.4109280000000 1.0
C      1  0.4613920000000  0.4684540000000  0.4365140000000 1.0
C      1  0.5365940000000  0.5362770000000  0.5658830000000 1.0
C      1  0.5244360000000  0.3912680000000  0.4977170000000 1.0
C      1  0.4738530000000  0.6044650000000  0.4981520000000 1.0
C      1  0.5103930000000  0.5164390000000  0.4479200000000 1.0
C      1  0.4933040000000  0.4821160000000  0.5486920000000 1.0
C      1  0.5426270000000  0.4272740000000  0.5604820000000 1.0
C      1  0.4532360000000  0.5655580000000  0.4388260000000 1.0
C      1  0.4818830000000  0.5526430000000  0.4231500000000 1.0
C      1  0.5152600000000  0.4594960000000  0.5871660000000 1.0
C      1  0.5248900000000  0.3994040000000  0.4702180000000 1.0
C      1  0.4763410000000  0.6015360000000  0.5266430000000 1.0
C      1  0.5733420000000  0.4188120000000  0.4621420000000 1.0
C      1  0.4314200000000  0.5830760000000  0.5520360000000 1.0
C      1  0.6034670000000  0.5269000000000  0.4725390000000 1.0
C      1  0.4000520000000  0.4711290000000  0.5213120000000 1.0
C      1  0.5420160000000  0.5562150000000  0.5910020000000 1.0
C      1  0.4620090000000  0.4431910000000  0.4160050000000 1.0
C      1  0.5903210000000  0.5213570000000  0.4467970000000 1.0
C      1  0.4143450000000  0.4739870000000  0.5453510000000 1.0
C      1  0.4364960000000  0.4487790000000  0.5490410000000 1.0
C      1  0.5654370000000  0.5435360000000  0.4439790000000 1.0
C      1  0.4890940000000  0.5435900000000  0.5413550000000 1.0
C      1  0.5111510000000  0.4590030000000  0.4551280000000 1.0
C      1  0.5101210000000  0.4726530000000  0.5119550000000 1.0
C      1  0.4798430000000  0.5306020000000  0.4849130000000 1.0
C      1  0.5733960000000  0.4355570000000  0.5077030000000 1.0
C      1  0.4170500000000  0.5526850000000  0.5024040000000 1.0
C      1  0.5435780000000  0.5056870000000  0.5527540000000 1.0
C      1  0.4569590000000  0.4991370000000  0.4508830000000 1.0
C      1  0.4654360000000  0.4548870000000  0.4739120000000 1.0
C      1  0.5382740000000  0.5431750000000  0.5265820000000 1.0
C      1  0.5658660000000  0.5537010000000  0.5162620000000 1.0
C      1  0.4350810000000  0.4455780000000  0.4752780000000 1.0
C      1  0.5197290000000  0.4184340000000  0.5435670000000 1.0
C      1  0.4773740000000  0.5629900000000  0.4617190000000 1.0
C      1  0.4950050000000  0.4276260000000  0.5523300000000 1.0
C      1  0.5053520000000  0.5668620000000  0.4557350000000 1.0
C      1  0.4677340000000  0.4974180000000  0.5783350000000 1.0
C      1  0.5370510000000  0.5102270000000  0.4164690000000 1.0
C      1  0.5910680000000  0.4373400000000  0.4720960000000 1.0
C      1  0.4148220000000  0.5605250000000  0.5500130000000 1.0
C      1  0.4531200000000  0.5220080000000  0.5319080000000 1.0
C      1  0.5452960000000  0.4804760000000  0.4705700000000 1.0
END
