TITL C-2622963-3633-730 -0.00177235669871968 125000 -555.228416765639 0 0 101 (C1) n - 1
REM
REM in /nfs/bkarasulu/CARBON/AIRSS/Generating-Clusters/AIREBO/with-SteepDescent/Higher-Symm/SD-CG/HFTN-CG
REM
REM
REM
REM
REM
REM ./C.cell (b20cbc046b6831c77cfcea5457e17084)
REM
REM compiler GCC version 9.2.1 20190827 (Red Hat 9.2.1-1)
REM options -cpp -mtune=generic -march=x86-64 -g -O0 -fpre-include=/usr/include/finclude/math-vector-fortran.h
REM seed -1400293510 -695279571 -1258533954 1655074339 1088425883 957791458 -1377246079 812180606 -1828865965 1475113529 -1234100274 -107212106 1566213270 -1265832168 -174607979 35264229 185858626 1167155131 -1228595203 1696387877 -999508452 -2099739511 -706649892 -2076300489 -1738335255 949116296 1286558158 -1660201473 -68939898 1354554329 2088667818 1941416481 -533774361
REM
CELL 1.54180   50.00000   50.00000   50.00000   90.00000   90.00000   90.00000
LATT -1
SFAC C  
C      1  0.5554660000000  0.4400660000000  0.5119020000000 1.0
C      1  0.5671370000000  0.4373480000000  0.4867470000000 1.0
C      1  0.5262550000000  0.4265680000000  0.5543370000000 1.0
C      1  0.5190010000000  0.4256600000000  0.4551940000000 1.0
C      1  0.4860470000000  0.5884160000000  0.5252360000000 1.0
C      1  0.4860840000000  0.5794670000000  0.4985980000000 1.0
C      1  0.4505820000000  0.5099570000000  0.5136500000000 1.0
C      1  0.4649750000000  0.5073860000000  0.4829510000000 1.0
C      1  0.5078620000000  0.4832560000000  0.4911500000000 1.0
C      1  0.5004650000000  0.4969880000000  0.5173520000000 1.0
C      1  0.5246970000000  0.5344820000000  0.5553270000000 1.0
C      1  0.5223540000000  0.5379960000000  0.4466110000000 1.0
C      1  0.5267270000000  0.5423530000000  0.5119040000000 1.0
C      1  0.5387060000000  0.5550580000000  0.4831190000000 1.0
C      1  0.4835440000000  0.5656860000000  0.5477490000000 1.0
C      1  0.4933050000000  0.5811550000000  0.4409480000000 1.0
C      1  0.4931290000000  0.4474160000000  0.5621830000000 1.0
C      1  0.4857610000000  0.4495360000000  0.4341910000000 1.0
C      1  0.4247800000000  0.5286770000000  0.5119810000000 1.0
C      1  0.4287310000000  0.5274840000000  0.4788590000000 1.0
C      1  0.4541430000000  0.5127990000000  0.4301800000000 1.0
C      1  0.4537520000000  0.5093560000000  0.5647010000000 1.0
C      1  0.4374600000000  0.5583380000000  0.4886150000000 1.0
C      1  0.4226650000000  0.5618580000000  0.5171210000000 1.0
C      1  0.4213370000000  0.4920140000000  0.5341920000000 1.0
C      1  0.4155960000000  0.5012720000000  0.4615160000000 1.0
C      1  0.4538030000000  0.5639040000000  0.5564870000000 1.0
C      1  0.4685880000000  0.5706910000000  0.4394500000000 1.0
C      1  0.4916960000000  0.4217830000000  0.4751810000000 1.0
C      1  0.5150890000000  0.4195560000000  0.5288690000000 1.0
C      1  0.4295200000000  0.5268160000000  0.4449390000000 1.0
C      1  0.4297740000000  0.5196310000000  0.5463180000000 1.0
C      1  0.5643240000000  0.4827300000000  0.4675810000000 1.0
C      1  0.5672060000000  0.4840860000000  0.5333170000000 1.0
C      1  0.5136090000000  0.5695870000000  0.4556720000000 1.0
C      1  0.5174880000000  0.5666470000000  0.5459330000000 1.0
C      1  0.5031740000000  0.5040200000000  0.4068760000000 1.0
C      1  0.5022820000000  0.5047080000000  0.5937260000000 1.0
C      1  0.4987040000000  0.4825470000000  0.5439570000000 1.0
C      1  0.4836180000000  0.4862780000000  0.4702750000000 1.0
C      1  0.5384460000000  0.4482090000000  0.4497010000000 1.0
C      1  0.5427800000000  0.4497260000000  0.5557670000000 1.0
C      1  0.5141370000000  0.4448200000000  0.4827720000000 1.0
C      1  0.5224520000000  0.4482080000000  0.5120970000000 1.0
C      1  0.4671550000000  0.4838550000000  0.4419280000000 1.0
C      1  0.4702990000000  0.4804930000000  0.5576870000000 1.0
C      1  0.4631630000000  0.4393510000000  0.4814260000000 1.0
C      1  0.4639030000000  0.4525080000000  0.5128840000000 1.0
C      1  0.4576870000000  0.4531550000000  0.4530980000000 1.0
C      1  0.4551970000000  0.4562550000000  0.5455560000000 1.0
C      1  0.4815720000000  0.5333080000000  0.4896870000000 1.0
C      1  0.4993080000000  0.5268270000000  0.5126730000000 1.0
C      1  0.5580360000000  0.5331100000000  0.5453420000000 1.0
C      1  0.5567000000000  0.5327790000000  0.4477390000000 1.0
C      1  0.4837090000000  0.3998620000000  0.4979480000000 1.0
C      1  0.4885010000000  0.4095290000000  0.5240460000000 1.0
C      1  0.5288210000000  0.5049200000000  0.4511410000000 1.0
C      1  0.5330990000000  0.5022630000000  0.5484260000000 1.0
C      1  0.5520280000000  0.4889490000000  0.5870740000000 1.0
C      1  0.5519740000000  0.4850330000000  0.4125630000000 1.0
C      1  0.5149100000000  0.5282550000000  0.5868670000000 1.0
C      1  0.5142380000000  0.5278790000000  0.4151740000000 1.0
C      1  0.5253960000000  0.4747790000000  0.5608450000000 1.0
C      1  0.5249530000000  0.4756610000000  0.4404960000000 1.0
C      1  0.4252360000000  0.4651730000000  0.5460440000000 1.0
C      1  0.4315700000000  0.4718380000000  0.4552120000000 1.0
C      1  0.5638640000000  0.5029840000000  0.5600070000000 1.0
C      1  0.5598760000000  0.4999650000000  0.4393940000000 1.0
C      1  0.4424890000000  0.5568750000000  0.4558500000000 1.0
C      1  0.4331270000000  0.5513450000000  0.5436840000000 1.0
C      1  0.5372170000000  0.5121660000000  0.5187860000000 1.0
C      1  0.5368570000000  0.5212610000000  0.4798560000000 1.0
C      1  0.4566870000000  0.4061820000000  0.4851510000000 1.0
C      1  0.4669490000000  0.4259130000000  0.5338710000000 1.0
C      1  0.5829180000000  0.5018480000000  0.4844160000000 1.0
C      1  0.5869540000000  0.4988120000000  0.5147420000000 1.0
C      1  0.5198280000000  0.4786930000000  0.4088370000000 1.0
C      1  0.5200930000000  0.4803820000000  0.5922390000000 1.0
C      1  0.4685030000000  0.5162830000000  0.5370900000000 1.0
C      1  0.4677080000000  0.5379180000000  0.4425600000000 1.0
C      1  0.4766570000000  0.4984670000000  0.4127110000000 1.0
C      1  0.4760840000000  0.4989400000000  0.5858810000000 1.0
C      1  0.5377980000000  0.4782110000000  0.5168180000000 1.0
C      1  0.5394090000000  0.4895310000000  0.4860860000000 1.0
C      1  0.5020730000000  0.4627510000000  0.4575630000000 1.0
C      1  0.4937470000000  0.4550270000000  0.5290110000000 1.0
C      1  0.4932880000000  0.5353740000000  0.5423170000000 1.0
C      1  0.4918340000000  0.5309770000000  0.4598790000000 1.0
C      1  0.5567520000000  0.5869140000000  0.5098140000000 1.0
C      1  0.5630820000000  0.5749670000000  0.4870390000000 1.0
C      1  0.5695580000000  0.5305780000000  0.4792670000000 1.0
C      1  0.5663550000000  0.5256960000000  0.5129630000000 1.0
C      1  0.5026210000000  0.4527650000000  0.5851040000000 1.0
C      1  0.4993260000000  0.4528300000000  0.4100200000000 1.0
C      1  0.4382070000000  0.4888820000000  0.4823800000000 1.0
C      1  0.4408330000000  0.4774510000000  0.5110070000000 1.0
C      1  0.5621820000000  0.4533980000000  0.5364430000000 1.0
C      1  0.5616570000000  0.4529960000000  0.4640430000000 1.0
C      1  0.5308760000000  0.5748980000000  0.5192750000000 1.0
C      1  0.5127210000000  0.5747240000000  0.4871160000000 1.0
C      1  0.4680180000000  0.5598560000000  0.4922800000000 1.0
END
