TITL C-2622954-8726-605 0.00252803409951062 125000 -479.279982455284 0 0 87 (C1) n - 1
REM
REM in /nfs/bkarasulu/CARBON/AIRSS/Generating-Clusters/AIREBO/with-SteepDescent/Higher-Symm/SD-CG/HFTN-CG
REM
REM
REM
REM
REM
REM ./C.cell (b20cbc046b6831c77cfcea5457e17084)
REM
REM compiler GCC version 9.2.1 20190827 (Red Hat 9.2.1-1)
REM options -cpp -mtune=generic -march=x86-64 -g -O0 -fpre-include=/usr/include/finclude/math-vector-fortran.h
REM seed 1465833611 576312549 158101456 -1975853637 1929933408 1168489930 2100583779 -306084040 1288922033 -546483867 -131845426 746668506 771006763 1938771482 478992750 -1536859475 1361931698 796510995 237339593 -1219930748 899153379 -1238964046 -965457308 -1008386379 -1161915499 -993753048 216850985 -1890860394 2043926013 125203863 1307113942 -1024532260 -1700281315
REM
CELL 1.54180   50.00000   50.00000   50.00000   90.00000   90.00000   90.00000
LATT -1
SFAC C  
C      1  0.4502620000000  0.5302450000000  0.5283010000000 1.0
C      1  0.5015070000000  0.4440900000000  0.5238460000000 1.0
C      1  0.5451960000000  0.5323320000000  0.5214210000000 1.0
C      1  0.4524150000000  0.5259840000000  0.4796960000000 1.0
C      1  0.5057260000000  0.4407220000000  0.4766840000000 1.0
C      1  0.5506690000000  0.5345300000000  0.4760140000000 1.0
C      1  0.4558060000000  0.4836550000000  0.5079290000000 1.0
C      1  0.5068540000000  0.5556160000000  0.5187930000000 1.0
C      1  0.5438960000000  0.4665490000000  0.5214400000000 1.0
C      1  0.4526190000000  0.4713890000000  0.4765710000000 1.0
C      1  0.5076590000000  0.5566560000000  0.4758240000000 1.0
C      1  0.5489970000000  0.4611930000000  0.4825330000000 1.0
C      1  0.4397300000000  0.4626480000000  0.5380610000000 1.0
C      1  0.5627560000000  0.4747240000000  0.5483260000000 1.0
C      1  0.4918580000000  0.5702420000000  0.5455090000000 1.0
C      1  0.4362300000000  0.4528620000000  0.4532080000000 1.0
C      1  0.5681820000000  0.4780740000000  0.4658410000000 1.0
C      1  0.4822450000000  0.5742020000000  0.4504920000000 1.0
C      1  0.4382470000000  0.5536520000000  0.5498450000000 1.0
C      1  0.5656340000000  0.5283130000000  0.5483030000000 1.0
C      1  0.4835040000000  0.4223700000000  0.5428450000000 1.0
C      1  0.4365040000000  0.5487730000000  0.4603030000000 1.0
C      1  0.5824830000000  0.5299600000000  0.4523620000000 1.0
C      1  0.4835790000000  0.4234900000000  0.4482200000000 1.0
C      1  0.5455680000000  0.5188770000000  0.5721540000000 1.0
C      1  0.4579680000000  0.5352070000000  0.5671700000000 1.0
C      1  0.4862000000000  0.4475730000000  0.5623410000000 1.0
C      1  0.5565810000000  0.5191450000000  0.4379020000000 1.0
C      1  0.4545780000000  0.5322800000000  0.4400920000000 1.0
C      1  0.4869140000000  0.4533010000000  0.4360440000000 1.0
C      1  0.5407860000000  0.4870820000000  0.5689150000000 1.0
C      1  0.4639860000000  0.4695810000000  0.5575550000000 1.0
C      1  0.4874280000000  0.5455470000000  0.5663550000000 1.0
C      1  0.5541260000000  0.4877380000000  0.4410980000000 1.0
C      1  0.4582590000000  0.4687220000000  0.4364520000000 1.0
C      1  0.4828590000000  0.5446930000000  0.4379540000000 1.0
C      1  0.5289570000000  0.4841570000000  0.4679600000000 1.0
C      1  0.5043530000000  0.5299960000000  0.4598210000000 1.0
C      1  0.4768650000000  0.4840960000000  0.4594460000000 1.0
C      1  0.5250450000000  0.4841090000000  0.5391250000000 1.0
C      1  0.5032400000000  0.5325270000000  0.5397330000000 1.0
C      1  0.4733690000000  0.4888640000000  0.5325970000000 1.0
C      1  0.5310190000000  0.5143760000000  0.4598160000000 1.0
C      1  0.5042120000000  0.4682140000000  0.4612650000000 1.0
C      1  0.4767760000000  0.5141860000000  0.4632780000000 1.0
C      1  0.5282370000000  0.5153410000000  0.5436490000000 1.0
C      1  0.4983690000000  0.4716530000000  0.5373100000000 1.0
C      1  0.4757570000000  0.5179160000000  0.5399660000000 1.0
C      1  0.5478000000000  0.5800940000000  0.5009710000000 1.0
C      1  0.4157800000000  0.4968690000000  0.5123810000000 1.0
C      1  0.5419180000000  0.4155940000000  0.5084800000000 1.0
C      1  0.5527310000000  0.5638240000000  0.4635660000000 1.0
C      1  0.4026210000000  0.4873010000000  0.4893790000000 1.0
C      1  0.5293010000000  0.4205560000000  0.4691220000000 1.0
C      1  0.5531830000000  0.3932520000000  0.5134700000000 1.0
C      1  0.4188810000000  0.4801990000000  0.5351320000000 1.0
C      1  0.5600640000000  0.6023860000000  0.5028540000000 1.0
C      1  0.5520300000000  0.4310300000000  0.4730170000000 1.0
C      1  0.4178870000000  0.4734900000000  0.4730590000000 1.0
C      1  0.5302660000000  0.5755860000000  0.4638820000000 1.0
C      1  0.4500890000000  0.4377220000000  0.4808230000000 1.0
C      1  0.5812820000000  0.4924250000000  0.4871880000000 1.0
C      1  0.4808940000000  0.5723910000000  0.4809110000000 1.0
C      1  0.4492360000000  0.4510510000000  0.5107650000000 1.0
C      1  0.5713120000000  0.4850310000000  0.5170650000000 1.0
C      1  0.4787760000000  0.5735980000000  0.5142680000000 1.0
C      1  0.4530710000000  0.5585680000000  0.4877760000000 1.0
C      1  0.5790650000000  0.5238450000000  0.4844710000000 1.0
C      1  0.4787360000000  0.4255600000000  0.4783840000000 1.0
C      1  0.4492620000000  0.5617710000000  0.5192050000000 1.0
C      1  0.5742340000000  0.5175960000000  0.5170990000000 1.0
C      1  0.4740670000000  0.4292930000000  0.5113700000000 1.0
C      1  0.4555190000000  0.4871370000000  0.5815850000000 1.0
C      1  0.5264530000000  0.4667780000000  0.5874510000000 1.0
C      1  0.5065320000000  0.5449100000000  0.5904280000000 1.0
C      1  0.4483140000000  0.4890380000000  0.4159230000000 1.0
C      1  0.5382380000000  0.4709060000000  0.4214430000000 1.0
C      1  0.5088440000000  0.5371200000000  0.4207620000000 1.0
C      1  0.4507600000000  0.5116390000000  0.5843270000000 1.0
C      1  0.5291480000000  0.5345060000000  0.5925590000000 1.0
C      1  0.5060960000000  0.4523640000000  0.5845230000000 1.0
C      1  0.4443230000000  0.5135950000000  0.4196800000000 1.0
C      1  0.5330340000000  0.5330740000000  0.4217670000000 1.0
C      1  0.5140560000000  0.4640500000000  0.4218060000000 1.0
C      1  0.5324630000000  0.5522040000000  0.4986620000000 1.0
C      1  0.5278480000000  0.4434100000000  0.5023720000000 1.0
C      1  0.4418770000000  0.5127810000000  0.5052350000000 1.0
END
