TITL C-2622967-6265-77 -4.9062033397617e-05 125000 -939.877589133929 0 0 175 (C1) n - 1
REM
REM in /nfs/bkarasulu/CARBON/AIRSS/Generating-Clusters/AIREBO/with-SteepDescent/Higher-Symm/SD-CG/HFTN-CG
REM
REM
REM
REM
REM
REM ./C.cell (b20cbc046b6831c77cfcea5457e17084)
REM
REM compiler GCC version 9.2.1 20190827 (Red Hat 9.2.1-1)
REM options -cpp -mtune=generic -march=x86-64 -g -O0 -fpre-include=/usr/include/finclude/math-vector-fortran.h
REM seed 1475087291 -1543362403 1787135762 -785947585 974204395 1958422938 -711394475 1453407661 -20212567 -1625819598 -1760118988 815953704 1211836881 -1579451055 -1719995106 1057122512 1686015418 1077096403 1315188523 1171035063 1738809764 1084656219 1491155206 -2138569129 -1858876478 1162338178 -1485496058 936771398 558118851 -181907528 2116522862 -814303148 -1045294311
REM
CELL 1.54180   50.00000   50.00000   50.00000   90.00000   90.00000   90.00000
LATT -1
SFAC C  
C      1  0.4852410000000  0.5810290000000  0.5526270000000 1.0
C      1  0.5579650000000  0.5548780000000  0.5609910000000 1.0
C      1  0.5734710000000  0.4930140000000  0.5609160000000 1.0
C      1  0.5390410000000  0.4422190000000  0.5631900000000 1.0
C      1  0.4797450000000  0.4273660000000  0.5685390000000 1.0
C      1  0.4223480000000  0.4723830000000  0.5563470000000 1.0
C      1  0.4207190000000  0.5445580000000  0.5589830000000 1.0
C      1  0.4669240000000  0.4985750000000  0.6128250000000 1.0
C      1  0.4803630000000  0.5214420000000  0.6228100000000 1.0
C      1  0.5015550000000  0.5316960000000  0.6068120000000 1.0
C      1  0.5244550000000  0.5162370000000  0.6039260000000 1.0
C      1  0.5249710000000  0.4912570000000  0.6170840000000 1.0
C      1  0.5063310000000  0.4716710000000  0.6087760000000 1.0
C      1  0.4797970000000  0.4740210000000  0.6182890000000 1.0
C      1  0.4311600000000  0.4864730000000  0.5270430000000 1.0
C      1  0.4487270000000  0.5426910000000  0.5208070000000 1.0
C      1  0.4977740000000  0.5652510000000  0.5272050000000 1.0
C      1  0.5558370000000  0.5416640000000  0.5307310000000 1.0
C      1  0.5664260000000  0.4826980000000  0.5292900000000 1.0
C      1  0.5266400000000  0.4408490000000  0.5315590000000 1.0
C      1  0.4708380000000  0.4374460000000  0.5281680000000 1.0
C      1  0.4661180000000  0.4923780000000  0.4994310000000 1.0
C      1  0.4777280000000  0.5191060000000  0.5070340000000 1.0
C      1  0.5035090000000  0.5348770000000  0.5023640000000 1.0
C      1  0.5289690000000  0.5216900000000  0.5091780000000 1.0
C      1  0.5350990000000  0.4925930000000  0.5062820000000 1.0
C      1  0.5142030000000  0.4716050000000  0.5092830000000 1.0
C      1  0.4840460000000  0.4708850000000  0.5107960000000 1.0
C      1  0.4834730000000  0.4759990000000  0.4100300000000 1.0
C      1  0.4703530000000  0.5017460000000  0.4034480000000 1.0
C      1  0.4847730000000  0.5259400000000  0.4129110000000 1.0
C      1  0.5100750000000  0.5313270000000  0.3996140000000 1.0
C      1  0.5326850000000  0.5156370000000  0.4106160000000 1.0
C      1  0.5329190000000  0.4856740000000  0.4057360000000 1.0
C      1  0.5085970000000  0.4699460000000  0.3967070000000 1.0
C      1  0.4799690000000  0.6075880000000  0.5132850000000 1.0
C      1  0.5758380000000  0.5760340000000  0.5271740000000 1.0
C      1  0.6087260000000  0.4854620000000  0.5089890000000 1.0
C      1  0.5641420000000  0.4048300000000  0.5149880000000 1.0
C      1  0.4726830000000  0.3901310000000  0.5206970000000 1.0
C      1  0.4000640000000  0.4405990000000  0.5219890000000 1.0
C      1  0.4023850000000  0.5493630000000  0.5137630000000 1.0
C      1  0.4806120000000  0.5687120000000  0.4417180000000 1.0
C      1  0.5352990000000  0.5621670000000  0.4471370000000 1.0
C      1  0.5702310000000  0.4985060000000  0.4410580000000 1.0
C      1  0.5452730000000  0.4469080000000  0.4402330000000 1.0
C      1  0.4921600000000  0.4316800000000  0.4415810000000 1.0
C      1  0.4407890000000  0.4582350000000  0.4498790000000 1.0
C      1  0.4358300000000  0.5284960000000  0.4519600000000 1.0
C      1  0.5612020000000  0.4726770000000  0.3971200000000 1.0
C      1  0.5157020000000  0.4425770000000  0.3984910000000 1.0
C      1  0.4647230000000  0.4499350000000  0.4189740000000 1.0
C      1  0.4434500000000  0.5000440000000  0.4113960000000 1.0
C      1  0.4610520000000  0.5481730000000  0.4134000000000 1.0
C      1  0.5138220000000  0.5593440000000  0.4010310000000 1.0
C      1  0.5595020000000  0.5330910000000  0.4060860000000 1.0
C      1  0.4384860000000  0.4723060000000  0.4195850000000 1.0
C      1  0.4376330000000  0.5281000000000  0.4187430000000 1.0
C      1  0.4869000000000  0.5698430000000  0.4086980000000 1.0
C      1  0.5414130000000  0.5625370000000  0.4068880000000 1.0
C      1  0.5696520000000  0.5008520000000  0.4101540000000 1.0
C      1  0.5449200000000  0.4450580000000  0.4069850000000 1.0
C      1  0.4920030000000  0.4299920000000  0.4094260000000 1.0
C      1  0.4199220000000  0.5706590000000  0.4641100000000 1.0
C      1  0.5130870000000  0.6070400000000  0.4766760000000 1.0
C      1  0.5709500000000  0.5601670000000  0.4640140000000 1.0
C      1  0.5967990000000  0.4731910000000  0.4615610000000 1.0
C      1  0.5396090000000  0.4013560000000  0.4648260000000 1.0
C      1  0.4552930000000  0.4098610000000  0.4711490000000 1.0
C      1  0.3958780000000  0.4813590000000  0.4670140000000 1.0
C      1  0.5258910000000  0.4296290000000  0.4893810000000 1.0
C      1  0.4629780000000  0.4438160000000  0.4902200000000 1.0
C      1  0.4286440000000  0.4880460000000  0.4873340000000 1.0
C      1  0.4493700000000  0.5512160000000  0.4819790000000 1.0
C      1  0.5178580000000  0.5689890000000  0.4873230000000 1.0
C      1  0.5621230000000  0.5350760000000  0.4912590000000 1.0
C      1  0.5628420000000  0.4720310000000  0.4861100000000 1.0
C      1  0.4487330000000  0.5598740000000  0.4496140000000 1.0
C      1  0.5089360000000  0.5806490000000  0.4562890000000 1.0
C      1  0.5644920000000  0.5557730000000  0.4309230000000 1.0
C      1  0.5644700000000  0.4688640000000  0.4531230000000 1.0
C      1  0.5218960000000  0.4283960000000  0.4556380000000 1.0
C      1  0.4594580000000  0.4322150000000  0.4475240000000 1.0
C      1  0.4227950000000  0.4979160000000  0.4558850000000 1.0
C      1  0.5099120000000  0.3957980000000  0.4754730000000 1.0
C      1  0.4280900000000  0.4251860000000  0.4846270000000 1.0
C      1  0.3957530000000  0.5120380000000  0.4817080000000 1.0
C      1  0.4432860000000  0.5904930000000  0.4788370000000 1.0
C      1  0.5405240000000  0.6017490000000  0.4840070000000 1.0
C      1  0.5909070000000  0.5364530000000  0.4741710000000 1.0
C      1  0.5890790000000  0.4445830000000  0.4728170000000 1.0
C      1  0.4420770000000  0.5753900000000  0.5274260000000 1.0
C      1  0.5270330000000  0.5973430000000  0.5361340000000 1.0
C      1  0.5894950000000  0.5449360000000  0.5270370000000 1.0
C      1  0.5894580000000  0.4577050000000  0.5303610000000 1.0
C      1  0.5206760000000  0.4074480000000  0.5338810000000 1.0
C      1  0.4436530000000  0.4219670000000  0.5366900000000 1.0
C      1  0.4040170000000  0.5060600000000  0.5330470000000 1.0
C      1  0.5639070000000  0.5877900000000  0.5557550000000 1.0
C      1  0.6052060000000  0.4868820000000  0.5380400000000 1.0
C      1  0.5536100000000  0.4127460000000  0.5404840000000 1.0
C      1  0.4693340000000  0.4031270000000  0.5486500000000 1.0
C      1  0.4026460000000  0.4466750000000  0.5496880000000 1.0
C      1  0.4153540000000  0.5598490000000  0.5355550000000 1.0
C      1  0.4977560000000  0.6042910000000  0.5353610000000 1.0
C      1  0.4671480000000  0.5152630000000  0.4526990000000 1.0
C      1  0.4914470000000  0.5365880000000  0.4445060000000 1.0
C      1  0.5245510000000  0.5323390000000  0.4510590000000 1.0
C      1  0.5364010000000  0.5017580000000  0.4420700000000 1.0
C      1  0.5226250000000  0.4716100000000  0.4344880000000 1.0
C      1  0.4961050000000  0.4642780000000  0.4458390000000 1.0
C      1  0.4736260000000  0.4873770000000  0.4405650000000 1.0
C      1  0.4343610000000  0.4424380000000  0.5614060000000 1.0
C      1  0.4122920000000  0.5174110000000  0.5592240000000 1.0
C      1  0.4561110000000  0.5756320000000  0.5557200000000 1.0
C      1  0.5323530000000  0.5769020000000  0.5628200000000 1.0
C      1  0.5930920000000  0.5175770000000  0.5469650000000 1.0
C      1  0.5710190000000  0.4397780000000  0.5518960000000 1.0
C      1  0.5023570000000  0.4045690000000  0.5587700000000 1.0
C      1  0.5509490000000  0.4566650000000  0.5137920000000 1.0
C      1  0.5001800000000  0.4344630000000  0.5111620000000 1.0
C      1  0.4465940000000  0.4581400000000  0.5162480000000 1.0
C      1  0.4339770000000  0.5145320000000  0.5079990000000 1.0
C      1  0.4723400000000  0.5613720000000  0.5049350000000 1.0
C      1  0.5303510000000  0.5602460000000  0.5177240000000 1.0
C      1  0.5675840000000  0.5137260000000  0.5152730000000 1.0
C      1  0.4847450000000  0.4637660000000  0.4774290000000 1.0
C      1  0.4563380000000  0.4806170000000  0.4690570000000 1.0
C      1  0.4715870000000  0.5311960000000  0.4787830000000 1.0
C      1  0.4975600000000  0.5479880000000  0.4758220000000 1.0
C      1  0.5375250000000  0.5202780000000  0.4774400000000 1.0
C      1  0.5349940000000  0.4866710000000  0.4732100000000 1.0
C      1  0.5169650000000  0.4588150000000  0.4809640000000 1.0
C      1  0.5039940000000  0.3950730000000  0.5068920000000 1.0
C      1  0.4219030000000  0.4216840000000  0.5130300000000 1.0
C      1  0.3939540000000  0.5203380000000  0.5103200000000 1.0
C      1  0.4499850000000  0.5971270000000  0.5078420000000 1.0
C      1  0.5480090000000  0.5956710000000  0.5136180000000 1.0
C      1  0.6037290000000  0.5419550000000  0.5016380000000 1.0
C      1  0.5903350000000  0.4421310000000  0.5030890000000 1.0
C      1  0.4927710000000  0.5443990000000  0.5836020000000 1.0
C      1  0.5380680000000  0.5170530000000  0.5766450000000 1.0
C      1  0.5368100000000  0.4832770000000  0.5729140000000 1.0
C      1  0.5081300000000  0.4652080000000  0.5764440000000 1.0
C      1  0.4744760000000  0.4738590000000  0.5753390000000 1.0
C      1  0.4569300000000  0.5015420000000  0.5831800000000 1.0
C      1  0.4672960000000  0.5296710000000  0.5708370000000 1.0
C      1  0.4590740000000  0.4455250000000  0.5790150000000 1.0
C      1  0.4273370000000  0.4973800000000  0.5736670000000 1.0
C      1  0.4460150000000  0.5521930000000  0.5696270000000 1.0
C      1  0.5043130000000  0.5675420000000  0.5721950000000 1.0
C      1  0.5696780000000  0.5254820000000  0.5702880000000 1.0
C      1  0.5632130000000  0.4637850000000  0.5746730000000 1.0
C      1  0.5120360000000  0.4314470000000  0.5775600000000 1.0
C      1  0.5344580000000  0.4873990000000  0.5398830000000 1.0
C      1  0.5080780000000  0.4671690000000  0.5424920000000 1.0
C      1  0.4752930000000  0.4674870000000  0.5430090000000 1.0
C      1  0.4613410000000  0.4945610000000  0.5333790000000 1.0
C      1  0.4711060000000  0.5255220000000  0.5397980000000 1.0
C      1  0.5027030000000  0.5341900000000  0.5363490000000 1.0
C      1  0.5328080000000  0.5198460000000  0.5429840000000 1.0
C      1  0.5584210000000  0.5664970000000  0.4995720000000 1.0
C      1  0.5830370000000  0.4935160000000  0.4941400000000 1.0
C      1  0.5594350000000  0.4296510000000  0.4949590000000 1.0
C      1  0.4774400000000  0.4137290000000  0.4966800000000 1.0
C      1  0.4168450000000  0.4595600000000  0.5015450000000 1.0
C      1  0.4226640000000  0.5401300000000  0.4908140000000 1.0
C      1  0.4892320000000  0.5870830000000  0.4904290000000 1.0
C      1  0.4692040000000  0.5900490000000  0.4656200000000 1.0
C      1  0.5524480000000  0.5856770000000  0.4650810000000 1.0
C      1  0.5896230000000  0.5063950000000  0.4659740000000 1.0
C      1  0.5626560000000  0.4265780000000  0.4612480000000 1.0
C      1  0.4872030000000  0.4032810000000  0.4596080000000 1.0
C      1  0.4159450000000  0.4534580000000  0.4691580000000 1.0
C      1  0.4056930000000  0.5391880000000  0.4635190000000 1.0
END
