TITL C-2622964-2985-514 0.00304885770068714 125000 -878.079681877511 0 0 170 (C1) n - 1
REM
REM in /nfs/bkarasulu/CARBON/AIRSS/Generating-Clusters/AIREBO/with-SteepDescent/Higher-Symm/SD-CG/HFTN-CG
REM
REM
REM
REM
REM
REM ./C.cell (b20cbc046b6831c77cfcea5457e17084)
REM
REM compiler GCC version 9.2.1 20190827 (Red Hat 9.2.1-1)
REM options -cpp -mtune=generic -march=x86-64 -g -O0 -fpre-include=/usr/include/finclude/math-vector-fortran.h
REM seed 160113554 349142032 -1688644079 1323647759 21472602 761051312 1028248734 -735710067 -999156094 -92823505 -1892231978 -291608055 -1272344682 955372044 -738539594 448957814 211409649 1876508375 -46091491 876585063 28660189 1721407521 561483643 -12338671 -1751237738 1471710113 908767550 1704905953 515779141 -859669917 -1132044813 100073617 -1163460507
REM
CELL 1.54180   50.00000   50.00000   50.00000   90.00000   90.00000   90.00000
LATT -1
SFAC C  
C      1  0.5288720000000  0.4240350000000  0.5633290000000 1.0
C      1  0.5266230000000  0.5661310000000  0.5715240000000 1.0
C      1  0.5203160000000  0.5750160000000  0.4370420000000 1.0
C      1  0.5252020000000  0.4356700000000  0.4330640000000 1.0
C      1  0.4741480000000  0.4265570000000  0.4373020000000 1.0
C      1  0.4729010000000  0.5634830000000  0.4251860000000 1.0
C      1  0.4743930000000  0.5747710000000  0.5632980000000 1.0
C      1  0.4751580000000  0.4354840000000  0.5666870000000 1.0
C      1  0.5072000000000  0.6101640000000  0.4853400000000 1.0
C      1  0.5110890000000  0.4887770000000  0.4033090000000 1.0
C      1  0.5154380000000  0.3942100000000  0.5096880000000 1.0
C      1  0.5086660000000  0.5148650000000  0.6072810000000 1.0
C      1  0.4901150000000  0.6074820000000  0.5113780000000 1.0
C      1  0.4892110000000  0.4868210000000  0.6036780000000 1.0
C      1  0.4888060000000  0.3923020000000  0.4881950000000 1.0
C      1  0.4864710000000  0.5111760000000  0.3962890000000 1.0
C      1  0.3847090000000  0.4809700000000  0.4688430000000 1.0
C      1  0.3858010000000  0.4753730000000  0.5192990000000 1.0
C      1  0.3911280000000  0.5203400000000  0.5205650000000 1.0
C      1  0.3993420000000  0.5230930000000  0.4745190000000 1.0
C      1  0.6040140000000  0.4763260000000  0.5214790000000 1.0
C      1  0.6107100000000  0.4805040000000  0.4772920000000 1.0
C      1  0.6088010000000  0.5228940000000  0.4736530000000 1.0
C      1  0.6025630000000  0.5246340000000  0.5269170000000 1.0
C      1  0.5121160000000  0.5877810000000  0.5627130000000 1.0
C      1  0.5105410000000  0.5675730000000  0.4123300000000 1.0
C      1  0.5167100000000  0.4140730000000  0.4519680000000 1.0
C      1  0.5125970000000  0.4344290000000  0.5837480000000 1.0
C      1  0.4824370000000  0.5884080000000  0.4324420000000 1.0
C      1  0.4896000000000  0.5651590000000  0.5864550000000 1.0
C      1  0.4800000000000  0.4113270000000  0.5476200000000 1.0
C      1  0.4889650000000  0.4372620000000  0.4163560000000 1.0
C      1  0.5530410000000  0.5178720000000  0.4652320000000 1.0
C      1  0.5566420000000  0.4527200000000  0.4821230000000 1.0
C      1  0.5567660000000  0.4789620000000  0.5396200000000 1.0
C      1  0.5577760000000  0.5330750000000  0.5155850000000 1.0
C      1  0.4457660000000  0.5224810000000  0.5372800000000 1.0
C      1  0.4419420000000  0.4620070000000  0.5151900000000 1.0
C      1  0.4388530000000  0.4836190000000  0.4640120000000 1.0
C      1  0.4471730000000  0.5398380000000  0.4836620000000 1.0
C      1  0.5126330000000  0.5429930000000  0.4875420000000 1.0
C      1  0.5047470000000  0.4737660000000  0.4588660000000 1.0
C      1  0.5052040000000  0.4491230000000  0.5236580000000 1.0
C      1  0.5077040000000  0.5196670000000  0.5543330000000 1.0
C      1  0.4964740000000  0.5522610000000  0.5229270000000 1.0
C      1  0.4918590000000  0.4831990000000  0.5547160000000 1.0
C      1  0.4904430000000  0.4477920000000  0.4867460000000 1.0
C      1  0.4909050000000  0.5106910000000  0.4541830000000 1.0
C      1  0.5230720000000  0.5090660000000  0.5279310000000 1.0
C      1  0.5225990000000  0.5140420000000  0.4966860000000 1.0
C      1  0.5250580000000  0.4867320000000  0.4815210000000 1.0
C      1  0.5198840000000  0.4783060000000  0.5142050000000 1.0
C      1  0.4779730000000  0.5130840000000  0.4855380000000 1.0
C      1  0.4809720000000  0.5223010000000  0.5185660000000 1.0
C      1  0.4681800000000  0.4919140000000  0.5176140000000 1.0
C      1  0.4779090000000  0.4792980000000  0.4894440000000 1.0
C      1  0.4754500000000  0.5127670000000  0.5507550000000 1.0
C      1  0.4803900000000  0.5458460000000  0.4767490000000 1.0
C      1  0.4719160000000  0.4821820000000  0.4560980000000 1.0
C      1  0.4724250000000  0.4475770000000  0.5156360000000 1.0
C      1  0.5221910000000  0.5240510000000  0.4522780000000 1.0
C      1  0.5287590000000  0.5478630000000  0.5171050000000 1.0
C      1  0.5240480000000  0.4746130000000  0.5478270000000 1.0
C      1  0.5240170000000  0.4441540000000  0.4772550000000 1.0
C      1  0.5691300000000  0.5516050000000  0.4516920000000 1.0
C      1  0.5771620000000  0.4552060000000  0.4480350000000 1.0
C      1  0.5797200000000  0.4465320000000  0.5432830000000 1.0
C      1  0.5766100000000  0.5445490000000  0.5498980000000 1.0
C      1  0.4223210000000  0.5532690000000  0.5473910000000 1.0
C      1  0.4228900000000  0.4571010000000  0.5500860000000 1.0
C      1  0.4232400000000  0.4485790000000  0.4534080000000 1.0
C      1  0.4227830000000  0.5454360000000  0.4512050000000 1.0
C      1  0.4398210000000  0.5411680000000  0.5137780000000 1.0
C      1  0.4496600000000  0.5126460000000  0.4693300000000 1.0
C      1  0.4243400000000  0.4825250000000  0.4945570000000 1.0
C      1  0.4406480000000  0.4892910000000  0.5344640000000 1.0
C      1  0.5737400000000  0.5178060000000  0.4922160000000 1.0
C      1  0.5532620000000  0.5110800000000  0.5374610000000 1.0
C      1  0.5574860000000  0.4658770000000  0.5130440000000 1.0
C      1  0.5568700000000  0.4846950000000  0.4705650000000 1.0
C      1  0.4399590000000  0.5052030000000  0.4075570000000 1.0
C      1  0.4483780000000  0.4132670000000  0.5029100000000 1.0
C      1  0.4442030000000  0.4953060000000  0.5860800000000 1.0
C      1  0.4577830000000  0.5885770000000  0.4973850000000 1.0
C      1  0.5471090000000  0.4971520000000  0.5876260000000 1.0
C      1  0.5610940000000  0.4107660000000  0.5035520000000 1.0
C      1  0.5561130000000  0.4959200000000  0.4147680000000 1.0
C      1  0.5473500000000  0.5892530000000  0.5015040000000 1.0
C      1  0.5043750000000  0.4160580000000  0.5314730000000 1.0
C      1  0.4979790000000  0.5353400000000  0.5831000000000 1.0
C      1  0.4928730000000  0.5941020000000  0.4593640000000 1.0
C      1  0.4999970000000  0.4658210000000  0.4258090000000 1.0
C      1  0.4935960000000  0.4178710000000  0.4708830000000 1.0
C      1  0.4995500000000  0.5404380000000  0.4066300000000 1.0
C      1  0.5029920000000  0.5842170000000  0.5325710000000 1.0
C      1  0.5041200000000  0.4659520000000  0.5813420000000 1.0
C      1  0.5530050000000  0.5806720000000  0.4445000000000 1.0
C      1  0.5565740000000  0.4442380000000  0.4231430000000 1.0
C      1  0.5610080000000  0.4198390000000  0.5530340000000 1.0
C      1  0.5571440000000  0.5529800000000  0.5769280000000 1.0
C      1  0.4435430000000  0.5796660000000  0.5533250000000 1.0
C      1  0.4438600000000  0.4458530000000  0.5750110000000 1.0
C      1  0.4424340000000  0.4214840000000  0.4460970000000 1.0
C      1  0.4413810000000  0.5536280000000  0.4239320000000 1.0
C      1  0.5377640000000  0.6137640000000  0.4946180000000 1.0
C      1  0.5346100000000  0.5084330000000  0.4050930000000 1.0
C      1  0.5412720000000  0.3948750000000  0.4913650000000 1.0
C      1  0.5378790000000  0.5058400000000  0.6116520000000 1.0
C      1  0.4585990000000  0.6164050000000  0.5053940000000 1.0
C      1  0.4644740000000  0.5066860000000  0.6022100000000 1.0
C      1  0.4596580000000  0.3891170000000  0.4964910000000 1.0
C      1  0.4628660000000  0.4912290000000  0.4017100000000 1.0
C      1  0.4516770000000  0.4829450000000  0.5634560000000 1.0
C      1  0.4517350000000  0.5696010000000  0.5156460000000 1.0
C      1  0.4445570000000  0.5159300000000  0.4362810000000 1.0
C      1  0.4452340000000  0.4345980000000  0.4836720000000 1.0
C      1  0.5512250000000  0.4827030000000  0.4370890000000 1.0
C      1  0.5505190000000  0.5685460000000  0.4824330000000 1.0
C      1  0.5451330000000  0.5163280000000  0.5678560000000 1.0
C      1  0.5521220000000  0.4324500000000  0.5161780000000 1.0
C      1  0.4140190000000  0.5195780000000  0.5456940000000 1.0
C      1  0.4144400000000  0.5491130000000  0.4840380000000 1.0
C      1  0.4082110000000  0.4790090000000  0.4499010000000 1.0
C      1  0.4097280000000  0.4529870000000  0.5185190000000 1.0
C      1  0.5850190000000  0.5214510000000  0.4541870000000 1.0
C      1  0.5860840000000  0.5510890000000  0.5175360000000 1.0
C      1  0.5894340000000  0.4787630000000  0.5502860000000 1.0
C      1  0.5916240000000  0.4541860000000  0.4787870000000 1.0
C      1  0.4441470000000  0.4505050000000  0.4272480000000 1.0
C      1  0.4343850000000  0.4265370000000  0.5494710000000 1.0
C      1  0.4438560000000  0.5513410000000  0.5721810000000 1.0
C      1  0.4454620000000  0.5706930000000  0.4531560000000 1.0
C      1  0.5588770000000  0.4495050000000  0.5699870000000 1.0
C      1  0.5645820000000  0.4241110000000  0.4493610000000 1.0
C      1  0.5506920000000  0.5527020000000  0.4243380000000 1.0
C      1  0.5589380000000  0.5734760000000  0.5498380000000 1.0
C      1  0.4715530000000  0.5960080000000  0.5381190000000 1.0
C      1  0.4657630000000  0.5368080000000  0.4053470000000 1.0
C      1  0.4672480000000  0.4025080000000  0.4603260000000 1.0
C      1  0.4716860000000  0.4601610000000  0.5898240000000 1.0
C      1  0.5267710000000  0.5964580000000  0.4606270000000 1.0
C      1  0.5294980000000  0.5412880000000  0.5944140000000 1.0
C      1  0.5346410000000  0.4032820000000  0.5370120000000 1.0
C      1  0.5289230000000  0.4594790000000  0.4090720000000 1.0
C      1  0.5378410000000  0.4706170000000  0.5785280000000 1.0
C      1  0.5366920000000  0.5792060000000  0.5276310000000 1.0
C      1  0.5274320000000  0.5325410000000  0.4214410000000 1.0
C      1  0.5423250000000  0.4167490000000  0.4688070000000 1.0
C      1  0.4667280000000  0.4718460000000  0.4241150000000 1.0
C      1  0.4690110000000  0.5775480000000  0.4721020000000 1.0
C      1  0.4649520000000  0.5287120000000  0.5788970000000 1.0
C      1  0.4562690000000  0.4215710000000  0.5304570000000 1.0
C      1  0.4709460000000  0.5357180000000  0.4447130000000 1.0
C      1  0.4670820000000  0.4488020000000  0.4620560000000 1.0
C      1  0.4713700000000  0.4606040000000  0.5470470000000 1.0
C      1  0.4697420000000  0.5566650000000  0.5353160000000 1.0
C      1  0.5299530000000  0.5413060000000  0.5504540000000 1.0
C      1  0.5326760000000  0.4432190000000  0.5380200000000 1.0
C      1  0.5320950000000  0.4617820000000  0.4493180000000 1.0
C      1  0.5286770000000  0.5555100000000  0.4634730000000 1.0
C      1  0.5875120000000  0.4866400000000  0.4559510000000 1.0
C      1  0.5865270000000  0.4507830000000  0.5102260000000 1.0
C      1  0.5838090000000  0.5113190000000  0.5499360000000 1.0
C      1  0.5761400000000  0.5505670000000  0.4848940000000 1.0
C      1  0.4077450000000  0.4862190000000  0.5411690000000 1.0
C      1  0.4182060000000  0.4512540000000  0.4853860000000 1.0
C      1  0.4150700000000  0.5123350000000  0.4497820000000 1.0
C      1  0.4083300000000  0.5468130000000  0.5170770000000 1.0
C      1  0.3943310000000  0.4984120000000  0.4964010000000 1.0
C      1  0.6033270000000  0.5036050000000  0.5011230000000 1.0
END
