TITL C-2622961-1971-255 -5.93263223288673e-07 125000 -178.16366114746 0 0 30 (D3) n - 1
REM
REM in /nfs/bkarasulu/CARBON/AIRSS/Generating-Clusters/AIREBO/with-SteepDescent/Higher-Symm/SD-CG/HFTN-CG
REM
REM
REM
REM
REM
REM ./C.cell (b20cbc046b6831c77cfcea5457e17084)
REM
REM compiler GCC version 9.2.1 20190827 (Red Hat 9.2.1-1)
REM options -cpp -mtune=generic -march=x86-64 -g -O0 -fpre-include=/usr/include/finclude/math-vector-fortran.h
REM seed -1303990674 449889867 -2048872456 -665075681 271899577 -1562101027 -1913605369 970558222 -792442406 1095154796 -1251124604 1428002868 83632166 -1760383755 24655839 1308966480 2042668426 2085870831 2072700916 1614944587 -471228358 -154705619 1575310609 1414739131 2061243920 854820612 -1937373829 -18504464 -2034335148 -1928907835 -2115379629 -1932828834 2048725145
REM
CELL 1.54180   50.00000   50.00000   50.00000   90.00000   90.00000   90.00000
LATT -1
SFAC C  
C      1  0.5276550000000  0.4602880000000  0.5387590000000 1.0
C      1  0.5282230000000  0.5122010000000  0.5553000000000 1.0
C      1  0.5276040000000  0.5534460000000  0.5150160000000 1.0
C      1  0.5281920000000  0.5418150000000  0.4617880000000 1.0
C      1  0.5276250000000  0.4863050000000  0.4462110000000 1.0
C      1  0.5282430000000  0.4460240000000  0.4828980000000 1.0
C      1  0.5277720000000  0.5349500000000  0.5336190000000 1.0
C      1  0.5286140000000  0.4856480000000  0.5575970000000 1.0
C      1  0.5278090000000  0.4534260000000  0.5134400000000 1.0
C      1  0.5286110000000  0.4573120000000  0.4587530000000 1.0
C      1  0.5277690000000  0.5116640000000  0.4529270000000 1.0
C      1  0.5285660000000  0.5570810000000  0.4836350000000 1.0
C      1  0.4738280000000  0.5417670000000  0.5382350000000 1.0
C      1  0.4744040000000  0.5534280000000  0.4850130000000 1.0
C      1  0.4738260000000  0.5122050000000  0.4447070000000 1.0
C      1  0.4744460000000  0.4602830000000  0.4612190000000 1.0
C      1  0.4738720000000  0.4459880000000  0.5170730000000 1.0
C      1  0.4744490000000  0.4862500000000  0.5537820000000 1.0
C      1  0.4734930000000  0.4572620000000  0.5412230000000 1.0
C      1  0.4742980000000  0.4534070000000  0.4865350000000 1.0
C      1  0.4734610000000  0.4856520000000  0.4423950000000 1.0
C      1  0.4742540000000  0.5349420000000  0.4664000000000 1.0
C      1  0.4734390000000  0.5570450000000  0.5163960000000 1.0
C      1  0.4742800000000  0.5116110000000  0.5470790000000 1.0
C      1  0.5010060000000  0.5308030000000  0.4466810000000 1.0
C      1  0.5009980000000  0.5663380000000  0.5000180000000 1.0
C      1  0.5010370000000  0.4668470000000  0.4425410000000 1.0
C      1  0.5010610000000  0.4384230000000  0.4999830000000 1.0
C      1  0.5010570000000  0.4668150000000  0.5574410000000 1.0
C      1  0.5010250000000  0.5307740000000  0.5533360000000 1.0
END
