TITL C-2622966-9038-43 -0.00194380024867561 125000 -972.846014229137 0 0 180 (C1) n - 1
REM
REM in /nfs/bkarasulu/CARBON/AIRSS/Generating-Clusters/AIREBO/with-SteepDescent/Higher-Symm/SD-CG/HFTN-CG
REM
REM
REM
REM
REM
REM ./C.cell (b20cbc046b6831c77cfcea5457e17084)
REM
REM compiler GCC version 9.2.1 20190827 (Red Hat 9.2.1-1)
REM options -cpp -mtune=generic -march=x86-64 -g -O0 -fpre-include=/usr/include/finclude/math-vector-fortran.h
REM seed 2021547107 -170617126 1988014084 374029572 1935504925 526437377 -1251348606 461750530 -1211635130 -478092723 377917897 -1505296145 -438327865 -1213058072 -1639006143 -917985007 1084794483 947558006 1544218147 145862216 1473104152 -1841432871 -1505000756 854402591 -2063830315 1847876355 -1954964414 -2084334562 1465838760 1611412499 -1353458033 1838922061 730135729
REM
CELL 1.54180   50.00000   50.00000   50.00000   90.00000   90.00000   90.00000
LATT -1
SFAC C  
C      1  0.5082740000000  0.4288200000000  0.5333650000000 1.0
C      1  0.4322730000000  0.4671660000000  0.5341830000000 1.0
C      1  0.4516870000000  0.5490210000000  0.5326560000000 1.0
C      1  0.5320880000000  0.5658970000000  0.5324150000000 1.0
C      1  0.5717600000000  0.4831660000000  0.5349810000000 1.0
C      1  0.4388860000000  0.5374590000000  0.4743850000000 1.0
C      1  0.5196480000000  0.5815510000000  0.4846760000000 1.0
C      1  0.5768360000000  0.5066640000000  0.4879150000000 1.0
C      1  0.5251990000000  0.4215680000000  0.4781650000000 1.0
C      1  0.4306670000000  0.4400570000000  0.4827540000000 1.0
C      1  0.5381840000000  0.4827160000000  0.5703850000000 1.0
C      1  0.4870490000000  0.4568420000000  0.5698510000000 1.0
C      1  0.4472240000000  0.4949720000000  0.5661600000000 1.0
C      1  0.4822930000000  0.5323560000000  0.5694050000000 1.0
C      1  0.5429560000000  0.5315670000000  0.5675990000000 1.0
C      1  0.6178880000000  0.4698430000000  0.5124770000000 1.0
C      1  0.5008310000000  0.3973110000000  0.4982230000000 1.0
C      1  0.3952600000000  0.4539980000000  0.5282560000000 1.0
C      1  0.4505510000000  0.5801610000000  0.5078100000000 1.0
C      1  0.5583850000000  0.5783440000000  0.4932410000000 1.0
C      1  0.5115480000000  0.5994310000000  0.5301410000000 1.0
C      1  0.6050400000000  0.5201620000000  0.5303740000000 1.0
C      1  0.5451580000000  0.4155880000000  0.5258510000000 1.0
C      1  0.4343720000000  0.4201150000000  0.5269370000000 1.0
C      1  0.4088220000000  0.5503650000000  0.5273280000000 1.0
C      1  0.5713570000000  0.5978770000000  0.4722750000000 1.0
C      1  0.5887370000000  0.4691840000000  0.4949780000000 1.0
C      1  0.4962400000000  0.3908510000000  0.4698930000000 1.0
C      1  0.4067720000000  0.4674210000000  0.4986790000000 1.0
C      1  0.4261740000000  0.5848530000000  0.4861010000000 1.0
C      1  0.4780070000000  0.5174530000000  0.3779630000000 1.0
C      1  0.5064620000000  0.5291600000000  0.3810420000000 1.0
C      1  0.5245960000000  0.5082570000000  0.3710970000000 1.0
C      1  0.5110120000000  0.4832440000000  0.3798310000000 1.0
C      1  0.4834330000000  0.4893600000000  0.3701320000000 1.0
C      1  0.4270300000000  0.4138630000000  0.4686300000000 1.0
C      1  0.4080130000000  0.5352340000000  0.4702350000000 1.0
C      1  0.5100790000000  0.6042730000000  0.4664090000000 1.0
C      1  0.5918540000000  0.5266990000000  0.4693360000000 1.0
C      1  0.5532790000000  0.4119000000000  0.4691390000000 1.0
C      1  0.4474740000000  0.5155680000000  0.5932240000000 1.0
C      1  0.5000000000000  0.5547270000000  0.5973980000000 1.0
C      1  0.5532820000000  0.5262180000000  0.5991880000000 1.0
C      1  0.5333810000000  0.4567790000000  0.6003120000000 1.0
C      1  0.4655820000000  0.4568770000000  0.5962280000000 1.0
C      1  0.5062010000000  0.4030290000000  0.5828150000000 1.0
C      1  0.4103440000000  0.4538730000000  0.5565160000000 1.0
C      1  0.4425320000000  0.5720570000000  0.5566930000000 1.0
C      1  0.5526150000000  0.5750950000000  0.5741830000000 1.0
C      1  0.5865790000000  0.4806600000000  0.5648920000000 1.0
C      1  0.4999290000000  0.4127360000000  0.4485410000000 1.0
C      1  0.4119400000000  0.4704160000000  0.4651690000000 1.0
C      1  0.4398700000000  0.5851960000000  0.4618660000000 1.0
C      1  0.5589980000000  0.5719050000000  0.4541420000000 1.0
C      1  0.5918450000000  0.4751730000000  0.4637190000000 1.0
C      1  0.5138230000000  0.4679060000000  0.5299730000000 1.0
C      1  0.4802810000000  0.4624040000000  0.5257390000000 1.0
C      1  0.4612980000000  0.5110490000000  0.5249480000000 1.0
C      1  0.5057310000000  0.5362310000000  0.5294610000000 1.0
C      1  0.5344270000000  0.5197810000000  0.5252050000000 1.0
C      1  0.5259010000000  0.4990600000000  0.5028420000000 1.0
C      1  0.5062750000000  0.4723880000000  0.4971210000000 1.0
C      1  0.4738500000000  0.4821140000000  0.5004570000000 1.0
C      1  0.4772090000000  0.5159630000000  0.4998580000000 1.0
C      1  0.5073600000000  0.5270210000000  0.4967690000000 1.0
C      1  0.3885180000000  0.5031420000000  0.5413190000000 1.0
C      1  0.4647980000000  0.5870010000000  0.5357390000000 1.0
C      1  0.5898660000000  0.5445750000000  0.5482210000000 1.0
C      1  0.5818290000000  0.4503370000000  0.5688570000000 1.0
C      1  0.4845110000000  0.4044120000000  0.5695650000000 1.0
C      1  0.4331050000000  0.4842890000000  0.5951950000000 1.0
C      1  0.4706730000000  0.5571570000000  0.5895830000000 1.0
C      1  0.5441460000000  0.5562800000000  0.5991040000000 1.0
C      1  0.5604850000000  0.4727770000000  0.5940610000000 1.0
C      1  0.4951470000000  0.4384420000000  0.5972740000000 1.0
C      1  0.5864640000000  0.4429380000000  0.4653320000000 1.0
C      1  0.4677550000000  0.3934210000000  0.4618150000000 1.0
C      1  0.3896740000000  0.4940490000000  0.4753150000000 1.0
C      1  0.4652390000000  0.5997360000000  0.4650510000000 1.0
C      1  0.5896530000000  0.5720410000000  0.4693110000000 1.0
C      1  0.5143530000000  0.4785690000000  0.4659160000000 1.0
C      1  0.4884420000000  0.4872070000000  0.4518280000000 1.0
C      1  0.4684800000000  0.5138710000000  0.4554690000000 1.0
C      1  0.4988580000000  0.5264790000000  0.4640840000000 1.0
C      1  0.5222980000000  0.5081790000000  0.4555060000000 1.0
C      1  0.5688130000000  0.4903420000000  0.3987510000000 1.0
C      1  0.5374810000000  0.4390170000000  0.4088790000000 1.0
C      1  0.4456490000000  0.4513110000000  0.4169700000000 1.0
C      1  0.4383390000000  0.5373580000000  0.4004080000000 1.0
C      1  0.5350970000000  0.5791510000000  0.3991320000000 1.0
C      1  0.4998010000000  0.5596000000000  0.4679200000000 1.0
C      1  0.5530220000000  0.5179140000000  0.4664030000000 1.0
C      1  0.5407420000000  0.4597460000000  0.4650740000000 1.0
C      1  0.4659280000000  0.4342930000000  0.4653830000000 1.0
C      1  0.4390460000000  0.5047040000000  0.4687220000000 1.0
C      1  0.4439920000000  0.4598130000000  0.4603270000000 1.0
C      1  0.4482070000000  0.5559030000000  0.4495850000000 1.0
C      1  0.5268010000000  0.5630340000000  0.4474950000000 1.0
C      1  0.5654940000000  0.4910720000000  0.4496090000000 1.0
C      1  0.5153780000000  0.4411320000000  0.4521330000000 1.0
C      1  0.4902760000000  0.5834860000000  0.4242580000000 1.0
C      1  0.5726180000000  0.5365030000000  0.4187890000000 1.0
C      1  0.5593160000000  0.4332590000000  0.4255220000000 1.0
C      1  0.4440760000000  0.4247350000000  0.4243370000000 1.0
C      1  0.4235390000000  0.5195010000000  0.4255940000000 1.0
C      1  0.4440700000000  0.5428000000000  0.5739610000000 1.0
C      1  0.5199400000000  0.5750300000000  0.5835870000000 1.0
C      1  0.5698440000000  0.5035930000000  0.5828890000000 1.0
C      1  0.5254010000000  0.4299710000000  0.5842220000000 1.0
C      1  0.4383850000000  0.4568710000000  0.5757940000000 1.0
C      1  0.4665480000000  0.4737440000000  0.5529970000000 1.0
C      1  0.4643000000000  0.5159100000000  0.5510610000000 1.0
C      1  0.5121980000000  0.5296000000000  0.5597090000000 1.0
C      1  0.5424620000000  0.5056050000000  0.5504020000000 1.0
C      1  0.5122950000000  0.4697420000000  0.5600080000000 1.0
C      1  0.4038400000000  0.5206980000000  0.5172250000000 1.0
C      1  0.4857810000000  0.5982380000000  0.5114400000000 1.0
C      1  0.5912880000000  0.5460290000000  0.5132530000000 1.0
C      1  0.5659570000000  0.4309520000000  0.5109690000000 1.0
C      1  0.4526990000000  0.4049330000000  0.5076780000000 1.0
C      1  0.5588640000000  0.5380630000000  0.5197020000000 1.0
C      1  0.5437380000000  0.4550680000000  0.5200890000000 1.0
C      1  0.4714520000000  0.4314970000000  0.5176640000000 1.0
C      1  0.4330530000000  0.5073670000000  0.5159580000000 1.0
C      1  0.4938410000000  0.5655540000000  0.5186800000000 1.0
C      1  0.4465770000000  0.4395910000000  0.5480690000000 1.0
C      1  0.4273510000000  0.5307890000000  0.5478830000000 1.0
C      1  0.5086760000000  0.5763960000000  0.5542090000000 1.0
C      1  0.5948000000000  0.5137980000000  0.5621650000000 1.0
C      1  0.5347010000000  0.4316740000000  0.5535580000000 1.0
C      1  0.4763670000000  0.5646130000000  0.4920570000000 1.0
C      1  0.5560640000000  0.5449240000000  0.4868830000000 1.0
C      1  0.5560930000000  0.4638690000000  0.4909590000000 1.0
C      1  0.4818960000000  0.4235850000000  0.4878510000000 1.0
C      1  0.4320560000000  0.4896040000000  0.4935650000000 1.0
C      1  0.3951740000000  0.5179050000000  0.4874080000000 1.0
C      1  0.4854010000000  0.6089250000000  0.4817580000000 1.0
C      1  0.5965370000000  0.5498610000000  0.4834930000000 1.0
C      1  0.5730430000000  0.4260220000000  0.4836900000000 1.0
C      1  0.4471680000000  0.3975580000000  0.4805190000000 1.0
C      1  0.4553640000000  0.5309620000000  0.4291440000000 1.0
C      1  0.5165720000000  0.5666740000000  0.4183090000000 1.0
C      1  0.5603840000000  0.5062980000000  0.4217670000000 1.0
C      1  0.5180820000000  0.4533700000000  0.4220680000000 1.0
C      1  0.4624310000000  0.4714730000000  0.4365990000000 1.0
C      1  0.5120450000000  0.4808660000000  0.4107550000000 1.0
C      1  0.4842790000000  0.4919870000000  0.4203710000000 1.0
C      1  0.4807350000000  0.5208520000000  0.4103390000000 1.0
C      1  0.5113870000000  0.5358090000000  0.4119230000000 1.0
C      1  0.5271450000000  0.5082540000000  0.4241860000000 1.0
C      1  0.5276240000000  0.5540280000000  0.5007920000000 1.0
C      1  0.5566180000000  0.4913970000000  0.5078840000000 1.0
C      1  0.5073350000000  0.4387090000000  0.5016850000000 1.0
C      1  0.4460820000000  0.4626170000000  0.5033400000000 1.0
C      1  0.4558950000000  0.5414050000000  0.4997790000000 1.0
C      1  0.4690080000000  0.4173290000000  0.4385330000000 1.0
C      1  0.4190550000000  0.4965280000000  0.4456140000000 1.0
C      1  0.4755390000000  0.5734880000000  0.4485560000000 1.0
C      1  0.5534790000000  0.5423350000000  0.4434860000000 1.0
C      1  0.5646630000000  0.4574090000000  0.4436210000000 1.0
C      1  0.4796690000000  0.5594280000000  0.5489770000000 1.0
C      1  0.5581710000000  0.5541240000000  0.5496730000000 1.0
C      1  0.5545810000000  0.4592250000000  0.5520560000000 1.0
C      1  0.4790760000000  0.4299320000000  0.5507640000000 1.0
C      1  0.4210850000000  0.4974870000000  0.5448400000000 1.0
C      1  0.5063310000000  0.5276040000000  0.6009590000000 1.0
C      1  0.5281200000000  0.5047260000000  0.5942860000000 1.0
C      1  0.5142260000000  0.4773040000000  0.6019380000000 1.0
C      1  0.4865970000000  0.4813600000000  0.6013940000000 1.0
C      1  0.4801230000000  0.5102600000000  0.5951710000000 1.0
C      1  0.5124760000000  0.5990380000000  0.4377620000000 1.0
C      1  0.5882420000000  0.5226680000000  0.4415020000000 1.0
C      1  0.5586840000000  0.4092960000000  0.4412320000000 1.0
C      1  0.4224860000000  0.4145520000000  0.4404270000000 1.0
C      1  0.4021050000000  0.5350570000000  0.4435060000000 1.0
C      1  0.5956740000000  0.4959640000000  0.5147490000000 1.0
C      1  0.5274370000000  0.4048800000000  0.5077280000000 1.0
C      1  0.4162690000000  0.4370730000000  0.5107150000000 1.0
C      1  0.4192760000000  0.5711090000000  0.5136780000000 1.0
C      1  0.5372280000000  0.5909690000000  0.5121640000000 1.0
END
