TITL C-2622966-9038-120 -0.000615980990665723 125000 -382.652437662758 0 0 70 (C1) n - 1
REM
REM in /nfs/bkarasulu/CARBON/AIRSS/Generating-Clusters/AIREBO/with-SteepDescent/Higher-Symm/SD-CG/HFTN-CG
REM
REM
REM
REM
REM
REM ./C.cell (b20cbc046b6831c77cfcea5457e17084)
REM
REM compiler GCC version 9.2.1 20190827 (Red Hat 9.2.1-1)
REM options -cpp -mtune=generic -march=x86-64 -g -O0 -fpre-include=/usr/include/finclude/math-vector-fortran.h
REM seed -409687456 669719241 1312281227 691506542 -100693379 210715608 1056533566 -981765108 -802008591 883194728 1758561809 878811685 858658359 -1583838766 -900150294 1220663117 -27436342 -1394159349 1688012863 1103836543 1322961732 1518099857 1059525030 -1024273131 956735816 -1526285547 -1745002391 -2085765423 1494961326 -847266957 1502561869 -1056534244 -337296200
REM
CELL 1.54180   50.00000   50.00000   50.00000   90.00000   90.00000   90.00000
LATT -1
SFAC C  
C      1  0.5094130000000  0.4697470000000  0.4688330000000 1.0
C      1  0.4819090000000  0.4818860000000  0.4744290000000 1.0
C      1  0.4644030000000  0.4765920000000  0.4984410000000 1.0
C      1  0.4748670000000  0.4862120000000  0.5257810000000 1.0
C      1  0.5014260000000  0.4791280000000  0.5384220000000 1.0
C      1  0.5272140000000  0.4781100000000  0.5207080000000 1.0
C      1  0.5327810000000  0.4729990000000  0.4890570000000 1.0
C      1  0.5764170000000  0.4422520000000  0.4852790000000 1.0
C      1  0.5297070000000  0.4250080000000  0.4723910000000 1.0
C      1  0.4848380000000  0.4259020000000  0.4424430000000 1.0
C      1  0.4419200000000  0.4309810000000  0.4763100000000 1.0
C      1  0.4603660000000  0.4346330000000  0.5261200000000 1.0
C      1  0.4830390000000  0.4129930000000  0.5617330000000 1.0
C      1  0.5356090000000  0.4321690000000  0.5479030000000 1.0
C      1  0.4830780000000  0.4312240000000  0.5409830000000 1.0
C      1  0.5073610000000  0.4479410000000  0.5377580000000 1.0
C      1  0.5359260000000  0.4464250000000  0.5186140000000 1.0
C      1  0.5465010000000  0.4430840000000  0.4894540000000 1.0
C      1  0.5053510000000  0.4401050000000  0.4640860000000 1.0
C      1  0.4746780000000  0.4315280000000  0.4734410000000 1.0
C      1  0.4598590000000  0.4470170000000  0.4991340000000 1.0
C      1  0.4642240000000  0.5122860000000  0.5354890000000 1.0
C      1  0.5029200000000  0.5055500000000  0.5576390000000 1.0
C      1  0.5455290000000  0.5035690000000  0.5259560000000 1.0
C      1  0.5498700000000  0.4988110000000  0.4818980000000 1.0
C      1  0.5133040000000  0.4939210000000  0.4473460000000 1.0
C      1  0.4695710000000  0.4960970000000  0.4484470000000 1.0
C      1  0.4493330000000  0.5073680000000  0.4987110000000 1.0
C      1  0.4727980000000  0.5163350000000  0.5657680000000 1.0
C      1  0.5341980000000  0.4960220000000  0.5557110000000 1.0
C      1  0.5718420000000  0.5005500000000  0.5065960000000 1.0
C      1  0.5437150000000  0.5038750000000  0.4509540000000 1.0
C      1  0.4901290000000  0.4906210000000  0.4237820000000 1.0
C      1  0.4438100000000  0.4940320000000  0.4689330000000 1.0
C      1  0.4346610000000  0.5170120000000  0.5252430000000 1.0
C      1  0.5343930000000  0.3998530000000  0.4677570000000 1.0
C      1  0.4816570000000  0.4155480000000  0.4195710000000 1.0
C      1  0.4191910000000  0.4220050000000  0.4696940000000 1.0
C      1  0.4359590000000  0.4285200000000  0.5374090000000 1.0
C      1  0.4820930000000  0.3975910000000  0.5829240000000 1.0
C      1  0.5486340000000  0.4225240000000  0.5673910000000 1.0
C      1  0.6012700000000  0.4424310000000  0.4794790000000 1.0
C      1  0.5166830000000  0.5580500000000  0.4662320000000 1.0
C      1  0.4926440000000  0.5755990000000  0.4677080000000 1.0
C      1  0.4676230000000  0.5645480000000  0.4806350000000 1.0
C      1  0.4667940000000  0.5638600000000  0.5126270000000 1.0
C      1  0.4928470000000  0.5702490000000  0.5293070000000 1.0
C      1  0.5208980000000  0.5641970000000  0.5189300000000 1.0
C      1  0.5355380000000  0.5595110000000  0.4923970000000 1.0
C      1  0.5495160000000  0.5273040000000  0.4389030000000 1.0
C      1  0.4963590000000  0.6270390000000  0.4570770000000 1.0
C      1  0.4214160000000  0.5792260000000  0.4529280000000 1.0
C      1  0.4237120000000  0.5415440000000  0.5279270000000 1.0
C      1  0.4726560000000  0.5425920000000  0.5743920000000 1.0
C      1  0.5505090000000  0.5591960000000  0.5656260000000 1.0
C      1  0.5828210000000  0.5883090000000  0.4865050000000 1.0
C      1  0.5293140000000  0.5283520000000  0.5164950000000 1.0
C      1  0.5330490000000  0.5265740000000  0.4843170000000 1.0
C      1  0.5114420000000  0.5250420000000  0.4611330000000 1.0
C      1  0.4818480000000  0.5203250000000  0.4643110000000 1.0
C      1  0.4687820000000  0.5327040000000  0.4879620000000 1.0
C      1  0.4804900000000  0.5335280000000  0.5193850000000 1.0
C      1  0.5061550000000  0.5343740000000  0.5406560000000 1.0
C      1  0.4941250000000  0.6012460000000  0.4611440000000 1.0
C      1  0.4421060000000  0.5732780000000  0.4666350000000 1.0
C      1  0.4381220000000  0.5648160000000  0.5246470000000 1.0
C      1  0.4898840000000  0.5586730000000  0.5580170000000 1.0
C      1  0.5335870000000  0.5533460000000  0.5473330000000 1.0
C      1  0.5606050000000  0.5758680000000  0.4882160000000 1.0
C      1  0.5347070000000  0.5501930000000  0.4405370000000 1.0
END
