TITL C-2622965-4321-357 -3643.81091767452 125000 -713.547903367442 0 0 139 (C1) n - 1
REM
REM in /nfs/bkarasulu/CARBON/AIRSS/Generating-Clusters/AIREBO/with-SteepDescent/Higher-Symm/SD-CG/HFTN-CG
REM
REM
REM
REM
REM
REM ./C.cell (b20cbc046b6831c77cfcea5457e17084)
REM
REM compiler GCC version 9.2.1 20190827 (Red Hat 9.2.1-1)
REM options -cpp -mtune=generic -march=x86-64 -g -O0 -fpre-include=/usr/include/finclude/math-vector-fortran.h
REM seed 270763055 325116119 1219200122 -1199258043 8422932 -1314902174 1071910832 -453359665 174069109 1713628206 -1734635998 -493653990 1647845302 -1168011721 -1233306259 -784441306 1787881747 511138723 -343608673 -514199216 -1768211606 683728629 1589636235 -1729369200 379037329 -707273983 -1651133520 -1497935369 -1118908841 -1646239936 -1890586166 1277279074 -1003349226
REM
CELL 1.54180   50.00000   50.00000   50.00000   90.00000   90.00000   90.00000
LATT -1
SFAC C  
C      1  0.4890320000000  0.4198740000000  0.4868370000000 1.0
C      1  0.4019550000000  0.4818900000000  0.4941400000000 1.0
C      1  0.4578630000000  0.5759410000000  0.4857920000000 1.0
C      1  0.5484780000000  0.5612450000000  0.4819150000000 1.0
C      1  0.5930950000000  0.4555210000000  0.4853690000000 1.0
C      1  0.4614310000000  0.4763040000000  0.5203600000000 1.0
C      1  0.4544440000000  0.5267050000000  0.5087730000000 1.0
C      1  0.5075880000000  0.5422760000000  0.5146060000000 1.0
C      1  0.5430110000000  0.4952990000000  0.5186320000000 1.0
C      1  0.5215000000000  0.4596320000000  0.5082380000000 1.0
C      1  0.4531910000000  0.5060270000000  0.5346880000000 1.0
C      1  0.4920730000000  0.5355140000000  0.5442380000000 1.0
C      1  0.5310920000000  0.5123550000000  0.5445060000000 1.0
C      1  0.5346150000000  0.4699720000000  0.5378960000000 1.0
C      1  0.4846140000000  0.4706880000000  0.5446270000000 1.0
C      1  0.4627360000000  0.5558930000000  0.5789950000000 1.0
C      1  0.5388300000000  0.5494820000000  0.5880580000000 1.0
C      1  0.5559230000000  0.4723650000000  0.5810930000000 1.0
C      1  0.4938450000000  0.4342980000000  0.5776760000000 1.0
C      1  0.4370700000000  0.4892250000000  0.5802430000000 1.0
C      1  0.4357040000000  0.5468590000000  0.5460460000000 1.0
C      1  0.5251590000000  0.5719840000000  0.5529030000000 1.0
C      1  0.5795600000000  0.5046130000000  0.5538540000000 1.0
C      1  0.5227020000000  0.4271320000000  0.5460950000000 1.0
C      1  0.4318060000000  0.4552140000000  0.5508010000000 1.0
C      1  0.4763640000000  0.5141530000000  0.4866280000000 1.0
C      1  0.5126580000000  0.5389030000000  0.4800830000000 1.0
C      1  0.5368800000000  0.4915330000000  0.4886050000000 1.0
C      1  0.5076430000000  0.4760570000000  0.4856710000000 1.0
C      1  0.4632260000000  0.4855360000000  0.4876810000000 1.0
C      1  0.4725440000000  0.5619600000000  0.5355360000000 1.0
C      1  0.5377140000000  0.5447750000000  0.5407000000000 1.0
C      1  0.5677910000000  0.4756950000000  0.5430430000000 1.0
C      1  0.4863220000000  0.4384400000000  0.5339760000000 1.0
C      1  0.4287550000000  0.4858540000000  0.5412720000000 1.0
C      1  0.5497510000000  0.5033710000000  0.5701700000000 1.0
C      1  0.5118730000000  0.4565370000000  0.5593160000000 1.0
C      1  0.4592390000000  0.4670960000000  0.5670140000000 1.0
C      1  0.4618170000000  0.5288780000000  0.5583560000000 1.0
C      1  0.5099100000000  0.5483320000000  0.5702130000000 1.0
C      1  0.4264420000000  0.5760520000000  0.4753080000000 1.0
C      1  0.5345660000000  0.5893800000000  0.4745800000000 1.0
C      1  0.6015450000000  0.4829760000000  0.4714420000000 1.0
C      1  0.5113700000000  0.3970120000000  0.4754160000000 1.0
C      1  0.4090290000000  0.4537700000000  0.4763860000000 1.0
C      1  0.4174150000000  0.5549850000000  0.4599820000000 1.0
C      1  0.5153740000000  0.5916820000000  0.4543140000000 1.0
C      1  0.6078270000000  0.5081270000000  0.4577560000000 1.0
C      1  0.5292820000000  0.4106890000000  0.4571240000000 1.0
C      1  0.4164910000000  0.4295410000000  0.4596770000000 1.0
C      1  0.5357490000000  0.5514640000000  0.4199080000000 1.0
C      1  0.5698410000000  0.4848610000000  0.4311010000000 1.0
C      1  0.5013880000000  0.4558470000000  0.4231640000000 1.0
C      1  0.4336050000000  0.4733450000000  0.4292260000000 1.0
C      1  0.4552250000000  0.5408410000000  0.4302640000000 1.0
C      1  0.5797610000000  0.5668390000000  0.4691930000000 1.0
C      1  0.5851910000000  0.4293940000000  0.4645170000000 1.0
C      1  0.4758650000000  0.3907540000000  0.4801700000000 1.0
C      1  0.3915740000000  0.4822270000000  0.4617600000000 1.0
C      1  0.4656640000000  0.6048020000000  0.4924140000000 1.0
C      1  0.5998530000000  0.4902310000000  0.5033860000000 1.0
C      1  0.5188170000000  0.4033420000000  0.5070590000000 1.0
C      1  0.4054100000000  0.4451020000000  0.5090650000000 1.0
C      1  0.4250050000000  0.5706030000000  0.5075010000000 1.0
C      1  0.5461820000000  0.5936480000000  0.5049330000000 1.0
C      1  0.4312090000000  0.5273980000000  0.4684000000000 1.0
C      1  0.4969710000000  0.5715190000000  0.4448170000000 1.0
C      1  0.5772670000000  0.5145380000000  0.4712540000000 1.0
C      1  0.5320040000000  0.4397480000000  0.4645020000000 1.0
C      1  0.4458070000000  0.4416000000000  0.4673850000000 1.0
C      1  0.4552650000000  0.5558600000000  0.5123490000000 1.0
C      1  0.5403730000000  0.5472680000000  0.5070860000000 1.0
C      1  0.5792040000000  0.4669590000000  0.5142220000000 1.0
C      1  0.5043550000000  0.4338570000000  0.5113060000000 1.0
C      1  0.4279430000000  0.4702920000000  0.5127830000000 1.0
C      1  0.5704060000000  0.5162070000000  0.4210080000000 1.0
C      1  0.5077340000000  0.4470000000000  0.3920990000000 1.0
C      1  0.4643490000000  0.4624560000000  0.4248840000000 1.0
C      1  0.4320980000000  0.5293290000000  0.4105100000000 1.0
C      1  0.5041520000000  0.5543050000000  0.4231370000000 1.0
C      1  0.5086120000000  0.5170660000000  0.4438960000000 1.0
C      1  0.5412050000000  0.5118580000000  0.4367770000000 1.0
C      1  0.5285540000000  0.4830460000000  0.4489040000000 1.0
C      1  0.4796210000000  0.4798020000000  0.4463620000000 1.0
C      1  0.4845900000000  0.5091480000000  0.4464840000000 1.0
C      1  0.5218500000000  0.5007740000000  0.5887310000000 1.0
C      1  0.5061010000000  0.4777000000000  0.5852970000000 1.0
C      1  0.4788490000000  0.4851340000000  0.5864800000000 1.0
C      1  0.4780450000000  0.5128930000000  0.5836110000000 1.0
C      1  0.5040330000000  0.5226370000000  0.5885050000000 1.0
C      1  0.5086890000000  0.4045110000000  0.5380770000000 1.0
C      1  0.4038490000000  0.4422290000000  0.5388160000000 1.0
C      1  0.4320430000000  0.5737200000000  0.5394250000000 1.0
C      1  0.5658490000000  0.5796850000000  0.5210730000000 1.0
C      1  0.6056870000000  0.4955750000000  0.5352300000000 1.0
C      1  0.4240230000000  0.4942960000000  0.4714160000000 1.0
C      1  0.4792630000000  0.5607200000000  0.4679830000000 1.0
C      1  0.5641590000000  0.5397210000000  0.4620190000000 1.0
C      1  0.5623610000000  0.4537890000000  0.4708430000000 1.0
C      1  0.4785640000000  0.4435740000000  0.4706390000000 1.0
C      1  0.4295850000000  0.5069300000000  0.5024920000000 1.0
C      1  0.5012180000000  0.5677530000000  0.4930100000000 1.0
C      1  0.5558450000000  0.5211200000000  0.5073850000000 1.0
C      1  0.5531330000000  0.4572460000000  0.5021700000000 1.0
C      1  0.4649830000000  0.4482400000000  0.5014810000000 1.0
C      1  0.5844040000000  0.5301920000000  0.5335340000000 1.0
C      1  0.5454050000000  0.4296010000000  0.5297240000000 1.0
C      1  0.4415510000000  0.4326440000000  0.5306990000000 1.0
C      1  0.4172790000000  0.5317150000000  0.5312610000000 1.0
C      1  0.5097940000000  0.5888750000000  0.5373040000000 1.0
C      1  0.4352470000000  0.4335520000000  0.4987820000000 1.0
C      1  0.4178270000000  0.5385810000000  0.4984560000000 1.0
C      1  0.5170720000000  0.5886970000000  0.5103960000000 1.0
C      1  0.5873150000000  0.5193990000000  0.5033700000000 1.0
C      1  0.5405840000000  0.4268840000000  0.4960940000000 1.0
C      1  0.5104760000000  0.4784660000000  0.3992220000000 1.0
C      1  0.4403110000000  0.4565210000000  0.4032050000000 1.0
C      1  0.4520460000000  0.5522950000000  0.4001610000000 1.0
C      1  0.5184620000000  0.5287480000000  0.4044240000000 1.0
C      1  0.5540100000000  0.4953400000000  0.4028160000000 1.0
C      1  0.4856900000000  0.5659990000000  0.5830000000000 1.0
C      1  0.5557290000000  0.5308090000000  0.5880870000000 1.0
C      1  0.5390110000000  0.4537710000000  0.5796290000000 1.0
C      1  0.4690750000000  0.4389700000000  0.5802330000000 1.0
C      1  0.4383390000000  0.5141840000000  0.5780910000000 1.0
C      1  0.5050680000000  0.4597440000000  0.4567560000000 1.0
C      1  0.4488910000000  0.4742040000000  0.4598100000000 1.0
C      1  0.4639510000000  0.5313330000000  0.4600370000000 1.0
C      1  0.5317010000000  0.5407760000000  0.4519370000000 1.0
C      1  0.5591230000000  0.4867960000000  0.4633190000000 1.0
C      1  0.4823790000000  0.5861580000000  0.5421770000000 1.0
C      1  0.5683020000000  0.5537890000000  0.5346910000000 1.0
C      1  0.5658580000000  0.4421010000000  0.5421950000000 1.0
C      1  0.4652420000000  0.4224520000000  0.5379070000000 1.0
C      1  0.4082500000000  0.5088890000000  0.5422560000000 1.0
C      1  0.4884610000000  0.5073240000000  0.5164310000000 1.0
C      1  0.5264820000000  0.5013880000000  0.3975340000000 1.0
C      1  0.5096450000000  0.5083470000000  0.4827900000000 1.0
C      1  0.4986310000000  0.5021210000000  0.5438440000000 1.0
END
