TITL C-2622959-7779-723 -0.000397996549974048 125000 -647.996474964859 0 0 119 (C1) n - 1
REM
REM in /nfs/bkarasulu/CARBON/AIRSS/Generating-Clusters/AIREBO/with-SteepDescent/Higher-Symm/SD-CG/HFTN-CG
REM
REM
REM
REM
REM
REM ./C.cell (b20cbc046b6831c77cfcea5457e17084)
REM
REM compiler GCC version 9.2.1 20190827 (Red Hat 9.2.1-1)
REM options -cpp -mtune=generic -march=x86-64 -g -O0 -fpre-include=/usr/include/finclude/math-vector-fortran.h
REM seed 1432463746 335656823 -1384541110 269633127 -1033420782 -157961841 8158726 -952393532 -975266523 1020350371 -926955624 -1370152156 1874965390 -1458520164 1592182742 -408774803 -937986322 -405921191 715845413 1119381336 939122072 195622849 402222495 -189096763 1652674842 2056414274 2129612171 -1724771283 458564655 -1293096702 642606239 -220160910 -685506539
REM
CELL 1.54180   50.00000   50.00000   50.00000   90.00000   90.00000   90.00000
LATT -1
SFAC C  
C      1  0.5710810000000  0.5000130000000  0.5567670000000 1.0
C      1  0.4434060000000  0.4928040000000  0.4107930000000 1.0
C      1  0.4880670000000  0.5826050000000  0.5017400000000 1.0
C      1  0.4785320000000  0.4278890000000  0.5598930000000 1.0
C      1  0.5061650000000  0.5775480000000  0.4573440000000 1.0
C      1  0.4284930000000  0.4682890000000  0.4515320000000 1.0
C      1  0.4618820000000  0.4906470000000  0.4996800000000 1.0
C      1  0.5317590000000  0.6016680000000  0.4891750000000 1.0
C      1  0.4101410000000  0.4634770000000  0.4726490000000 1.0
C      1  0.4981120000000  0.5517840000000  0.4667620000000 1.0
C      1  0.5779120000000  0.5414760000000  0.4877410000000 1.0
C      1  0.4561390000000  0.5206970000000  0.4181430000000 1.0
C      1  0.5065050000000  0.5224190000000  0.4414630000000 1.0
C      1  0.4132730000000  0.5485390000000  0.5833710000000 1.0
C      1  0.4305540000000  0.5732380000000  0.5261050000000 1.0
C      1  0.5100540000000  0.5332540000000  0.3951400000000 1.0
C      1  0.5808590000000  0.4778420000000  0.5687620000000 1.0
C      1  0.4506560000000  0.4873260000000  0.5831400000000 1.0
C      1  0.4962640000000  0.4911030000000  0.5711950000000 1.0
C      1  0.4259230000000  0.4757340000000  0.4243430000000 1.0
C      1  0.4312420000000  0.5292050000000  0.5788740000000 1.0
C      1  0.5261800000000  0.5706930000000  0.5649000000000 1.0
C      1  0.5107570000000  0.4585130000000  0.4184250000000 1.0
C      1  0.5612630000000  0.5252860000000  0.5087470000000 1.0
C      1  0.4844080000000  0.4116810000000  0.4434550000000 1.0
C      1  0.4203670000000  0.4876150000000  0.5438900000000 1.0
C      1  0.4966790000000  0.5893160000000  0.5339660000000 1.0
C      1  0.4598590000000  0.5504270000000  0.4546780000000 1.0
C      1  0.4012560000000  0.4746710000000  0.5633290000000 1.0
C      1  0.5070820000000  0.5942800000000  0.4801840000000 1.0
C      1  0.4769760000000  0.5286020000000  0.4743850000000 1.0
C      1  0.4984630000000  0.4366960000000  0.4303350000000 1.0
C      1  0.5786840000000  0.4582520000000  0.5220020000000 1.0
C      1  0.4087830000000  0.4960290000000  0.5152340000000 1.0
C      1  0.4738100000000  0.4725320000000  0.5825090000000 1.0
C      1  0.4957270000000  0.4834920000000  0.5403230000000 1.0
C      1  0.4853970000000  0.3821580000000  0.5284770000000 1.0
C      1  0.4782130000000  0.4232340000000  0.4733210000000 1.0
C      1  0.5446590000000  0.5141040000000  0.5673960000000 1.0
C      1  0.5371690000000  0.5034000000000  0.5359450000000 1.0
C      1  0.5015320000000  0.4833480000000  0.4078150000000 1.0
C      1  0.5570840000000  0.4429230000000  0.4294150000000 1.0
C      1  0.5350670000000  0.4535210000000  0.5149170000000 1.0
C      1  0.4523610000000  0.5534860000000  0.5397070000000 1.0
C      1  0.5247590000000  0.5511510000000  0.4960820000000 1.0
C      1  0.4253170000000  0.5342200000000  0.4851330000000 1.0
C      1  0.5498710000000  0.5545610000000  0.5181790000000 1.0
C      1  0.5541470000000  0.4269360000000  0.5247050000000 1.0
C      1  0.5485330000000  0.5795200000000  0.4967160000000 1.0
C      1  0.5542580000000  0.4786270000000  0.5274690000000 1.0
C      1  0.5107950000000  0.4816190000000  0.4892900000000 1.0
C      1  0.5006210000000  0.5303970000000  0.6070560000000 1.0
C      1  0.5079360000000  0.4362870000000  0.4631960000000 1.0
C      1  0.5874360000000  0.4279430000000  0.4841340000000 1.0
C      1  0.4914040000000  0.4770020000000  0.4618440000000 1.0
C      1  0.4359610000000  0.4321320000000  0.4897700000000 1.0
C      1  0.4542930000000  0.5155170000000  0.5921880000000 1.0
C      1  0.5295270000000  0.5335550000000  0.5313750000000 1.0
C      1  0.5510670000000  0.5248290000000  0.4475730000000 1.0
C      1  0.4465100000000  0.4620830000000  0.4891090000000 1.0
C      1  0.4834050000000  0.5196380000000  0.5836440000000 1.0
C      1  0.4762060000000  0.4941000000000  0.4183670000000 1.0
C      1  0.4591650000000  0.4735820000000  0.4616020000000 1.0
C      1  0.4331030000000  0.5422570000000  0.5150930000000 1.0
C      1  0.5584290000000  0.4285930000000  0.4943080000000 1.0
C      1  0.4662400000000  0.4799690000000  0.5316650000000 1.0
C      1  0.4397620000000  0.5933160000000  0.5107440000000 1.0
C      1  0.5351890000000  0.5125960000000  0.4957040000000 1.0
C      1  0.5938660000000  0.4949080000000  0.5015510000000 1.0
C      1  0.5798220000000  0.4500650000000  0.5685320000000 1.0
C      1  0.4597890000000  0.5879540000000  0.4919790000000 1.0
C      1  0.5787790000000  0.5307720000000  0.4628520000000 1.0
C      1  0.6039650000000  0.4114380000000  0.4719190000000 1.0
C      1  0.4976290000000  0.5458020000000  0.4211510000000 1.0
C      1  0.4827160000000  0.5604270000000  0.5343370000000 1.0
C      1  0.4844000000000  0.4025430000000  0.5106500000000 1.0
C      1  0.5758300000000  0.5048370000000  0.5259090000000 1.0
C      1  0.5762120000000  0.4373780000000  0.5434250000000 1.0
C      1  0.4478440000000  0.5039640000000  0.4607020000000 1.0
C      1  0.4380270000000  0.5295480000000  0.4612440000000 1.0
C      1  0.5489510000000  0.4585750000000  0.4842850000000 1.0
C      1  0.5410230000000  0.5306500000000  0.4202260000000 1.0
C      1  0.5871370000000  0.4561290000000  0.4957400000000 1.0
C      1  0.5380700000000  0.4632940000000  0.4328410000000 1.0
C      1  0.5104370000000  0.4422580000000  0.4952140000000 1.0
C      1  0.4846050000000  0.5365180000000  0.5584390000000 1.0
C      1  0.4728220000000  0.4340450000000  0.5051090000000 1.0
C      1  0.4765320000000  0.4450330000000  0.5811390000000 1.0
C      1  0.5247430000000  0.4649960000000  0.4631040000000 1.0
C      1  0.4847170000000  0.4654040000000  0.4993860000000 1.0
C      1  0.4412610000000  0.5062270000000  0.5558580000000 1.0
C      1  0.4361800000000  0.4684550000000  0.5207100000000 1.0
C      1  0.5160330000000  0.5927010000000  0.5526910000000 1.0
C      1  0.4808720000000  0.5180650000000  0.5065240000000 1.0
C      1  0.5250830000000  0.5311470000000  0.4685750000000 1.0
C      1  0.4090590000000  0.4697810000000  0.5000010000000 1.0
C      1  0.5086190000000  0.4559630000000  0.5354530000000 1.0
C      1  0.5241620000000  0.5056520000000  0.4044840000000 1.0
C      1  0.4945520000000  0.5492210000000  0.5066840000000 1.0
C      1  0.5241680000000  0.5391400000000  0.6069290000000 1.0
C      1  0.5734270000000  0.4811450000000  0.4796650000000 1.0
C      1  0.5355110000000  0.5573160000000  0.4162050000000 1.0
C      1  0.4637560000000  0.5220510000000  0.5357750000000 1.0
C      1  0.5522490000000  0.5018670000000  0.4704650000000 1.0
C      1  0.5139320000000  0.5440820000000  0.5530230000000 1.0
C      1  0.5127740000000  0.5726000000000  0.4299850000000 1.0
C      1  0.5471440000000  0.4911810000000  0.4221190000000 1.0
C      1  0.5095980000000  0.4083700000000  0.4918500000000 1.0
C      1  0.4888600000000  0.4352430000000  0.5350700000000 1.0
C      1  0.4348990000000  0.5105560000000  0.5068190000000 1.0
C      1  0.4541750000000  0.5779170000000  0.4674360000000 1.0
C      1  0.5060610000000  0.3965400000000  0.4648700000000 1.0
C      1  0.5768110000000  0.5683700000000  0.4920520000000 1.0
C      1  0.5097010000000  0.5026130000000  0.5158910000000 1.0
C      1  0.4674330000000  0.5448390000000  0.4255970000000 1.0
C      1  0.4804540000000  0.5052030000000  0.4499370000000 1.0
C      1  0.5378900000000  0.5427810000000  0.5803910000000 1.0
C      1  0.4489680000000  0.4100600000000  0.5016330000000 1.0
C      1  0.5257210000000  0.4921290000000  0.5806550000000 1.0
END
