TITL C-2622955-8511-32 0.000205825621169537 125000 -749.712519748365 0 0 136 (C1) n - 1
REM
REM in /nfs/bkarasulu/CARBON/AIRSS/Generating-Clusters/AIREBO/with-SteepDescent/Higher-Symm/SD-CG/HFTN-CG
REM
REM
REM
REM
REM
REM ./C.cell (b20cbc046b6831c77cfcea5457e17084)
REM
REM compiler GCC version 9.2.1 20190827 (Red Hat 9.2.1-1)
REM options -cpp -mtune=generic -march=x86-64 -g -O0 -fpre-include=/usr/include/finclude/math-vector-fortran.h
REM seed -1598432055 1473219624 -1891936226 49820334 -856299129 1033522081 -369041320 1634809986 1912474185 589987538 1672635490 592560628 738909334 1177493002 -551228182 -2062136541 1359565230 1685761879 1803312687 2071765284 974007201 1615105783 130426511 -2036010299 654401998 269106228 425248823 -1303851385 -730616801 -631826024 -1706515590 543887451 -1777445976
REM
CELL 1.54180   50.00000   50.00000   50.00000   90.00000   90.00000   90.00000
LATT -1
SFAC C  
C      1  0.5418760000000  0.4438340000000  0.4685090000000 1.0
C      1  0.5413730000000  0.4748080000000  0.4345180000000 1.0
C      1  0.5454420000000  0.5315000000000  0.4424940000000 1.0
C      1  0.5400280000000  0.5713080000000  0.4920930000000 1.0
C      1  0.5515930000000  0.5574810000000  0.5605330000000 1.0
C      1  0.5455450000000  0.4917270000000  0.5737740000000 1.0
C      1  0.5465660000000  0.4428730000000  0.5411040000000 1.0
C      1  0.4863800000000  0.4932560000000  0.4103350000000 1.0
C      1  0.4751180000000  0.5536910000000  0.4365700000000 1.0
C      1  0.4808420000000  0.5813780000000  0.4951350000000 1.0
C      1  0.4951480000000  0.5540310000000  0.5638100000000 1.0
C      1  0.4892480000000  0.4804260000000  0.5892720000000 1.0
C      1  0.4878850000000  0.4221880000000  0.5413550000000 1.0
C      1  0.4875410000000  0.4126940000000  0.4674780000000 1.0
C      1  0.5825860000000  0.4978640000000  0.4381120000000 1.0
C      1  0.5722180000000  0.5414650000000  0.4609640000000 1.0
C      1  0.5808980000000  0.5657670000000  0.5181330000000 1.0
C      1  0.5891240000000  0.5282780000000  0.5745950000000 1.0
C      1  0.5806690000000  0.4574650000000  0.5586910000000 1.0
C      1  0.5875820000000  0.4226340000000  0.5180850000000 1.0
C      1  0.5840590000000  0.4498990000000  0.4455880000000 1.0
C      1  0.4031110000000  0.5078320000000  0.4525300000000 1.0
C      1  0.4004360000000  0.5384910000000  0.4734250000000 1.0
C      1  0.3908710000000  0.5280320000000  0.5042030000000 1.0
C      1  0.3966650000000  0.5059820000000  0.5201310000000 1.0
C      1  0.3848740000000  0.4818040000000  0.5109400000000 1.0
C      1  0.3963810000000  0.4717000000000  0.4872090000000 1.0
C      1  0.3885750000000  0.4839080000000  0.4634890000000 1.0
C      1  0.4553590000000  0.5846380000000  0.5451930000000 1.0
C      1  0.4524250000000  0.5180370000000  0.5822270000000 1.0
C      1  0.4523250000000  0.4461530000000  0.5681530000000 1.0
C      1  0.4491630000000  0.4179340000000  0.4966530000000 1.0
C      1  0.4587360000000  0.4520660000000  0.4255030000000 1.0
C      1  0.4468710000000  0.5173450000000  0.4169220000000 1.0
C      1  0.4399590000000  0.5820910000000  0.4600440000000 1.0
C      1  0.5562090000000  0.5774630000000  0.5167670000000 1.0
C      1  0.5645070000000  0.5380510000000  0.5827310000000 1.0
C      1  0.5581820000000  0.4624990000000  0.5738740000000 1.0
C      1  0.5588590000000  0.4254900000000  0.5171320000000 1.0
C      1  0.5585440000000  0.4397130000000  0.4430660000000 1.0
C      1  0.5583180000000  0.4984220000000  0.4243160000000 1.0
C      1  0.5505560000000  0.5640660000000  0.4508280000000 1.0
C      1  0.5080550000000  0.5180410000000  0.6000760000000 1.0
C      1  0.4985060000000  0.4521630000000  0.5819310000000 1.0
C      1  0.4919040000000  0.4027720000000  0.5132810000000 1.0
C      1  0.5038060000000  0.4462870000000  0.4118780000000 1.0
C      1  0.5020950000000  0.5216080000000  0.3998650000000 1.0
C      1  0.4996600000000  0.5929400000000  0.4618570000000 1.0
C      1  0.5136760000000  0.5800400000000  0.5397540000000 1.0
C      1  0.5216090000000  0.4201430000000  0.5452280000000 1.0
C      1  0.5126260000000  0.4264760000000  0.4673320000000 1.0
C      1  0.5167050000000  0.4863300000000  0.4213900000000 1.0
C      1  0.5031770000000  0.5469120000000  0.4408440000000 1.0
C      1  0.5109900000000  0.5807950000000  0.4994970000000 1.0
C      1  0.5230260000000  0.5540620000000  0.5732740000000 1.0
C      1  0.5140900000000  0.4864790000000  0.5689750000000 1.0
C      1  0.5453360000000  0.4739850000000  0.5000650000000 1.0
C      1  0.5369340000000  0.4774940000000  0.4680550000000 1.0
C      1  0.5483870000000  0.5098600000000  0.4686360000000 1.0
C      1  0.5394580000000  0.5395570000000  0.4834770000000 1.0
C      1  0.5549190000000  0.5319930000000  0.5417120000000 1.0
C      1  0.5604050000000  0.4987200000000  0.5466350000000 1.0
C      1  0.5575130000000  0.4732070000000  0.5302350000000 1.0
C      1  0.4360140000000  0.4731480000000  0.5190500000000 1.0
C      1  0.4262150000000  0.4662200000000  0.4903370000000 1.0
C      1  0.4418150000000  0.4832480000000  0.4685020000000 1.0
C      1  0.4303990000000  0.5129370000000  0.4696790000000 1.0
C      1  0.4279640000000  0.5372590000000  0.4933420000000 1.0
C      1  0.4349430000000  0.5290870000000  0.5210960000000 1.0
C      1  0.4255210000000  0.4994000000000  0.5342060000000 1.0
C      1  0.5805810000000  0.5057740000000  0.4769460000000 1.0
C      1  0.5712820000000  0.5323520000000  0.4924350000000 1.0
C      1  0.5811270000000  0.5335190000000  0.5222350000000 1.0
C      1  0.5898270000000  0.5154870000000  0.5497320000000 1.0
C      1  0.5853250000000  0.4541960000000  0.5256270000000 1.0
C      1  0.5791290000000  0.4711800000000  0.4968170000000 1.0
C      1  0.5861020000000  0.4755130000000  0.4635430000000 1.0
C      1  0.5109900000000  0.5322410000000  0.5103130000000 1.0
C      1  0.5281290000000  0.5193910000000  0.5352150000000 1.0
C      1  0.5014650000000  0.5019460000000  0.5336520000000 1.0
C      1  0.5199080000000  0.4608110000000  0.5174610000000 1.0
C      1  0.5033850000000  0.4683210000000  0.4906940000000 1.0
C      1  0.5044140000000  0.4732110000000  0.4590500000000 1.0
C      1  0.5068650000000  0.5317720000000  0.4776570000000 1.0
C      1  0.4771570000000  0.4487780000000  0.4811500000000 1.0
C      1  0.4731940000000  0.4851460000000  0.4653160000000 1.0
C      1  0.4788000000000  0.5245980000000  0.4632970000000 1.0
C      1  0.4675620000000  0.5364820000000  0.4978750000000 1.0
C      1  0.4597400000000  0.5105230000000  0.5168550000000 1.0
C      1  0.4703030000000  0.4999460000000  0.5446170000000 1.0
C      1  0.4675220000000  0.4715600000000  0.5124570000000 1.0
C      1  0.5352280000000  0.5205100000000  0.4126620000000 1.0
C      1  0.5334790000000  0.5888660000000  0.4644530000000 1.0
C      1  0.5413850000000  0.5787600000000  0.5406560000000 1.0
C      1  0.5417720000000  0.5184990000000  0.5913690000000 1.0
C      1  0.5283370000000  0.4491850000000  0.5691100000000 1.0
C      1  0.5406200000000  0.4244790000000  0.4943020000000 1.0
C      1  0.5363010000000  0.4457800000000  0.4202050000000 1.0
C      1  0.4376250000000  0.5850570000000  0.5183360000000 1.0
C      1  0.4397430000000  0.5419370000000  0.5728160000000 1.0
C      1  0.4386450000000  0.4675840000000  0.5785170000000 1.0
C      1  0.4382330000000  0.4214450000000  0.5218400000000 1.0
C      1  0.4357210000000  0.4398290000000  0.4473360000000 1.0
C      1  0.4244570000000  0.4997170000000  0.4295960000000 1.0
C      1  0.4269220000000  0.5509090000000  0.4560800000000 1.0
C      1  0.4485000000000  0.4475390000000  0.5374480000000 1.0
C      1  0.4437540000000  0.4427270000000  0.4780990000000 1.0
C      1  0.4352340000000  0.4723890000000  0.4388420000000 1.0
C      1  0.4486250000000  0.5259830000000  0.4475640000000 1.0
C      1  0.4408980000000  0.5662490000000  0.4901150000000 1.0
C      1  0.4438850000000  0.5529240000000  0.5408820000000 1.0
C      1  0.4423340000000  0.4950720000000  0.5633370000000 1.0
C      1  0.4841950000000  0.4419240000000  0.5134050000000 1.0
C      1  0.4716630000000  0.4337790000000  0.4510870000000 1.0
C      1  0.4797060000000  0.5018430000000  0.4405450000000 1.0
C      1  0.4650290000000  0.5545650000000  0.4691800000000 1.0
C      1  0.4683180000000  0.5595010000000  0.5180780000000 1.0
C      1  0.4851460000000  0.5256860000000  0.5611580000000 1.0
C      1  0.4762110000000  0.4664700000000  0.5436180000000 1.0
C      1  0.5094640000000  0.4652680000000  0.5458310000000 1.0
C      1  0.5150630000000  0.4276670000000  0.5127220000000 1.0
C      1  0.5112510000000  0.4476130000000  0.4433650000000 1.0
C      1  0.5081830000000  0.5178340000000  0.4331030000000 1.0
C      1  0.5130380000000  0.5623050000000  0.4641150000000 1.0
C      1  0.5000500000000  0.5579810000000  0.5206560000000 1.0
C      1  0.5174580000000  0.5202810000000  0.5674660000000 1.0
C      1  0.4733210000000  0.5318880000000  0.4149350000000 1.0
C      1  0.4700410000000  0.5940770000000  0.4704170000000 1.0
C      1  0.4835160000000  0.5804790000000  0.5523920000000 1.0
C      1  0.4784140000000  0.5084540000000  0.5966210000000 1.0
C      1  0.4790960000000  0.4358620000000  0.5692070000000 1.0
C      1  0.4743060000000  0.4052650000000  0.4915720000000 1.0
C      1  0.4796250000000  0.4626940000000  0.4067190000000 1.0
C      1  0.6032890000000  0.4928000000000  0.4949930000000 1.0
C      1  0.4740520000000  0.4949630000000  0.4935580000000 1.0
C      1  0.5038380000000  0.5000750000000  0.5018480000000 1.0
END
