TITL C-2622967-6265-42 -0.00027028613871591 125000 -979.568681400181 0 0 181 (C1) n - 1
REM
REM in /nfs/bkarasulu/CARBON/AIRSS/Generating-Clusters/AIREBO/with-SteepDescent/Higher-Symm/SD-CG/HFTN-CG
REM
REM
REM
REM
REM
REM ./C.cell (b20cbc046b6831c77cfcea5457e17084)
REM
REM compiler GCC version 9.2.1 20190827 (Red Hat 9.2.1-1)
REM options -cpp -mtune=generic -march=x86-64 -g -O0 -fpre-include=/usr/include/finclude/math-vector-fortran.h
REM seed -1108179848 491547872 -1680596818 1395750302 2024772544 -1389614364 -1367833447 285581154 505719452 -485790835 -432877791 -1189782388 -870325631 976620308 -389867108 439720660 -902754203 -1828808600 -1318585882 -323150857 -738155464 -1743670089 -766910828 1702777067 -1492962352 -1149973089 -242915644 1671824992 2106417405 1412431975 1764306134 1873325181 962357531
REM
CELL 1.54180   50.00000   50.00000   50.00000   90.00000   90.00000   90.00000
LATT -1
SFAC C  
C      1  0.5981540000000  0.4980400000000  0.5031740000000 1.0
C      1  0.4399510000000  0.4567920000000  0.5742680000000 1.0
C      1  0.5862610000000  0.5187260000000  0.4336230000000 1.0
C      1  0.4146630000000  0.4322030000000  0.4884750000000 1.0
C      1  0.5137090000000  0.4507380000000  0.5517620000000 1.0
C      1  0.5096220000000  0.5428450000000  0.4925280000000 1.0
C      1  0.5536830000000  0.4177510000000  0.4534910000000 1.0
C      1  0.4194320000000  0.5126590000000  0.4560350000000 1.0
C      1  0.5980290000000  0.4765490000000  0.4773450000000 1.0
C      1  0.5097100000000  0.4165740000000  0.5071500000000 1.0
C      1  0.4969930000000  0.5097970000000  0.5948440000000 1.0
C      1  0.5527790000000  0.4768920000000  0.5454960000000 1.0
C      1  0.4732810000000  0.5145340000000  0.5709280000000 1.0
C      1  0.5982580000000  0.5060520000000  0.5540290000000 1.0
C      1  0.4750250000000  0.5214530000000  0.4554500000000 1.0
C      1  0.5350240000000  0.6112750000000  0.4755960000000 1.0
C      1  0.4012950000000  0.4614660000000  0.4649080000000 1.0
C      1  0.4552160000000  0.5703720000000  0.5879850000000 1.0
C      1  0.3975840000000  0.4674800000000  0.4957990000000 1.0
C      1  0.5522370000000  0.4092660000000  0.5487920000000 1.0
C      1  0.4090180000000  0.4444240000000  0.5182310000000 1.0
C      1  0.5691150000000  0.4607200000000  0.4366770000000 1.0
C      1  0.5163980000000  0.3881840000000  0.5223740000000 1.0
C      1  0.5911360000000  0.4986420000000  0.4539730000000 1.0
C      1  0.5101690000000  0.4513270000000  0.4460480000000 1.0
C      1  0.5863850000000  0.4503060000000  0.4808990000000 1.0
C      1  0.4661170000000  0.4610340000000  0.5054990000000 1.0
C      1  0.5724360000000  0.4395820000000  0.4578660000000 1.0
C      1  0.5054360000000  0.5546830000000  0.4020590000000 1.0
C      1  0.4987600000000  0.6050670000000  0.5159360000000 1.0
C      1  0.4609220000000  0.5038480000000  0.5410990000000 1.0
C      1  0.5660620000000  0.5671070000000  0.4868050000000 1.0
C      1  0.5140410000000  0.4944570000000  0.4792760000000 1.0
C      1  0.4419300000000  0.4922380000000  0.4407700000000 1.0
C      1  0.5302350000000  0.5142100000000  0.5732920000000 1.0
C      1  0.4464220000000  0.4971350000000  0.5823680000000 1.0
C      1  0.4396350000000  0.5384280000000  0.5186940000000 1.0
C      1  0.4392100000000  0.4316130000000  0.5269070000000 1.0
C      1  0.5513380000000  0.5389960000000  0.5316200000000 1.0
C      1  0.5149910000000  0.4823000000000  0.5968180000000 1.0
C      1  0.4847370000000  0.5001940000000  0.4077840000000 1.0
C      1  0.5148270000000  0.5387080000000  0.4373270000000 1.0
C      1  0.4773590000000  0.4285350000000  0.4449730000000 1.0
C      1  0.5700400000000  0.5336600000000  0.5079210000000 1.0
C      1  0.5359240000000  0.5817610000000  0.4487830000000 1.0
C      1  0.5062840000000  0.3973820000000  0.4803360000000 1.0
C      1  0.5861970000000  0.5471740000000  0.4417380000000 1.0
C      1  0.4642240000000  0.4293510000000  0.4961550000000 1.0
C      1  0.4548570000000  0.5113940000000  0.4013370000000 1.0
C      1  0.4676340000000  0.5777650000000  0.4548170000000 1.0
C      1  0.5349560000000  0.4840140000000  0.4968420000000 1.0
C      1  0.4779490000000  0.4216860000000  0.4130100000000 1.0
C      1  0.5034630000000  0.5443900000000  0.5275830000000 1.0
C      1  0.4943990000000  0.5646670000000  0.4713140000000 1.0
C      1  0.5390900000000  0.4134390000000  0.4292960000000 1.0
C      1  0.5102920000000  0.5226520000000  0.4100210000000 1.0
C      1  0.5065340000000  0.4173400000000  0.4202490000000 1.0
C      1  0.5493850000000  0.5230400000000  0.4481560000000 1.0
C      1  0.5669680000000  0.4764420000000  0.4131770000000 1.0
C      1  0.5030080000000  0.4922750000000  0.5191600000000 1.0
C      1  0.5619950000000  0.4909910000000  0.4683810000000 1.0
C      1  0.6055100000000  0.4880280000000  0.5302180000000 1.0
C      1  0.5681930000000  0.4907170000000  0.4997260000000 1.0
C      1  0.5536590000000  0.4508210000000  0.5248870000000 1.0
C      1  0.5492940000000  0.4806580000000  0.5949790000000 1.0
C      1  0.5315760000000  0.5228740000000  0.5091350000000 1.0
C      1  0.4202740000000  0.5607410000000  0.4499670000000 1.0
C      1  0.4530400000000  0.5534780000000  0.5404340000000 1.0
C      1  0.4771880000000  0.4592400000000  0.4484140000000 1.0
C      1  0.5272470000000  0.4419250000000  0.4181370000000 1.0
C      1  0.5705260000000  0.5557930000000  0.5545840000000 1.0
C      1  0.5456590000000  0.5530360000000  0.4376950000000 1.0
C      1  0.4595360000000  0.4936990000000  0.4835730000000 1.0
C      1  0.4759370000000  0.4925430000000  0.4397400000000 1.0
C      1  0.4225430000000  0.5677570000000  0.4773680000000 1.0
C      1  0.5691360000000  0.5759490000000  0.4480280000000 1.0
C      1  0.5391140000000  0.5594830000000  0.4957040000000 1.0
C      1  0.4272070000000  0.5078140000000  0.5200910000000 1.0
C      1  0.4992710000000  0.4915580000000  0.3782650000000 1.0
C      1  0.4412040000000  0.4393560000000  0.4324140000000 1.0
C      1  0.5110380000000  0.5930490000000  0.4799230000000 1.0
C      1  0.4634330000000  0.4484920000000  0.5470690000000 1.0
C      1  0.4627240000000  0.4520720000000  0.4119540000000 1.0
C      1  0.4796510000000  0.5504500000000  0.5824560000000 1.0
C      1  0.4784100000000  0.3798530000000  0.4821120000000 1.0
C      1  0.5210060000000  0.5233880000000  0.4670530000000 1.0
C      1  0.4310840000000  0.5167280000000  0.5511790000000 1.0
C      1  0.4509950000000  0.5370400000000  0.4124670000000 1.0
C      1  0.5808810000000  0.4779060000000  0.5596720000000 1.0
C      1  0.5159850000000  0.5666040000000  0.5845100000000 1.0
C      1  0.4642800000000  0.6089710000000  0.4622050000000 1.0
C      1  0.5060380000000  0.4951200000000  0.5588090000000 1.0
C      1  0.4450100000000  0.3993990000000  0.5485780000000 1.0
C      1  0.5606960000000  0.5232840000000  0.4783230000000 1.0
C      1  0.4618220000000  0.4070810000000  0.5200350000000 1.0
C      1  0.4208660000000  0.6143100000000  0.5067540000000 1.0
C      1  0.5463130000000  0.5695470000000  0.5741040000000 1.0
C      1  0.4136460000000  0.5464410000000  0.4982830000000 1.0
C      1  0.4105690000000  0.4663960000000  0.5442170000000 1.0
C      1  0.5062640000000  0.4557470000000  0.6111430000000 1.0
C      1  0.5315640000000  0.6141700000000  0.5152850000000 1.0
C      1  0.5361760000000  0.5111480000000  0.3990580000000 1.0
C      1  0.4538520000000  0.5450180000000  0.4913530000000 1.0
C      1  0.5304920000000  0.4802080000000  0.4281320000000 1.0
C      1  0.4880660000000  0.4451100000000  0.5238680000000 1.0
C      1  0.4059610000000  0.5384040000000  0.4440500000000 1.0
C      1  0.4394310000000  0.4281720000000  0.5600510000000 1.0
C      1  0.4462620000000  0.5186210000000  0.4712070000000 1.0
C      1  0.6019440000000  0.5287320000000  0.4970810000000 1.0
C      1  0.4578760000000  0.3858010000000  0.4651660000000 1.0
C      1  0.5624070000000  0.5032220000000  0.5739200000000 1.0
C      1  0.5100190000000  0.4461220000000  0.4979090000000 1.0
C      1  0.4878830000000  0.4770710000000  0.4848780000000 1.0
C      1  0.5302980000000  0.4747030000000  0.5674080000000 1.0
C      1  0.4812510000000  0.5984990000000  0.5405970000000 1.0
C      1  0.5917040000000  0.5598780000000  0.5079400000000 1.0
C      1  0.4789830000000  0.4784770000000  0.5547440000000 1.0
C      1  0.4390030000000  0.5960380000000  0.5096470000000 1.0
C      1  0.5847430000000  0.5444880000000  0.4723430000000 1.0
C      1  0.4058270000000  0.5564520000000  0.5298240000000 1.0
C      1  0.4212960000000  0.4825580000000  0.5694020000000 1.0
C      1  0.4958180000000  0.5635210000000  0.4303020000000 1.0
C      1  0.5644790000000  0.5961390000000  0.4751470000000 1.0
C      1  0.4716200000000  0.4898160000000  0.6020440000000 1.0
C      1  0.5489390000000  0.5882900000000  0.5464080000000 1.0
C      1  0.5360290000000  0.4109770000000  0.4776500000000 1.0
C      1  0.4381700000000  0.5690790000000  0.5667360000000 1.0
C      1  0.5550690000000  0.5991660000000  0.5077740000000 1.0
C      1  0.4810130000000  0.5270350000000  0.4884500000000 1.0
C      1  0.5398200000000  0.4645710000000  0.3994120000000 1.0
C      1  0.5423690000000  0.4367360000000  0.5642970000000 1.0
C      1  0.4764620000000  0.5049880000000  0.5108640000000 1.0
C      1  0.5277370000000  0.4432890000000  0.4718050000000 1.0
C      1  0.4699370000000  0.4649570000000  0.5827450000000 1.0
C      1  0.5270150000000  0.4885070000000  0.3831910000000 1.0
C      1  0.5693680000000  0.5742080000000  0.5259160000000 1.0
C      1  0.5153410000000  0.5366160000000  0.5940950000000 1.0
C      1  0.4868450000000  0.5819090000000  0.5931620000000 1.0
C      1  0.5059110000000  0.4206430000000  0.5656040000000 1.0
C      1  0.5210760000000  0.3981640000000  0.5525330000000 1.0
C      1  0.5481680000000  0.4973070000000  0.5242050000000 1.0
C      1  0.5945680000000  0.4593870000000  0.5343100000000 1.0
C      1  0.4493000000000  0.4139720000000  0.4535510000000 1.0
C      1  0.4461090000000  0.5616830000000  0.4357390000000 1.0
C      1  0.5594820000000  0.5075490000000  0.4195880000000 1.0
C      1  0.4732800000000  0.5433860000000  0.4357510000000 1.0
C      1  0.5545610000000  0.4490250000000  0.5860000000000 1.0
C      1  0.5211540000000  0.5689830000000  0.5430400000000 1.0
C      1  0.5324020000000  0.4263740000000  0.5271120000000 1.0
C      1  0.4019200000000  0.5096240000000  0.5676340000000 1.0
C      1  0.4215290000000  0.5777490000000  0.5406100000000 1.0
C      1  0.5816260000000  0.5285820000000  0.5646520000000 1.0
C      1  0.5443460000000  0.4687040000000  0.4570610000000 1.0
C      1  0.4831540000000  0.4186810000000  0.4742000000000 1.0
C      1  0.3866640000000  0.4994020000000  0.4915180000000 1.0
C      1  0.4840330000000  0.3865560000000  0.5117030000000 1.0
C      1  0.5338400000000  0.5417000000000  0.5591000000000 1.0
C      1  0.4540290000000  0.5865800000000  0.5350560000000 1.0
C      1  0.4979200000000  0.5834870000000  0.5611650000000 1.0
C      1  0.5440340000000  0.3964220000000  0.5037840000000 1.0
C      1  0.4399290000000  0.4354900000000  0.4763120000000 1.0
C      1  0.4794860000000  0.6016270000000  0.4892620000000 1.0
C      1  0.4480360000000  0.4809410000000  0.5195190000000 1.0
C      1  0.5170810000000  0.5776930000000  0.5104250000000 1.0
C      1  0.4789550000000  0.5410050000000  0.5503460000000 1.0
C      1  0.5001870000000  0.4333790000000  0.5967850000000 1.0
C      1  0.4035780000000  0.5349130000000  0.5471180000000 1.0
C      1  0.5032860000000  0.4729620000000  0.4131260000000 1.0
C      1  0.5055320000000  0.5877270000000  0.4467870000000 1.0
C      1  0.4271780000000  0.4626450000000  0.4486960000000 1.0
C      1  0.5227690000000  0.4647630000000  0.5220980000000 1.0
C      1  0.4084170000000  0.4838550000000  0.5209270000000 1.0
C      1  0.5071620000000  0.4848640000000  0.4508130000000 1.0
C      1  0.5806010000000  0.4400600000000  0.5107320000000 1.0
C      1  0.4537360000000  0.4654040000000  0.4678100000000 1.0
C      1  0.5673370000000  0.4097780000000  0.5187680000000 1.0
C      1  0.5146090000000  0.5152400000000  0.5364950000000 1.0
C      1  0.4035630000000  0.5199590000000  0.4837340000000 1.0
C      1  0.4536580000000  0.5785850000000  0.4858010000000 1.0
C      1  0.4507150000000  0.4793700000000  0.4107270000000 1.0
C      1  0.4764040000000  0.4331120000000  0.5744850000000 1.0
END
