TITL C-2622962-9663-488 -0.000806058873924619 125000 -449.102017195063 0 0 82 (C1) n - 1
REM
REM in /nfs/bkarasulu/CARBON/AIRSS/Generating-Clusters/AIREBO/with-SteepDescent/Higher-Symm/SD-CG/HFTN-CG
REM
REM
REM
REM
REM
REM ./C.cell (b20cbc046b6831c77cfcea5457e17084)
REM
REM compiler GCC version 9.2.1 20190827 (Red Hat 9.2.1-1)
REM options -cpp -mtune=generic -march=x86-64 -g -O0 -fpre-include=/usr/include/finclude/math-vector-fortran.h
REM seed -1202606913 178377034 1359670052 917717814 667838423 2057136741 1601839161 1079864827 -547068791 -1514981848 263264884 -908786706 -6605780 -1209109772 1324774835 -1491802110 496865133 1736098761 2022224549 -663288661 1640935806 -1425216024 -216245562 -943027563 1397529428 -51394063 -536748940 -1359696171 -1482757355 807381453 -2040529955 -1707620921 821328946
REM
CELL 1.54180   50.00000   50.00000   50.00000   90.00000   90.00000   90.00000
LATT -1
SFAC C  
C      1  0.4898350000000  0.4675510000000  0.5584010000000 1.0
C      1  0.5335740000000  0.5096480000000  0.5593260000000 1.0
C      1  0.4765650000000  0.5251760000000  0.5580750000000 1.0
C      1  0.5182280000000  0.5019940000000  0.4091530000000 1.0
C      1  0.4895380000000  0.5377870000000  0.4242760000000 1.0
C      1  0.4742910000000  0.4860110000000  0.4192210000000 1.0
C      1  0.4298630000000  0.4954630000000  0.5221160000000 1.0
C      1  0.5363500000000  0.4454820000000  0.5274880000000 1.0
C      1  0.5318260000000  0.5608250000000  0.5185500000000 1.0
C      1  0.5294580000000  0.4619620000000  0.4812260000000 1.0
C      1  0.5249950000000  0.5429290000000  0.4827040000000 1.0
C      1  0.4456560000000  0.4999010000000  0.4857390000000 1.0
C      1  0.4406650000000  0.5237620000000  0.5352340000000 1.0
C      1  0.5080380000000  0.4305430000000  0.5327360000000 1.0
C      1  0.5489030000000  0.5370380000000  0.5338720000000 1.0
C      1  0.4411970000000  0.4874390000000  0.5517650000000 1.0
C      1  0.5402550000000  0.4558300000000  0.5572060000000 1.0
C      1  0.5191870000000  0.5583100000000  0.5496910000000 1.0
C      1  0.4924980000000  0.4248280000000  0.4734080000000 1.0
C      1  0.5749720000000  0.5246290000000  0.4762100000000 1.0
C      1  0.4340710000000  0.5501940000000  0.4784170000000 1.0
C      1  0.5065330000000  0.5276950000000  0.5493630000000 1.0
C      1  0.4735600000000  0.4924380000000  0.5493900000000 1.0
C      1  0.5203270000000  0.4821780000000  0.5510570000000 1.0
C      1  0.5763300000000  0.5135710000000  0.5032350000000 1.0
C      1  0.4502720000000  0.5595330000000  0.5004550000000 1.0
C      1  0.4750230000000  0.4288400000000  0.4976270000000 1.0
C      1  0.5160480000000  0.5254780000000  0.4260730000000 1.0
C      1  0.4695080000000  0.5169210000000  0.4250080000000 1.0
C      1  0.5019580000000  0.4803300000000  0.4188530000000 1.0
C      1  0.4708680000000  0.5892450000000  0.5175260000000 1.0
C      1  0.4399140000000  0.4310980000000  0.5166090000000 1.0
C      1  0.5923100000000  0.4775580000000  0.5220760000000 1.0
C      1  0.4532970000000  0.4772020000000  0.5054760000000 1.0
C      1  0.5435950000000  0.4694620000000  0.5060630000000 1.0
C      1  0.5031530000000  0.5520710000000  0.5035280000000 1.0
C      1  0.5366060000000  0.5391700000000  0.5718470000000 1.0
C      1  0.4497590000000  0.5130760000000  0.5726130000000 1.0
C      1  0.5122170000000  0.4532210000000  0.5762660000000 1.0
C      1  0.5448810000000  0.4706130000000  0.4529850000000 1.0
C      1  0.4860530000000  0.5597380000000  0.4419180000000 1.0
C      1  0.4578900000000  0.4723410000000  0.4454160000000 1.0
C      1  0.4491680000000  0.4483940000000  0.4903240000000 1.0
C      1  0.5752240000000  0.4721640000000  0.4969800000000 1.0
C      1  0.4800700000000  0.5716310000000  0.4919230000000 1.0
C      1  0.5580520000000  0.5469370000000  0.4754490000000 1.0
C      1  0.4234610000000  0.5253580000000  0.4817200000000 1.0
C      1  0.5192110000000  0.4299460000000  0.4804590000000 1.0
C      1  0.5013760000000  0.4815250000000  0.5228180000000 1.0
C      1  0.5169500000000  0.5104030000000  0.5229970000000 1.0
C      1  0.4836760000000  0.5096150000000  0.5219690000000 1.0
C      1  0.4633930000000  0.5477740000000  0.5391040000000 1.0
C      1  0.4800860000000  0.4454390000000  0.5383330000000 1.0
C      1  0.5602300000000  0.5064570000000  0.5410850000000 1.0
C      1  0.5637130000000  0.4447860000000  0.4586570000000 1.0
C      1  0.5086130000000  0.5763630000000  0.4473970000000 1.0
C      1  0.4265840000000  0.4742650000000  0.4481570000000 1.0
C      1  0.5481630000000  0.5729000000000  0.4936050000000 1.0
C      1  0.4084380000000  0.5017010000000  0.4988150000000 1.0
C      1  0.5446870000000  0.4300610000000  0.4994770000000 1.0
C      1  0.4736410000000  0.5360480000000  0.5088770000000 1.0
C      1  0.4828430000000  0.4605520000000  0.5079980000000 1.0
C      1  0.5449070000000  0.5030930000000  0.5109190000000 1.0
C      1  0.5620680000000  0.4924010000000  0.4727380000000 1.0
C      1  0.4673800000000  0.5556090000000  0.4647620000000 1.0
C      1  0.4708930000000  0.4494930000000  0.4639620000000 1.0
C      1  0.5285120000000  0.5717800000000  0.4664480000000 1.0
C      1  0.4189990000000  0.4878120000000  0.4702940000000 1.0
C      1  0.5666350000000  0.4424840000000  0.4863310000000 1.0
C      1  0.4370220000000  0.4569630000000  0.5565990000000 1.0
C      1  0.5692990000000  0.4650580000000  0.5620100000000 1.0
C      1  0.4964290000000  0.5783290000000  0.5556210000000 1.0
C      1  0.5369900000000  0.5132230000000  0.4794390000000 1.0
C      1  0.4650100000000  0.5248740000000  0.4779380000000 1.0
C      1  0.4974290000000  0.4640960000000  0.4774710000000 1.0
C      1  0.4705840000000  0.5027120000000  0.4549830000000 1.0
C      1  0.5115490000000  0.4682240000000  0.4466820000000 1.0
C      1  0.5200030000000  0.5166330000000  0.4534400000000 1.0
C      1  0.4506070000000  0.4394700000000  0.5404920000000 1.0
C      1  0.5789830000000  0.4842540000000  0.5451200000000 1.0
C      1  0.4732590000000  0.5757730000000  0.5413830000000 1.0
C      1  0.5000650000000  0.4965470000000  0.4553480000000 1.0
END
