TITL C-2622955-8511-25 -0.0012324333886913 125000 -640.206611992787 0 0 114 (C1) n - 1
REM
REM in /nfs/bkarasulu/CARBON/AIRSS/Generating-Clusters/AIREBO/with-SteepDescent/Higher-Symm/SD-CG/HFTN-CG
REM
REM
REM
REM
REM
REM ./C.cell (b20cbc046b6831c77cfcea5457e17084)
REM
REM compiler GCC version 9.2.1 20190827 (Red Hat 9.2.1-1)
REM options -cpp -mtune=generic -march=x86-64 -g -O0 -fpre-include=/usr/include/finclude/math-vector-fortran.h
REM seed -1500743491 656362815 -823605850 -1610099113 282432382 -1335936627 -976754119 -793416645 -1217970860 1935158972 87850505 -731533588 -1813259162 -588895842 -295674795 1054358489 382712209 -490110352 739249870 1453292025 -723892921 -28850165 1142677058 2090308485 -1554579897 607709327 1336707493 837258743 1280356960 1119040657 1358409072 1485291260 -1962720496
REM
CELL 1.54180   50.00000   50.00000   50.00000   90.00000   90.00000   90.00000
LATT -1
SFAC C  
C      1  0.4110370000000  0.4684600000000  0.4854030000000 1.0
C      1  0.4593840000000  0.4152810000000  0.4745280000000 1.0
C      1  0.5608000000000  0.4278610000000  0.4817050000000 1.0
C      1  0.5917510000000  0.5039580000000  0.4781820000000 1.0
C      1  0.5590340000000  0.5696940000000  0.4838540000000 1.0
C      1  0.4796850000000  0.5866720000000  0.4713800000000 1.0
C      1  0.4294620000000  0.5424220000000  0.4755590000000 1.0
C      1  0.4426430000000  0.4634270000000  0.4796650000000 1.0
C      1  0.5239800000000  0.4358960000000  0.4685900000000 1.0
C      1  0.5635240000000  0.4576480000000  0.4748020000000 1.0
C      1  0.5671530000000  0.5227000000000  0.4783170000000 1.0
C      1  0.5278760000000  0.5605700000000  0.4797150000000 1.0
C      1  0.4608670000000  0.5662090000000  0.4696660000000 1.0
C      1  0.4296370000000  0.5083780000000  0.4757110000000 1.0
C      1  0.5745020000000  0.4578520000000  0.5287850000000 1.0
C      1  0.5818860000000  0.5288250000000  0.5248720000000 1.0
C      1  0.5306160000000  0.5777570000000  0.5301450000000 1.0
C      1  0.4624850000000  0.5813390000000  0.5201360000000 1.0
C      1  0.4039520000000  0.5200830000000  0.5143720000000 1.0
C      1  0.4386880000000  0.4415330000000  0.5295560000000 1.0
C      1  0.5061420000000  0.4130530000000  0.5090710000000 1.0
C      1  0.5366180000000  0.4941900000000  0.5546870000000 1.0
C      1  0.5240910000000  0.5196020000000  0.5633180000000 1.0
C      1  0.4946270000000  0.5298240000000  0.5684800000000 1.0
C      1  0.4710120000000  0.5094010000000  0.5697090000000 1.0
C      1  0.4567520000000  0.5069300000000  0.5421740000000 1.0
C      1  0.5091230000000  0.4916470000000  0.5202150000000 1.0
C      1  0.5250130000000  0.4682210000000  0.5624150000000 1.0
C      1  0.5262550000000  0.5297450000000  0.4703290000000 1.0
C      1  0.4712770000000  0.5405620000000  0.4600540000000 1.0
C      1  0.4614790000000  0.5192190000000  0.4807050000000 1.0
C      1  0.4646640000000  0.4861430000000  0.4779710000000 1.0
C      1  0.5119990000000  0.4633270000000  0.4733120000000 1.0
C      1  0.5384250000000  0.4800820000000  0.4699400000000 1.0
C      1  0.5407870000000  0.5067620000000  0.4859640000000 1.0
C      1  0.5281180000000  0.5355250000000  0.5335300000000 1.0
C      1  0.4922820000000  0.5511210000000  0.5499690000000 1.0
C      1  0.4479670000000  0.5353590000000  0.5279540000000 1.0
C      1  0.4523400000000  0.4788860000000  0.5299680000000 1.0
C      1  0.4883570000000  0.4341300000000  0.5281020000000 1.0
C      1  0.5380280000000  0.4462740000000  0.5399200000000 1.0
C      1  0.5590540000000  0.4970550000000  0.5318680000000 1.0
C      1  0.4810240000000  0.5816190000000  0.5486400000000 1.0
C      1  0.4318740000000  0.5421010000000  0.5639380000000 1.0
C      1  0.4328980000000  0.4805570000000  0.5591480000000 1.0
C      1  0.4934560000000  0.4300500000000  0.5575140000000 1.0
C      1  0.5529930000000  0.4411710000000  0.5700400000000 1.0
C      1  0.5720540000000  0.4996120000000  0.5624650000000 1.0
C      1  0.5447860000000  0.5574650000000  0.5534680000000 1.0
C      1  0.5305350000000  0.4560640000000  0.4273280000000 1.0
C      1  0.5450750000000  0.5221050000000  0.3975130000000 1.0
C      1  0.5263260000000  0.5416230000000  0.4031170000000 1.0
C      1  0.4857560000000  0.5124630000000  0.4016220000000 1.0
C      1  0.4375180000000  0.5113180000000  0.4105760000000 1.0
C      1  0.4349390000000  0.4881270000000  0.4233260000000 1.0
C      1  0.5017570000000  0.4567640000000  0.4249830000000 1.0
C      1  0.4875320000000  0.5872110000000  0.4988300000000 1.0
C      1  0.4220550000000  0.5415050000000  0.5087310000000 1.0
C      1  0.4249210000000  0.4682590000000  0.5151830000000 1.0
C      1  0.4743640000000  0.4178360000000  0.5030230000000 1.0
C      1  0.5566950000000  0.4317760000000  0.5154620000000 1.0
C      1  0.5839260000000  0.4980360000000  0.5102910000000 1.0
C      1  0.5480920000000  0.5570840000000  0.5137440000000 1.0
C      1  0.5631510000000  0.4171160000000  0.4501700000000 1.0
C      1  0.5942980000000  0.4892210000000  0.4559080000000 1.0
C      1  0.5612330000000  0.5634670000000  0.4542360000000 1.0
C      1  0.4991250000000  0.5853830000000  0.4506410000000 1.0
C      1  0.4349190000000  0.5460480000000  0.4443530000000 1.0
C      1  0.3953600000000  0.4695520000000  0.4596530000000 1.0
C      1  0.4651250000000  0.4200580000000  0.4484610000000 1.0
C      1  0.5132970000000  0.5381960000000  0.4329320000000 1.0
C      1  0.4817580000000  0.5262380000000  0.4310490000000 1.0
C      1  0.4818720000000  0.4993610000000  0.4526180000000 1.0
C      1  0.4987520000000  0.5230170000000  0.4669420000000 1.0
C      1  0.4915340000000  0.4704120000000  0.4528710000000 1.0
C      1  0.5433880000000  0.4845190000000  0.4371610000000 1.0
C      1  0.5380880000000  0.5145650000000  0.4299220000000 1.0
C      1  0.5722760000000  0.4747790000000  0.4497080000000 1.0
C      1  0.5532540000000  0.5353740000000  0.4506880000000 1.0
C      1  0.5150510000000  0.5630220000000  0.4511730000000 1.0
C      1  0.4489440000000  0.5327270000000  0.4249500000000 1.0
C      1  0.4226090000000  0.4884280000000  0.4530120000000 1.0
C      1  0.4713870000000  0.4481950000000  0.4379520000000 1.0
C      1  0.5388460000000  0.4342600000000  0.4448550000000 1.0
C      1  0.4701920000000  0.4952100000000  0.5979130000000 1.0
C      1  0.4746970000000  0.4684800000000  0.5985440000000 1.0
C      1  0.5027630000000  0.4565760000000  0.5853840000000 1.0
C      1  0.5301130000000  0.4697960000000  0.5959950000000 1.0
C      1  0.5323700000000  0.4941190000000  0.6075430000000 1.0
C      1  0.5194900000000  0.5157610000000  0.5959780000000 1.0
C      1  0.4891940000000  0.5202630000000  0.6007120000000 1.0
C      1  0.4795400000000  0.4643740000000  0.5216120000000 1.0
C      1  0.5060910000000  0.4647940000000  0.5015830000000 1.0
C      1  0.5343090000000  0.4689000000000  0.5180290000000 1.0
C      1  0.5348300000000  0.5087100000000  0.5160520000000 1.0
C      1  0.4975180000000  0.5421380000000  0.5202620000000 1.0
C      1  0.4732460000000  0.5260170000000  0.5111520000000 1.0
C      1  0.4798160000000  0.4945170000000  0.5058160000000 1.0
C      1  0.5663960000000  0.5311720000000  0.5509740000000 1.0
C      1  0.5136370000000  0.5738640000000  0.5567290000000 1.0
C      1  0.4537600000000  0.5611660000000  0.5460870000000 1.0
C      1  0.4321790000000  0.5144190000000  0.5621530000000 1.0
C      1  0.4449570000000  0.4505260000000  0.5569010000000 1.0
C      1  0.5215980000000  0.4284940000000  0.5638000000000 1.0
C      1  0.5687360000000  0.4664150000000  0.5555910000000 1.0
C      1  0.4474680000000  0.5612410000000  0.4977450000000 1.0
C      1  0.4135600000000  0.4971220000000  0.5011520000000 1.0
C      1  0.4488770000000  0.4384870000000  0.4972780000000 1.0
C      1  0.5307320000000  0.4212790000000  0.4961490000000 1.0
C      1  0.5627450000000  0.4731020000000  0.5008790000000 1.0
C      1  0.5731420000000  0.5440120000000  0.4997270000000 1.0
C      1  0.5107140000000  0.5678710000000  0.5046570000000 1.0
C      1  0.4488450000000  0.4675440000000  0.4464450000000 1.0
C      1  0.4723250000000  0.4525140000000  0.5702440000000 1.0
END
