TITL C-2622959-7779-182 -0.000276667622184437 125000 -200.019120865083 0 0 41 (C1) n - 1
REM
REM in /nfs/bkarasulu/CARBON/AIRSS/Generating-Clusters/AIREBO/with-SteepDescent/Higher-Symm/SD-CG/HFTN-CG
REM
REM
REM
REM
REM
REM ./C.cell (b20cbc046b6831c77cfcea5457e17084)
REM
REM compiler GCC version 9.2.1 20190827 (Red Hat 9.2.1-1)
REM options -cpp -mtune=generic -march=x86-64 -g -O0 -fpre-include=/usr/include/finclude/math-vector-fortran.h
REM seed -1434826054 -801108934 -423815600 1321078800 956784465 -1541605735 1469842393 1478429931 -896095842 -1108401087 -541131396 1398756232 487593792 -1970752920 -466768649 -1049183603 655428114 1032221913 -971258194 1503435602 -124971255 -606252375 491252777 -112137179 1768840499 -1308740776 984655752 -72459869 151721271 -505039002 787818810 -2144194248 -1325770510
REM
CELL 1.54180   50.00000   50.00000   50.00000   90.00000   90.00000   90.00000
LATT -1
SFAC C  
C      1  0.4614830000000  0.4550770000000  0.5084270000000 1.0
C      1  0.5038160000000  0.4616450000000  0.5493560000000 1.0
C      1  0.5454230000000  0.4589310000000  0.5210070000000 1.0
C      1  0.5287530000000  0.4578000000000  0.4620800000000 1.0
C      1  0.4715230000000  0.4538920000000  0.4585330000000 1.0
C      1  0.4751560000000  0.4690320000000  0.5339780000000 1.0
C      1  0.5299660000000  0.4708840000000  0.5419770000000 1.0
C      1  0.5458500000000  0.4689050000000  0.4892900000000 1.0
C      1  0.4985100000000  0.4679060000000  0.4539490000000 1.0
C      1  0.4569480000000  0.4640360000000  0.4811120000000 1.0
C      1  0.4592210000000  0.5287800000000  0.5249400000000 1.0
C      1  0.5113020000000  0.5234220000000  0.5488180000000 1.0
C      1  0.5452100000000  0.5379200000000  0.5060150000000 1.0
C      1  0.5249370000000  0.5237940000000  0.4576370000000 1.0
C      1  0.4713340000000  0.5195830000000  0.4712610000000 1.0
C      1  0.5331940000000  0.4985330000000  0.5424940000000 1.0
C      1  0.5580390000000  0.5124030000000  0.4878860000000 1.0
C      1  0.5200270000000  0.4925380000000  0.4442790000000 1.0
C      1  0.4530350000000  0.4923460000000  0.4802230000000 1.0
C      1  0.4601540000000  0.4984000000000  0.5401810000000 1.0
C      1  0.4516930000000  0.5361380000000  0.4935500000000 1.0
C      1  0.4798420000000  0.5325000000000  0.5499570000000 1.0
C      1  0.5329480000000  0.5446920000000  0.5362660000000 1.0
C      1  0.5416070000000  0.5457050000000  0.4735700000000 1.0
C      1  0.4940440000000  0.5332120000000  0.4499270000000 1.0
C      1  0.5294400000000  0.5109270000000  0.5154390000000 1.0
C      1  0.5363100000000  0.4960080000000  0.4735980000000 1.0
C      1  0.4967280000000  0.4971270000000  0.4686160000000 1.0
C      1  0.4669960000000  0.5015790000000  0.5065790000000 1.0
C      1  0.4938550000000  0.4978810000000  0.5356840000000 1.0
C      1  0.4977820000000  0.4167970000000  0.5007040000000 1.0
C      1  0.5057700000000  0.4422190000000  0.5012410000000 1.0
C      1  0.5026720000000  0.6359980000000  0.5077160000000 1.0
C      1  0.5006310000000  0.4987190000000  0.5023570000000 1.0
C      1  0.4969400000000  0.5839670000000  0.5009570000000 1.0
C      1  0.4926920000000  0.5315630000000  0.4948540000000 1.0
C      1  0.4781600000000  0.3678040000000  0.5001610000000 1.0
C      1  0.4877980000000  0.3921280000000  0.5017160000000 1.0
C      1  0.5140280000000  0.4677050000000  0.4979060000000 1.0
C      1  0.5005940000000  0.6099750000000  0.5053780000000 1.0
C      1  0.4958440000000  0.5576330000000  0.4970780000000 1.0
END
