TITL C-2622953-3516-554 0.0023848579233988 125000 -712.267333630376 0 0 135 (C1) n - 1
REM
REM in /nfs/bkarasulu/CARBON/AIRSS/Generating-Clusters/AIREBO/with-SteepDescent/Higher-Symm/SD-CG/HFTN-CG
REM
REM
REM
REM
REM
REM ./C.cell (b20cbc046b6831c77cfcea5457e17084)
REM
REM compiler GCC version 9.2.1 20190827 (Red Hat 9.2.1-1)
REM options -cpp -mtune=generic -march=x86-64 -g -O0 -fpre-include=/usr/include/finclude/math-vector-fortran.h
REM seed 1823719274 1363079973 -1406432472 305617265 820949180 -1854195712 -283765847 -1490857740 495804914 1311584314 418350911 156040349 1692871722 142000429 -1336562387 -727826516 -1730863476 1582909905 2122492695 746380769 683782719 1145447728 188446595 1046909343 1120137652 -340277102 469178389 159494377 -1390257084 -549534125 -1862260685 -1808290106 1717512054
REM
CELL 1.54180   50.00000   50.00000   50.00000   90.00000   90.00000   90.00000
LATT -1
SFAC C  
C      1  0.4543900000000  0.5382770000000  0.5685930000000 1.0
C      1  0.4524460000000  0.4199930000000  0.4998380000000 1.0
C      1  0.4470750000000  0.5407510000000  0.4282420000000 1.0
C      1  0.5537930000000  0.4860890000000  0.5956440000000 1.0
C      1  0.5607540000000  0.4292220000000  0.4216300000000 1.0
C      1  0.5550770000000  0.5891960000000  0.4744480000000 1.0
C      1  0.4816690000000  0.4442710000000  0.5181930000000 1.0
C      1  0.4722280000000  0.5114840000000  0.4383150000000 1.0
C      1  0.4782070000000  0.5458820000000  0.5354710000000 1.0
C      1  0.4633740000000  0.4835510000000  0.5506930000000 1.0
C      1  0.4601290000000  0.4600340000000  0.4585930000000 1.0
C      1  0.4642920000000  0.5562780000000  0.4843980000000 1.0
C      1  0.5955700000000  0.4952100000000  0.4743560000000 1.0
C      1  0.5909270000000  0.5228070000000  0.5170270000000 1.0
C      1  0.6045450000000  0.4747310000000  0.5255900000000 1.0
C      1  0.5114400000000  0.4439760000000  0.4852700000000 1.0
C      1  0.5094660000000  0.5347940000000  0.4521630000000 1.0
C      1  0.5107100000000  0.5212050000000  0.5503500000000 1.0
C      1  0.5446340000000  0.4413180000000  0.4435940000000 1.0
C      1  0.5359570000000  0.5645540000000  0.4652040000000 1.0
C      1  0.5347440000000  0.4962840000000  0.5696770000000 1.0
C      1  0.5033880000000  0.4686840000000  0.5862800000000 1.0
C      1  0.4947650000000  0.4349390000000  0.4274980000000 1.0
C      1  0.5018270000000  0.5890910000000  0.4750020000000 1.0
C      1  0.4794910000000  0.4556100000000  0.4861970000000 1.0
C      1  0.4780830000000  0.5354350000000  0.4617380000000 1.0
C      1  0.4794160000000  0.5131610000000  0.5457800000000 1.0
C      1  0.4814060000000  0.4240720000000  0.5452420000000 1.0
C      1  0.4766950000000  0.4964020000000  0.4080980000000 1.0
C      1  0.4816140000000  0.5788620000000  0.5437450000000 1.0
C      1  0.5067610000000  0.5578870000000  0.5208220000000 1.0
C      1  0.5088570000000  0.4550410000000  0.5314020000000 1.0
C      1  0.4976740000000  0.4932950000000  0.4444810000000 1.0
C      1  0.5470300000000  0.4749590000000  0.4479710000000 1.0
C      1  0.5479260000000  0.5615470000000  0.5172790000000 1.0
C      1  0.5594290000000  0.4590670000000  0.5488210000000 1.0
C      1  0.4898830000000  0.5466230000000  0.5841810000000 1.0
C      1  0.4877710000000  0.4029060000000  0.4964970000000 1.0
C      1  0.4820080000000  0.5495160000000  0.4124090000000 1.0
C      1  0.5397190000000  0.4344320000000  0.5501940000000 1.0
C      1  0.5267770000000  0.4945700000000  0.4289320000000 1.0
C      1  0.5308690000000  0.5674310000000  0.5428320000000 1.0
C      1  0.4596290000000  0.4349740000000  0.5665440000000 1.0
C      1  0.4531470000000  0.4720030000000  0.4106800000000 1.0
C      1  0.4596590000000  0.5906140000000  0.5205870000000 1.0
C      1  0.5275200000000  0.6011140000000  0.4790640000000 1.0
C      1  0.5193330000000  0.4444100000000  0.5763040000000 1.0
C      1  0.5033140000000  0.4542000000000  0.4057230000000 1.0
C      1  0.4148120000000  0.5585450000000  0.5284320000000 1.0
C      1  0.4206420000000  0.4593890000000  0.5415430000000 1.0
C      1  0.4101970000000  0.4928870000000  0.4363830000000 1.0
C      1  0.5706440000000  0.4788880000000  0.5717060000000 1.0
C      1  0.5922410000000  0.4641210000000  0.4608620000000 1.0
C      1  0.5670710000000  0.5663630000000  0.4900630000000 1.0
C      1  0.4600470000000  0.4753430000000  0.5059650000000 1.0
C      1  0.4521460000000  0.4964420000000  0.4671610000000 1.0
C      1  0.4551450000000  0.5295030000000  0.5099270000000 1.0
C      1  0.5551290000000  0.5159280000000  0.4784330000000 1.0
C      1  0.5629570000000  0.5097100000000  0.5315770000000 1.0
C      1  0.5537020000000  0.4667470000000  0.4977650000000 1.0
C      1  0.4203780000000  0.5117480000000  0.5454540000000 1.0
C      1  0.4176430000000  0.4545570000000  0.4900350000000 1.0
C      1  0.4163470000000  0.5350080000000  0.4668750000000 1.0
C      1  0.4069100000000  0.4852680000000  0.4902240000000 1.0
C      1  0.4046030000000  0.5191820000000  0.4910580000000 1.0
C      1  0.4068770000000  0.5025190000000  0.5192940000000 1.0
C      1  0.5146030000000  0.4933360000000  0.4888560000000 1.0
C      1  0.5126290000000  0.5259620000000  0.4974710000000 1.0
C      1  0.5179430000000  0.4921740000000  0.5209190000000 1.0
C      1  0.5377120000000  0.5235580000000  0.4263860000000 1.0
C      1  0.5437850000000  0.5533690000000  0.5690160000000 1.0
C      1  0.5415560000000  0.4174330000000  0.5207940000000 1.0
C      1  0.4258510000000  0.5419990000000  0.5046420000000 1.0
C      1  0.4304690000000  0.4811310000000  0.5221200000000 1.0
C      1  0.4238990000000  0.4816680000000  0.4619400000000 1.0
C      1  0.4539220000000  0.4531720000000  0.5383950000000 1.0
C      1  0.4433320000000  0.4959320000000  0.4293920000000 1.0
C      1  0.4484710000000  0.5618220000000  0.5311780000000 1.0
C      1  0.4862280000000  0.4637240000000  0.4406090000000 1.0
C      1  0.4912200000000  0.5719580000000  0.4946850000000 1.0
C      1  0.4906660000000  0.4645680000000  0.5571720000000 1.0
C      1  0.5088150000000  0.4218760000000  0.5568110000000 1.0
C      1  0.5044280000000  0.4816630000000  0.4070220000000 1.0
C      1  0.5101970000000  0.5887780000000  0.5459640000000 1.0
C      1  0.5442640000000  0.5212670000000  0.5073610000000 1.0
C      1  0.5492310000000  0.4799630000000  0.5267040000000 1.0
C      1  0.5425580000000  0.4866540000000  0.4776340000000 1.0
C      1  0.5442700000000  0.5228340000000  0.5543320000000 1.0
C      1  0.5311250000000  0.4478420000000  0.5116500000000 1.0
C      1  0.5415430000000  0.5339180000000  0.4578550000000 1.0
C      1  0.6015680000000  0.5004510000000  0.5360730000000 1.0
C      1  0.6039340000000  0.4722250000000  0.4979740000000 1.0
C      1  0.5936060000000  0.5217840000000  0.4873210000000 1.0
C      1  0.4839950000000  0.4874700000000  0.4750640000000 1.0
C      1  0.4804220000000  0.5175310000000  0.4905650000000 1.0
C      1  0.4845440000000  0.4963500000000  0.5166720000000 1.0
C      1  0.4489820000000  0.5830370000000  0.4594000000000 1.0
C      1  0.4515340000000  0.4934750000000  0.5873790000000 1.0
C      1  0.4487550000000  0.4232560000000  0.4499520000000 1.0
C      1  0.5458070000000  0.4079880000000  0.4882030000000 1.0
C      1  0.5352640000000  0.5559660000000  0.4155130000000 1.0
C      1  0.5405310000000  0.5390360000000  0.5996810000000 1.0
C      1  0.4413290000000  0.5314810000000  0.5409540000000 1.0
C      1  0.4420620000000  0.4464980000000  0.5072230000000 1.0
C      1  0.4352530000000  0.5207900000000  0.4499960000000 1.0
C      1  0.4699290000000  0.5647040000000  0.5699870000000 1.0
C      1  0.4697700000000  0.4062290000000  0.5213240000000 1.0
C      1  0.4627200000000  0.5269980000000  0.4030300000000 1.0
C      1  0.4511530000000  0.4494030000000  0.4281790000000 1.0
C      1  0.4548900000000  0.5877690000000  0.4925530000000 1.0
C      1  0.4559800000000  0.4633160000000  0.5770060000000 1.0
C      1  0.4986250000000  0.4191180000000  0.4512780000000 1.0
C      1  0.4967120000000  0.5811800000000  0.4474390000000 1.0
C      1  0.5007800000000  0.4963280000000  0.5945160000000 1.0
C      1  0.5912110000000  0.4544290000000  0.5409890000000 1.0
C      1  0.5768520000000  0.4883440000000  0.4462270000000 1.0
C      1  0.5781260000000  0.5511030000000  0.5252140000000 1.0
C      1  0.5799650000000  0.4560370000000  0.4883910000000 1.0
C      1  0.5755810000000  0.5430380000000  0.4767290000000 1.0
C      1  0.5821060000000  0.5005770000000  0.5581560000000 1.0
C      1  0.4282990000000  0.4482550000000  0.4606250000000 1.0
C      1  0.4308910000000  0.5604890000000  0.4772990000000 1.0
C      1  0.4322890000000  0.4922970000000  0.5616710000000 1.0
C      1  0.5180560000000  0.4814870000000  0.5514050000000 1.0
C      1  0.5164000000000  0.4589800000000  0.4504790000000 1.0
C      1  0.5266850000000  0.5541780000000  0.4934550000000 1.0
C      1  0.5213640000000  0.5705750000000  0.4388160000000 1.0
C      1  0.5295390000000  0.5096180000000  0.5996790000000 1.0
C      1  0.5277060000000  0.4234180000000  0.4639070000000 1.0
C      1  0.5147350000000  0.4135400000000  0.5002570000000 1.0
C      1  0.5075720000000  0.5379710000000  0.4203190000000 1.0
C      1  0.5136630000000  0.5426870000000  0.5704610000000 1.0
C      1  0.4734830000000  0.4245790000000  0.4735210000000 1.0
C      1  0.4696290000000  0.5620090000000  0.4422430000000 1.0
C      1  0.4760750000000  0.5145090000000  0.5796130000000 1.0
END
