TITL C-2622961-1971-652 -0.00812612490174776 125000 -730.536784566511 0 0 132 (C1) n - 1
REM
REM in /nfs/bkarasulu/CARBON/AIRSS/Generating-Clusters/AIREBO/with-SteepDescent/Higher-Symm/SD-CG/HFTN-CG
REM
REM
REM
REM
REM
REM ./C.cell (b20cbc046b6831c77cfcea5457e17084)
REM
REM compiler GCC version 9.2.1 20190827 (Red Hat 9.2.1-1)
REM options -cpp -mtune=generic -march=x86-64 -g -O0 -fpre-include=/usr/include/finclude/math-vector-fortran.h
REM seed -584786500 1817922407 1695780866 837022442 -152447431 -1401180143 29129752 -604507614 2027321007 1009785894 -689709945 -1025042117 1209280530 -1956614081 1621186256 -365403698 -1140298847 2104049338 -1918930356 -554332668 1124970336 1322153446 -96316798 -2016400527 30592599 -1823477186 -1537595168 523698090 -1783063982 -1616807078 174737700 -1608518066 -605808378
REM
CELL 1.54180   50.00000   50.00000   50.00000   90.00000   90.00000   90.00000
LATT -1
SFAC C  
C      1  0.4090980000000  0.5131840000000  0.4801770000000 1.0
C      1  0.5263830000000  0.5142140000000  0.5911510000000 1.0
C      1  0.5576540000000  0.5151910000000  0.4327320000000 1.0
C      1  0.5319490000000  0.4860690000000  0.4950370000000 1.0
C      1  0.4857960000000  0.4927020000000  0.4864230000000 1.0
C      1  0.4908790000000  0.4883480000000  0.5257650000000 1.0
C      1  0.5275400000000  0.5174540000000  0.5012830000000 1.0
C      1  0.4984480000000  0.5184040000000  0.4950660000000 1.0
C      1  0.4822280000000  0.5195420000000  0.5229870000000 1.0
C      1  0.4444610000000  0.4413560000000  0.5448190000000 1.0
C      1  0.5626390000000  0.4390330000000  0.5172870000000 1.0
C      1  0.4846310000000  0.4333160000000  0.4365300000000 1.0
C      1  0.4371240000000  0.5364380000000  0.4516940000000 1.0
C      1  0.4880390000000  0.5340370000000  0.5732470000000 1.0
C      1  0.5767190000000  0.5398600000000  0.4736030000000 1.0
C      1  0.4184590000000  0.4390280000000  0.4955410000000 1.0
C      1  0.5377270000000  0.4502610000000  0.5698520000000 1.0
C      1  0.5410320000000  0.4464690000000  0.4325270000000 1.0
C      1  0.4088760000000  0.5005860000000  0.4355850000000 1.0
C      1  0.4865090000000  0.4949670000000  0.6051000000000 1.0
C      1  0.5927180000000  0.4937250000000  0.4529110000000 1.0
C      1  0.4966830000000  0.5459880000000  0.4003600000000 1.0
C      1  0.4180000000000  0.5443460000000  0.5456830000000 1.0
C      1  0.5876800000000  0.5471000000000  0.5559500000000 1.0
C      1  0.5841210000000  0.5599390000000  0.5077060000000 1.0
C      1  0.4593970000000  0.5544770000000  0.4333890000000 1.0
C      1  0.4641110000000  0.5567950000000  0.5647250000000 1.0
C      1  0.5479480000000  0.4122990000000  0.5016310000000 1.0
C      1  0.4691520000000  0.4156030000000  0.4611890000000 1.0
C      1  0.4824970000000  0.4086990000000  0.5347620000000 1.0
C      1  0.5198790000000  0.4490770000000  0.4835840000000 1.0
C      1  0.4738400000000  0.4438850000000  0.4889290000000 1.0
C      1  0.4993160000000  0.4493700000000  0.5261310000000 1.0
C      1  0.5206460000000  0.4756760000000  0.5228680000000 1.0
C      1  0.5076370000000  0.4767450000000  0.4745030000000 1.0
C      1  0.4717660000000  0.4721010000000  0.5065860000000 1.0
C      1  0.4627260000000  0.5879690000000  0.4703530000000 1.0
C      1  0.4989930000000  0.5873640000000  0.5479740000000 1.0
C      1  0.5489460000000  0.5846960000000  0.4769180000000 1.0
C      1  0.5776460000000  0.4930180000000  0.5679810000000 1.0
C      1  0.5157770000000  0.4886200000000  0.3994720000000 1.0
C      1  0.4035160000000  0.4853240000000  0.5240610000000 1.0
C      1  0.4767840000000  0.4880730000000  0.4310780000000 1.0
C      1  0.4510950000000  0.4798400000000  0.5527010000000 1.0
C      1  0.5867310000000  0.4881110000000  0.5102220000000 1.0
C      1  0.5755750000000  0.5635210000000  0.5356070000000 1.0
C      1  0.4884530000000  0.5620020000000  0.4218490000000 1.0
C      1  0.4397300000000  0.5612110000000  0.5428290000000 1.0
C      1  0.5431230000000  0.5346470000000  0.5818490000000 1.0
C      1  0.5412710000000  0.5338140000000  0.4207740000000 1.0
C      1  0.4090100000000  0.5346410000000  0.4984520000000 1.0
C      1  0.5758410000000  0.4724840000000  0.4627000000000 1.0
C      1  0.4237330000000  0.4743530000000  0.4398010000000 1.0
C      1  0.4897830000000  0.4713370000000  0.5908110000000 1.0
C      1  0.5312150000000  0.5522770000000  0.4401100000000 1.0
C      1  0.4332020000000  0.5536690000000  0.4906870000000 1.0
C      1  0.5284400000000  0.5565230000000  0.5640090000000 1.0
C      1  0.5479130000000  0.5396020000000  0.4859410000000 1.0
C      1  0.4685570000000  0.5295370000000  0.4627010000000 1.0
C      1  0.4995770000000  0.5196490000000  0.5488320000000 1.0
C      1  0.5288290000000  0.4888000000000  0.5755200000000 1.0
C      1  0.5406840000000  0.4868580000000  0.4398190000000 1.0
C      1  0.4263000000000  0.4900990000000  0.4917630000000 1.0
C      1  0.5196520000000  0.4009440000000  0.5010200000000 1.0
C      1  0.4926780000000  0.4011050000000  0.4814170000000 1.0
C      1  0.4928300000000  0.3922680000000  0.5146140000000 1.0
C      1  0.5390370000000  0.4727750000000  0.4107450000000 1.0
C      1  0.4021040000000  0.4688130000000  0.4943460000000 1.0
C      1  0.5581510000000  0.4756010000000  0.5801730000000 1.0
C      1  0.4260420000000  0.4617260000000  0.5616060000000 1.0
C      1  0.5876520000000  0.4582900000000  0.5249850000000 1.0
C      1  0.4884960000000  0.4462620000000  0.4056320000000 1.0
C      1  0.4216030000000  0.4584730000000  0.4678280000000 1.0
C      1  0.5076750000000  0.4491960000000  0.5789980000000 1.0
C      1  0.5612530000000  0.4496760000000  0.4565910000000 1.0
C      1  0.4098380000000  0.5187580000000  0.5264910000000 1.0
C      1  0.5708430000000  0.5243870000000  0.5691890000000 1.0
C      1  0.5160590000000  0.5208920000000  0.4059280000000 1.0
C      1  0.4539300000000  0.5268420000000  0.4932770000000 1.0
C      1  0.5268990000000  0.5324610000000  0.5423900000000 1.0
C      1  0.5244260000000  0.5298070000000  0.4633930000000 1.0
C      1  0.4549340000000  0.4958590000000  0.4792400000000 1.0
C      1  0.5033090000000  0.4874610000000  0.5568700000000 1.0
C      1  0.5445190000000  0.5027720000000  0.4682120000000 1.0
C      1  0.5654350000000  0.4852840000000  0.4891760000000 1.0
C      1  0.4545260000000  0.4762720000000  0.4539220000000 1.0
C      1  0.4779480000000  0.4667650000000  0.5593860000000 1.0
C      1  0.5407740000000  0.4810710000000  0.5446350000000 1.0
C      1  0.5073510000000  0.4824170000000  0.4448710000000 1.0
C      1  0.4444990000000  0.4821700000000  0.5193900000000 1.0
C      1  0.4415550000000  0.5144250000000  0.5206010000000 1.0
C      1  0.5479860000000  0.5120290000000  0.5492210000000 1.0
C      1  0.5112060000000  0.5137810000000  0.4377790000000 1.0
C      1  0.4440970000000  0.5710620000000  0.5159180000000 1.0
C      1  0.5494590000000  0.5723630000000  0.5428060000000 1.0
C      1  0.5097360000000  0.5711510000000  0.4382770000000 1.0
C      1  0.4993600000000  0.5188220000000  0.5966470000000 1.0
C      1  0.5796830000000  0.5189930000000  0.4497080000000 1.0
C      1  0.4137470000000  0.5198190000000  0.4539320000000 1.0
C      1  0.4257040000000  0.4554240000000  0.5225140000000 1.0
C      1  0.5606710000000  0.4563160000000  0.5454940000000 1.0
C      1  0.5097110000000  0.4545750000000  0.4306980000000 1.0
C      1  0.5316100000000  0.5462880000000  0.5148310000000 1.0
C      1  0.4943580000000  0.5419140000000  0.4745150000000 1.0
C      1  0.4756720000000  0.5474270000000  0.5094140000000 1.0
C      1  0.5165380000000  0.5854560000000  0.4663880000000 1.0
C      1  0.4688420000000  0.5854820000000  0.5022810000000 1.0
C      1  0.5246150000000  0.5834680000000  0.5274150000000 1.0
C      1  0.5261660000000  0.5740120000000  0.4969270000000 1.0
C      1  0.4904830000000  0.5722950000000  0.4793610000000 1.0
C      1  0.4932060000000  0.5728550000000  0.5191590000000 1.0
C      1  0.5877650000000  0.4855320000000  0.5438180000000 1.0
C      1  0.4901360000000  0.4766700000000  0.4037460000000 1.0
C      1  0.4020980000000  0.4708660000000  0.5506990000000 1.0
C      1  0.4462150000000  0.5065470000000  0.5680420000000 1.0
C      1  0.6063250000000  0.5105490000000  0.5031080000000 1.0
C      1  0.4455660000000  0.4963200000000  0.4204060000000 1.0
C      1  0.5730600000000  0.5726480000000  0.4819610000000 1.0
C      1  0.4427700000000  0.5675290000000  0.4608800000000 1.0
C      1  0.4963350000000  0.5661780000000  0.5702270000000 1.0
C      1  0.4682590000000  0.4351810000000  0.5213260000000 1.0
C      1  0.5288200000000  0.4376200000000  0.5139760000000 1.0
C      1  0.4984590000000  0.4316390000000  0.4675660000000 1.0
C      1  0.4898580000000  0.4351270000000  0.5548630000000 1.0
C      1  0.5493440000000  0.4374770000000  0.4796480000000 1.0
C      1  0.4516830000000  0.4444320000000  0.4656350000000 1.0
C      1  0.4666580000000  0.5210960000000  0.4303110000000 1.0
C      1  0.4485260000000  0.5296780000000  0.5758360000000 1.0
C      1  0.5984270000000  0.5352480000000  0.4977560000000 1.0
C      1  0.5343130000000  0.4266010000000  0.5456730000000 1.0
C      1  0.5231060000000  0.4209370000000  0.4467160000000 1.0
C      1  0.4403760000000  0.4214950000000  0.5074690000000 1.0
END
