TITL C-2622953-3516-305 -0.00224707225748221 125000 -680.649390227904 0 0 120 (C1) n - 1
REM
REM in /nfs/bkarasulu/CARBON/AIRSS/Generating-Clusters/AIREBO/with-SteepDescent/Higher-Symm/SD-CG/HFTN-CG
REM
REM
REM
REM
REM
REM ./C.cell (b20cbc046b6831c77cfcea5457e17084)
REM
REM compiler GCC version 9.2.1 20190827 (Red Hat 9.2.1-1)
REM options -cpp -mtune=generic -march=x86-64 -g -O0 -fpre-include=/usr/include/finclude/math-vector-fortran.h
REM seed -1332197441 139506823 -1476685841 -2105278507 1331086648 1704942111 -966326797 -1972604749 205354507 -346118827 2079123866 1752454364 -1606225891 -1161146805 1240270384 -1785937097 1021179590 -1992928345 -1807539203 1559439814 -652777057 1059803140 626234765 -1455548507 -852670613 724589715 668115091 -1910635645 102617565 1280676504 -1104658455 1267032996 1369245064
REM
CELL 1.54180   50.00000   50.00000   50.00000   90.00000   90.00000   90.00000
LATT -1
SFAC C  
C      1  0.5332640000000  0.4935840000000  0.5887270000000 1.0
C      1  0.4658000000000  0.4942160000000  0.5838630000000 1.0
C      1  0.4121690000000  0.4875630000000  0.5354230000000 1.0
C      1  0.4181240000000  0.4923360000000  0.4657200000000 1.0
C      1  0.4664450000000  0.4881460000000  0.4079410000000 1.0
C      1  0.5347890000000  0.4929570000000  0.4143020000000 1.0
C      1  0.5833590000000  0.4911330000000  0.4633400000000 1.0
C      1  0.5848260000000  0.4917070000000  0.5377970000000 1.0
C      1  0.4406830000000  0.5032080000000  0.5782270000000 1.0
C      1  0.3968680000000  0.5016970000000  0.5161570000000 1.0
C      1  0.4291980000000  0.5083970000000  0.4423740000000 1.0
C      1  0.4880740000000  0.5028150000000  0.3957710000000 1.0
C      1  0.5590240000000  0.5049740000000  0.4181560000000 1.0
C      1  0.5950270000000  0.5006270000000  0.4863300000000 1.0
C      1  0.5821930000000  0.5062940000000  0.5612260000000 1.0
C      1  0.5113260000000  0.5057450000000  0.6004800000000 1.0
C      1  0.5323170000000  0.5795980000000  0.4740740000000 1.0
C      1  0.5384090000000  0.5764230000000  0.5023450000000 1.0
C      1  0.5247400000000  0.5777240000000  0.5271870000000 1.0
C      1  0.4987190000000  0.5798070000000  0.5364730000000 1.0
C      1  0.4767400000000  0.5889750000000  0.5237780000000 1.0
C      1  0.4797860000000  0.6025720000000  0.4994020000000 1.0
C      1  0.4819410000000  0.5888770000000  0.4749400000000 1.0
C      1  0.5053770000000  0.5785980000000  0.4649580000000 1.0
C      1  0.5247200000000  0.4452380000000  0.4703350000000 1.0
C      1  0.5389930000000  0.4589570000000  0.4935050000000 1.0
C      1  0.5319250000000  0.4566360000000  0.5240460000000 1.0
C      1  0.5046900000000  0.4455230000000  0.5372230000000 1.0
C      1  0.4788350000000  0.4606500000000  0.5321290000000 1.0
C      1  0.4621160000000  0.4553540000000  0.5055290000000 1.0
C      1  0.4723960000000  0.4437970000000  0.4779750000000 1.0
C      1  0.4955330000000  0.4546000000000  0.4635620000000 1.0
C      1  0.5213010000000  0.4903350000000  0.4518350000000 1.0
C      1  0.5438790000000  0.4852370000000  0.4752830000000 1.0
C      1  0.5403350000000  0.4837070000000  0.5376210000000 1.0
C      1  0.5134170000000  0.4904330000000  0.5542320000000 1.0
C      1  0.4825780000000  0.4884340000000  0.5480150000000 1.0
C      1  0.4476760000000  0.4824660000000  0.5006800000000 1.0
C      1  0.4579170000000  0.4896680000000  0.4694240000000 1.0
C      1  0.4873720000000  0.4856100000000  0.4524170000000 1.0
C      1  0.5306200000000  0.4673880000000  0.4283550000000 1.0
C      1  0.5693260000000  0.4656830000000  0.4660980000000 1.0
C      1  0.5699130000000  0.4670490000000  0.5372510000000 1.0
C      1  0.5275170000000  0.4674390000000  0.5749740000000 1.0
C      1  0.4728130000000  0.4676740000000  0.5727190000000 1.0
C      1  0.4267940000000  0.4670150000000  0.5227590000000 1.0
C      1  0.4330650000000  0.4664770000000  0.4671660000000 1.0
C      1  0.4745930000000  0.4676560000000  0.4265190000000 1.0
C      1  0.5580690000000  0.5153080000000  0.4823920000000 1.0
C      1  0.5527750000000  0.5153030000000  0.5358140000000 1.0
C      1  0.5183310000000  0.5216380000000  0.5645830000000 1.0
C      1  0.4668610000000  0.5183380000000  0.5520420000000 1.0
C      1  0.4357780000000  0.5114510000000  0.5139050000000 1.0
C      1  0.4458590000000  0.5208770000000  0.4672700000000 1.0
C      1  0.4802680000000  0.5140210000000  0.4350950000000 1.0
C      1  0.5316740000000  0.5212830000000  0.4422530000000 1.0
C      1  0.4844540000000  0.5303870000000  0.4646060000000 1.0
C      1  0.5137680000000  0.5389860000000  0.4651000000000 1.0
C      1  0.5293140000000  0.5286070000000  0.4885360000000 1.0
C      1  0.5390180000000  0.5386840000000  0.5153110000000 1.0
C      1  0.5178250000000  0.5399290000000  0.5380630000000 1.0
C      1  0.4869930000000  0.5389770000000  0.5340010000000 1.0
C      1  0.4652580000000  0.5279200000000  0.5133100000000 1.0
C      1  0.4637600000000  0.5402300000000  0.4853910000000 1.0
C      1  0.5282620000000  0.4404220000000  0.5690610000000 1.0
C      1  0.4736710000000  0.4407330000000  0.5663910000000 1.0
C      1  0.4319240000000  0.4399050000000  0.5266100000000 1.0
C      1  0.4334820000000  0.4392200000000  0.4712010000000 1.0
C      1  0.4735770000000  0.4402080000000  0.4329130000000 1.0
C      1  0.5292910000000  0.4399540000000  0.4310910000000 1.0
C      1  0.5659270000000  0.4389580000000  0.4717530000000 1.0
C      1  0.5678200000000  0.4402280000000  0.5304440000000 1.0
C      1  0.5747260000000  0.5075350000000  0.5110160000000 1.0
C      1  0.5509080000000  0.5133380000000  0.5697340000000 1.0
C      1  0.4878000000000  0.5169420000000  0.5788330000000 1.0
C      1  0.4360030000000  0.5048530000000  0.5472670000000 1.0
C      1  0.4121360000000  0.5046710000000  0.4903950000000 1.0
C      1  0.4491680000000  0.5069210000000  0.4231550000000 1.0
C      1  0.5096100000000  0.5122640000000  0.4179890000000 1.0
C      1  0.5639980000000  0.5130530000000  0.4489660000000 1.0
C      1  0.5767310000000  0.5613650000000  0.4625990000000 1.0
C      1  0.5869350000000  0.5595810000000  0.5314760000000 1.0
C      1  0.5372510000000  0.5713460000000  0.5809800000000 1.0
C      1  0.4635300000000  0.5645520000000  0.5771230000000 1.0
C      1  0.4224900000000  0.5600760000000  0.5304190000000 1.0
C      1  0.4154960000000  0.5646780000000  0.4850220000000 1.0
C      1  0.4549720000000  0.5636640000000  0.4359550000000 1.0
C      1  0.5226190000000  0.5653580000000  0.4148960000000 1.0
C      1  0.4429240000000  0.4279500000000  0.4994340000000 1.0
C      1  0.4565380000000  0.4238250000000  0.4554730000000 1.0
C      1  0.5020210000000  0.4294400000000  0.4416310000000 1.0
C      1  0.5450540000000  0.4232100000000  0.4542680000000 1.0
C      1  0.5579140000000  0.4328460000000  0.5017210000000 1.0
C      1  0.5406780000000  0.4291700000000  0.5420840000000 1.0
C      1  0.5008880000000  0.4244260000000  0.5636290000000 1.0
C      1  0.4598720000000  0.4332070000000  0.5387110000000 1.0
C      1  0.5755190000000  0.5444690000000  0.4834470000000 1.0
C      1  0.5656670000000  0.5451940000000  0.5456560000000 1.0
C      1  0.5152450000000  0.5521320000000  0.5793020000000 1.0
C      1  0.4537380000000  0.5497100000000  0.5530600000000 1.0
C      1  0.4160340000000  0.5380260000000  0.5206720000000 1.0
C      1  0.4329810000000  0.5506030000000  0.4621870000000 1.0
C      1  0.4771170000000  0.5473550000000  0.4291540000000 1.0
C      1  0.5413700000000  0.5524630000000  0.4327390000000 1.0
C      1  0.4998330000000  0.4058650000000  0.5371960000000 1.0
C      1  0.4748340000000  0.4090530000000  0.5253830000000 1.0
C      1  0.4644550000000  0.4056500000000  0.4993690000000 1.0
C      1  0.4753060000000  0.4042840000000  0.4734760000000 1.0
C      1  0.5014260000000  0.4075090000000  0.4643460000000 1.0
C      1  0.5272660000000  0.4056200000000  0.4748550000000 1.0
C      1  0.5368200000000  0.4091390000000  0.5008440000000 1.0
C      1  0.5256830000000  0.4072320000000  0.5264980000000 1.0
C      1  0.5406660000000  0.5620810000000  0.5500660000000 1.0
C      1  0.4915880000000  0.5602840000000  0.5601830000000 1.0
C      1  0.4527740000000  0.5713170000000  0.5267860000000 1.0
C      1  0.4451310000000  0.5636730000000  0.4976520000000 1.0
C      1  0.4562080000000  0.5749410000000  0.4671340000000 1.0
C      1  0.5026840000000  0.5590400000000  0.4399450000000 1.0
C      1  0.5514480000000  0.5692920000000  0.4535510000000 1.0
C      1  0.5644680000000  0.5582290000000  0.5079400000000 1.0
END
