TITL C-2622967-6265-533 0.000750614634017661 125000 -645.272416336064 0 0 114 (C1) n - 1
REM
REM in /nfs/bkarasulu/CARBON/AIRSS/Generating-Clusters/AIREBO/with-SteepDescent/Higher-Symm/SD-CG/HFTN-CG
REM
REM
REM
REM
REM
REM ./C.cell (b20cbc046b6831c77cfcea5457e17084)
REM
REM compiler GCC version 9.2.1 20190827 (Red Hat 9.2.1-1)
REM options -cpp -mtune=generic -march=x86-64 -g -O0 -fpre-include=/usr/include/finclude/math-vector-fortran.h
REM seed 275032909 -1275611756 -843765288 1643338938 -1292703467 1794971153 804502037 -1575806205 132973301 -2008517545 -1895728664 -2063112597 1046366781 1000590769 -1202130483 497191695 -237024576 -1263326969 -882923138 1100010535 1392335415 667563353 419889749 -1016754454 -730608455 -33879554 -700032342 -1660198826 709135304 548037445 1616642163 -170781 2042138994
REM
CELL 1.54180   50.00000   50.00000   50.00000   90.00000   90.00000   90.00000
LATT -1
SFAC C  
C      1  0.5269030000000  0.4461280000000  0.4555470000000 1.0
C      1  0.4308570000000  0.4441860000000  0.5182620000000 1.0
C      1  0.4342810000000  0.5189860000000  0.4331920000000 1.0
C      1  0.4731330000000  0.4392480000000  0.5483060000000 1.0
C      1  0.4787750000000  0.5525480000000  0.4601910000000 1.0
C      1  0.5265820000000  0.5672650000000  0.5458730000000 1.0
C      1  0.5557930000000  0.4394560000000  0.4891170000000 1.0
C      1  0.5644720000000  0.5432980000000  0.5212320000000 1.0
C      1  0.4383930000000  0.5468670000000  0.4769550000000 1.0
C      1  0.5544350000000  0.5260510000000  0.5633630000000 1.0
C      1  0.5554320000000  0.4711730000000  0.4431950000000 1.0
C      1  0.4470670000000  0.4814360000000  0.5466710000000 1.0
C      1  0.5263970000000  0.5662310000000  0.4438210000000 1.0
C      1  0.4330770000000  0.5568900000000  0.5315790000000 1.0
C      1  0.4406590000000  0.4761340000000  0.4397280000000 1.0
C      1  0.4712840000000  0.5508330000000  0.5612250000000 1.0
C      1  0.4831490000000  0.4449340000000  0.4458390000000 1.0
C      1  0.5312720000000  0.4463360000000  0.5579350000000 1.0
C      1  0.5619430000000  0.5480860000000  0.4705540000000 1.0
C      1  0.5591550000000  0.4536390000000  0.5263460000000 1.0
C      1  0.4479350000000  0.4454850000000  0.4739780000000 1.0
C      1  0.5666320000000  0.4822310000000  0.5587320000000 1.0
C      1  0.5589070000000  0.5305880000000  0.4344440000000 1.0
C      1  0.4450240000000  0.5196360000000  0.5581370000000 1.0
C      1  0.5187400000000  0.5249230000000  0.5797360000000 1.0
C      1  0.5291280000000  0.5902000000000  0.5103150000000 1.0
C      1  0.6031250000000  0.5125060000000  0.5236970000000 1.0
C      1  0.4792020000000  0.5210270000000  0.4235480000000 1.0
C      1  0.4907670000000  0.4835310000000  0.5765480000000 1.0
C      1  0.5109870000000  0.4833210000000  0.4182040000000 1.0
C      1  0.4695020000000  0.5902540000000  0.4906300000000 1.0
C      1  0.4695720000000  0.4098630000000  0.5040610000000 1.0
C      1  0.5315060000000  0.4212200000000  0.4933750000000 1.0
C      1  0.4168620000000  0.5018560000000  0.4752920000000 1.0
C      1  0.4191700000000  0.4941830000000  0.5341090000000 1.0
C      1  0.5807160000000  0.4733380000000  0.4639800000000 1.0
C      1  0.5193270000000  0.4715590000000  0.5760410000000 1.0
C      1  0.5189950000000  0.4133300000000  0.5209700000000 1.0
C      1  0.5899850000000  0.4839700000000  0.5377000000000 1.0
C      1  0.4858970000000  0.4658570000000  0.4190900000000 1.0
C      1  0.4723970000000  0.5301260000000  0.5851510000000 1.0
C      1  0.5238530000000  0.5290720000000  0.4040200000000 1.0
C      1  0.4641820000000  0.4155850000000  0.4773630000000 1.0
C      1  0.4775580000000  0.5849290000000  0.5207340000000 1.0
C      1  0.5304230000000  0.5946390000000  0.4820010000000 1.0
C      1  0.4222360000000  0.4738740000000  0.4636790000000 1.0
C      1  0.4039460000000  0.5186180000000  0.5222890000000 1.0
C      1  0.5844290000000  0.5027560000000  0.4711300000000 1.0
C      1  0.4783460000000  0.5271320000000  0.4512630000000 1.0
C      1  0.5173990000000  0.4496030000000  0.4860840000000 1.0
C      1  0.4376370000000  0.4743200000000  0.5149890000000 1.0
C      1  0.5222920000000  0.5375140000000  0.5508900000000 1.0
C      1  0.5231870000000  0.4791640000000  0.4483930000000 1.0
C      1  0.4769450000000  0.4685330000000  0.5494010000000 1.0
C      1  0.4575940000000  0.4312730000000  0.5230260000000 1.0
C      1  0.4648330000000  0.5566050000000  0.4890200000000 1.0
C      1  0.5405920000000  0.5612140000000  0.5166300000000 1.0
C      1  0.5495080000000  0.4708400000000  0.4772470000000 1.0
C      1  0.5551530000000  0.5210690000000  0.5353010000000 1.0
C      1  0.4399400000000  0.5196120000000  0.4649240000000 1.0
C      1  0.4722350000000  0.4761000000000  0.4478950000000 1.0
C      1  0.5358900000000  0.5615460000000  0.4764320000000 1.0
C      1  0.4242390000000  0.5321110000000  0.5451800000000 1.0
C      1  0.5350470000000  0.4785370000000  0.5467020000000 1.0
C      1  0.5357490000000  0.5482350000000  0.4255990000000 1.0
C      1  0.4729630000000  0.5209480000000  0.5450760000000 1.0
C      1  0.4636020000000  0.5564710000000  0.5289140000000 1.0
C      1  0.4789160000000  0.4524560000000  0.4788140000000 1.0
C      1  0.5281300000000  0.4459550000000  0.5246070000000 1.0
C      1  0.5554330000000  0.5171820000000  0.4621180000000 1.0
C      1  0.5636500000000  0.4845030000000  0.5161890000000 1.0
C      1  0.4487200000000  0.4779670000000  0.4846160000000 1.0
C      1  0.5446830000000  0.4864180000000  0.4160440000000 1.0
C      1  0.4893830000000  0.4216430000000  0.5603570000000 1.0
C      1  0.4151950000000  0.5563910000000  0.4865360000000 1.0
C      1  0.4567310000000  0.4868160000000  0.5777430000000 1.0
C      1  0.4546980000000  0.5092670000000  0.4159430000000 1.0
C      1  0.5450320000000  0.5126320000000  0.5885930000000 1.0
C      1  0.5146150000000  0.4165660000000  0.4644640000000 1.0
C      1  0.5098110000000  0.5831510000000  0.5595220000000 1.0
C      1  0.4851090000000  0.5814320000000  0.4653950000000 1.0
C      1  0.5890630000000  0.5372690000000  0.5094240000000 1.0
C      1  0.5828700000000  0.4527190000000  0.4893750000000 1.0
C      1  0.4107090000000  0.4364470000000  0.5014820000000 1.0
C      1  0.5502360000000  0.5139830000000  0.4109210000000 1.0
C      1  0.4832480000000  0.5802490000000  0.5537170000000 1.0
C      1  0.4159140000000  0.4439790000000  0.4755830000000 1.0
C      1  0.4474120000000  0.5134790000000  0.5886360000000 1.0
C      1  0.4560490000000  0.4799290000000  0.4119220000000 1.0
C      1  0.5482370000000  0.4848810000000  0.5836910000000 1.0
C      1  0.5118540000000  0.5880390000000  0.4589980000000 1.0
C      1  0.5151310000000  0.4204850000000  0.5521840000000 1.0
C      1  0.4867210000000  0.4179760000000  0.4601720000000 1.0
C      1  0.5918330000000  0.4566010000000  0.5174370000000 1.0
C      1  0.5858020000000  0.5340500000000  0.4816110000000 1.0
C      1  0.4100030000000  0.5507730000000  0.5131800000000 1.0
C      1  0.4814510000000  0.5365070000000  0.5090370000000 1.0
C      1  0.5216210000000  0.4826820000000  0.4927320000000 1.0
C      1  0.5195740000000  0.5418160000000  0.4984910000000 1.0
C      1  0.4820230000000  0.4495060000000  0.5087900000000 1.0
C      1  0.4688380000000  0.5048700000000  0.4751690000000 1.0
C      1  0.4905660000000  0.4955790000000  0.5352210000000 1.0
C      1  0.4981350000000  0.5190850000000  0.4850620000000 1.0
C      1  0.5040120000000  0.4691350000000  0.5184940000000 1.0
C      1  0.4930230000000  0.4809710000000  0.4743740000000 1.0
C      1  0.5344250000000  0.4991230000000  0.5196340000000 1.0
C      1  0.5253640000000  0.5063930000000  0.4686390000000 1.0
C      1  0.5092580000000  0.5216080000000  0.5238300000000 1.0
C      1  0.5866420000000  0.4984060000000  0.5010760000000 1.0
C      1  0.5067150000000  0.5985280000000  0.5228080000000 1.0
C      1  0.3977580000000  0.5106590000000  0.4924900000000 1.0
C      1  0.4923360000000  0.3981230000000  0.5131790000000 1.0
C      1  0.4946260000000  0.5138510000000  0.5854820000000 1.0
C      1  0.5023910000000  0.5123840000000  0.4110280000000 1.0
END
