TITL C-2622965-4321-9 0.00231045472260284 125000 -349.567252943751 0 0 66 (C2) n - 1
REM
REM in /nfs/bkarasulu/CARBON/AIRSS/Generating-Clusters/AIREBO/with-SteepDescent/Higher-Symm/SD-CG/HFTN-CG
REM
REM
REM
REM
REM
REM ./C.cell (b20cbc046b6831c77cfcea5457e17084)
REM
REM compiler GCC version 9.2.1 20190827 (Red Hat 9.2.1-1)
REM options -cpp -mtune=generic -march=x86-64 -g -O0 -fpre-include=/usr/include/finclude/math-vector-fortran.h
REM seed -132489771 1065475915 1214493278 -77954508 1603243003 -573417593 2019869809 1383883173 -371585901 890224482 1591309654 -1196309 1103128132 -1744901643 -1593008528 -1767446986 927334415 1610366343 -293277963 -1175018902 456780069 -454342265 -428186979 -1924623599 -1916810995 592073938 1622173449 -1748528670 142989488 -1219869228 1421166887 -201435749 1376907316
REM
CELL 1.54180   50.00000   50.00000   50.00000   90.00000   90.00000   90.00000
LATT -1
SFAC C  
C      1  0.5055070000000  0.4224310000000  0.5298380000000 1.0
C      1  0.5349890000000  0.4204880000000  0.4952280000000 1.0
C      1  0.5085950000000  0.4436040000000  0.4765160000000 1.0
C      1  0.4719820000000  0.4357310000000  0.4902340000000 1.0
C      1  0.5047630000000  0.5824140000000  0.4652440000000 1.0
C      1  0.5237030000000  0.5594250000000  0.4915850000000 1.0
C      1  0.5098320000000  0.5671710000000  0.5281760000000 1.0
C      1  0.4703540000000  0.5805310000000  0.4944800000000 1.0
C      1  0.5096890000000  0.4475030000000  0.5395970000000 1.0
C      1  0.5546020000000  0.4359040000000  0.4959570000000 1.0
C      1  0.5022380000000  0.4469870000000  0.4502600000000 1.0
C      1  0.4470950000000  0.4373880000000  0.5039150000000 1.0
C      1  0.5040700000000  0.5670200000000  0.4456190000000 1.0
C      1  0.5499540000000  0.5559720000000  0.4979370000000 1.0
C      1  0.4961060000000  0.5654180000000  0.5530440000000 1.0
C      1  0.4605720000000  0.5554620000000  0.4903440000000 1.0
C      1  0.5431090000000  0.4603310000000  0.4665240000000 1.0
C      1  0.4515800000000  0.4590470000000  0.4493670000000 1.0
C      1  0.4586860000000  0.4599890000000  0.5348090000000 1.0
C      1  0.5564540000000  0.4591210000000  0.5607210000000 1.0
C      1  0.5507660000000  0.5439650000000  0.5485950000000 1.0
C      1  0.4652400000000  0.5425430000000  0.5413700000000 1.0
C      1  0.4394990000000  0.5438150000000  0.4435230000000 1.0
C      1  0.5335770000000  0.5426520000000  0.4570570000000 1.0
C      1  0.5238200000000  0.4675740000000  0.4936650000000 1.0
C      1  0.4750880000000  0.4649010000000  0.4735260000000 1.0
C      1  0.4742870000000  0.4718200000000  0.5068060000000 1.0
C      1  0.5032330000000  0.4706320000000  0.5179360000000 1.0
C      1  0.5266450000000  0.5380690000000  0.5250580000000 1.0
C      1  0.4933860000000  0.5310350000000  0.5257820000000 1.0
C      1  0.4821860000000  0.5323010000000  0.4968740000000 1.0
C      1  0.5065090000000  0.5354650000000  0.4763610000000 1.0
C      1  0.5079480000000  0.5349050000000  0.4366280000000 1.0
C      1  0.4373040000000  0.5384410000000  0.4770260000000 1.0
C      1  0.4879730000000  0.5346630000000  0.5650450000000 1.0
C      1  0.5659260000000  0.5371420000000  0.5189350000000 1.0
C      1  0.5229560000000  0.4645410000000  0.5628740000000 1.0
C      1  0.4350210000000  0.4681000000000  0.5121040000000 1.0
C      1  0.4812790000000  0.4657920000000  0.4342500000000 1.0
C      1  0.5635530000000  0.4680530000000  0.4921400000000 1.0
C      1  0.4268550000000  0.5144070000000  0.4549860000000 1.0
C      1  0.4606190000000  0.5148520000000  0.5611030000000 1.0
C      1  0.5685490000000  0.5152050000000  0.5450340000000 1.0
C      1  0.5347920000000  0.5136270000000  0.4403920000000 1.0
C      1  0.4399600000000  0.4885000000000  0.5394310000000 1.0
C      1  0.4551790000000  0.4876810000000  0.4313890000000 1.0
C      1  0.5597300000000  0.4893830000000  0.4653290000000 1.0
C      1  0.5449980000000  0.4885040000000  0.5734280000000 1.0
C      1  0.5429800000000  0.5170740000000  0.5038750000000 1.0
C      1  0.4881320000000  0.5162870000000  0.4548810000000 1.0
C      1  0.4514200000000  0.5180740000000  0.4998880000000 1.0
C      1  0.5084690000000  0.5135560000000  0.5507470000000 1.0
C      1  0.5452360000000  0.4866410000000  0.5119500000000 1.0
C      1  0.5001670000000  0.4849200000000  0.5486640000000 1.0
C      1  0.4493930000000  0.4893960000000  0.4917180000000 1.0
C      1  0.4962880000000  0.4858900000000  0.4572040000000 1.0
C      1  0.4703350000000  0.4841890000000  0.5540930000000 1.0
C      1  0.5552920000000  0.4860030000000  0.5399340000000 1.0
C      1  0.5261730000000  0.4864120000000  0.4555270000000 1.0
C      1  0.4413730000000  0.4871830000000  0.4636680000000 1.0
C      1  0.4601760000000  0.5168490000000  0.4447140000000 1.0
C      1  0.5446360000000  0.5166000000000  0.4739890000000 1.0
C      1  0.5365110000000  0.5157320000000  0.5588090000000 1.0
C      1  0.4455800000000  0.5189500000000  0.5296170000000 1.0
C      1  0.5017580000000  0.5821610000000  0.4991490000000 1.0
C      1  0.5011020000000  0.4208100000000  0.4984230000000 1.0
END
