TITL C-2622964-2985-766 -0.00438218404740878 125000 -783.44294754296 0 0 139 (C1) n - 1
REM
REM in /nfs/bkarasulu/CARBON/AIRSS/Generating-Clusters/AIREBO/with-SteepDescent/Higher-Symm/SD-CG/HFTN-CG
REM
REM
REM
REM
REM
REM ./C.cell (b20cbc046b6831c77cfcea5457e17084)
REM
REM compiler GCC version 9.2.1 20190827 (Red Hat 9.2.1-1)
REM options -cpp -mtune=generic -march=x86-64 -g -O0 -fpre-include=/usr/include/finclude/math-vector-fortran.h
REM seed 511182045 1067399891 2062812789 475524896 -1602309686 -370794753 -2083670784 -627117612 264685928 -917774177 1025901316 250922267 -1705687400 -352010645 284987752 -1146990206 130359266 1060892700 1152936774 774269039 -1737725206 -434838136 1032016413 107018332 -552695093 -1416923124 -810438467 -2005770214 -988780 332564017 -1613729158 -1914683293 -1647477953
REM
CELL 1.54180   50.00000   50.00000   50.00000   90.00000   90.00000   90.00000
LATT -1
SFAC C  
C      1  0.5440060000000  0.4871000000000  0.5833180000000 1.0
C      1  0.4556950000000  0.4820670000000  0.4116830000000 1.0
C      1  0.5387280000000  0.5166890000000  0.5810520000000 1.0
C      1  0.4538670000000  0.5125570000000  0.4118500000000 1.0
C      1  0.5400020000000  0.4831650000000  0.5388690000000 1.0
C      1  0.4687300000000  0.4807740000000  0.4614510000000 1.0
C      1  0.5400860000000  0.5143830000000  0.5358890000000 1.0
C      1  0.4590350000000  0.5107880000000  0.4622680000000 1.0
C      1  0.5020150000000  0.3994220000000  0.4604600000000 1.0
C      1  0.4839930000000  0.3986690000000  0.5442560000000 1.0
C      1  0.5173960000000  0.5941820000000  0.4532250000000 1.0
C      1  0.4925110000000  0.5880610000000  0.5363570000000 1.0
C      1  0.5245780000000  0.4723640000000  0.5644010000000 1.0
C      1  0.4767630000000  0.4724020000000  0.4316820000000 1.0
C      1  0.5149220000000  0.5221720000000  0.5573880000000 1.0
C      1  0.4728580000000  0.5222340000000  0.4333840000000 1.0
C      1  0.5771970000000  0.4692210000000  0.5524210000000 1.0
C      1  0.4218860000000  0.4713930000000  0.4452910000000 1.0
C      1  0.5793460000000  0.5352190000000  0.5597950000000 1.0
C      1  0.4264790000000  0.5320420000000  0.4465340000000 1.0
C      1  0.5733830000000  0.4821320000000  0.5776900000000 1.0
C      1  0.4264300000000  0.4859410000000  0.4223020000000 1.0
C      1  0.5701400000000  0.5165270000000  0.5784950000000 1.0
C      1  0.4255520000000  0.5191760000000  0.4211350000000 1.0
C      1  0.4732590000000  0.5471150000000  0.4541520000000 1.0
C      1  0.5137660000000  0.5537290000000  0.5535730000000 1.0
C      1  0.4826480000000  0.4451120000000  0.4504110000000 1.0
C      1  0.5212940000000  0.4464730000000  0.5471450000000 1.0
C      1  0.4785870000000  0.4445940000000  0.5168410000000 1.0
C      1  0.5224410000000  0.4498920000000  0.4835240000000 1.0
C      1  0.4833780000000  0.5436250000000  0.5125730000000 1.0
C      1  0.5160520000000  0.5479150000000  0.4834800000000 1.0
C      1  0.5740410000000  0.4903170000000  0.4798390000000 1.0
C      1  0.4163810000000  0.4852490000000  0.5224080000000 1.0
C      1  0.5638280000000  0.5187350000000  0.4731720000000 1.0
C      1  0.4272640000000  0.5112210000000  0.5328630000000 1.0
C      1  0.4247120000000  0.4579000000000  0.5503190000000 1.0
C      1  0.5832980000000  0.4598250000000  0.4529170000000 1.0
C      1  0.4300460000000  0.5410670000000  0.5591760000000 1.0
C      1  0.5724440000000  0.5543280000000  0.4385500000000 1.0
C      1  0.4381620000000  0.4788780000000  0.4741970000000 1.0
C      1  0.5722520000000  0.4910270000000  0.5315020000000 1.0
C      1  0.4254480000000  0.5097390000000  0.4676770000000 1.0
C      1  0.5720490000000  0.5249360000000  0.5290130000000 1.0
C      1  0.4858580000000  0.5228060000000  0.5397210000000 1.0
C      1  0.5231560000000  0.5154740000000  0.4755640000000 1.0
C      1  0.4738720000000  0.4776800000000  0.5212500000000 1.0
C      1  0.5277360000000  0.4823110000000  0.4745080000000 1.0
C      1  0.4563160000000  0.5730180000000  0.4433420000000 1.0
C      1  0.5395950000000  0.5683720000000  0.5645280000000 1.0
C      1  0.4538990000000  0.4336490000000  0.4414320000000 1.0
C      1  0.5486060000000  0.4304760000000  0.5513030000000 1.0
C      1  0.4707270000000  0.4448150000000  0.5571020000000 1.0
C      1  0.5338110000000  0.4648020000000  0.4482310000000 1.0
C      1  0.4695160000000  0.5383740000000  0.5639770000000 1.0
C      1  0.5309270000000  0.5317420000000  0.4503880000000 1.0
C      1  0.5569090000000  0.5527720000000  0.5166690000000 1.0
C      1  0.4309170000000  0.5553420000000  0.4881300000000 1.0
C      1  0.5705590000000  0.4474460000000  0.5090990000000 1.0
C      1  0.4261440000000  0.4496800000000  0.4872730000000 1.0
C      1  0.5920760000000  0.4935570000000  0.5061130000000 1.0
C      1  0.3950540000000  0.4917420000000  0.4994720000000 1.0
C      1  0.5995090000000  0.5250840000000  0.5089330000000 1.0
C      1  0.4036500000000  0.5154450000000  0.4872060000000 1.0
C      1  0.4374590000000  0.5078430000000  0.5618000000000 1.0
C      1  0.5681960000000  0.5214520000000  0.4401750000000 1.0
C      1  0.4307500000000  0.4781980000000  0.5701380000000 1.0
C      1  0.5761280000000  0.4894800000000  0.4462950000000 1.0
C      1  0.4897790000000  0.5708380000000  0.4362310000000 1.0
C      1  0.5090710000000  0.5718590000000  0.5802300000000 1.0
C      1  0.4814290000000  0.4289070000000  0.4212200000000 1.0
C      1  0.5214350000000  0.4227670000000  0.5706580000000 1.0
C      1  0.4115000000000  0.5390470000000  0.5301040000000 1.0
C      1  0.5862830000000  0.5433720000000  0.4677060000000 1.0
C      1  0.4006380000000  0.4577880000000  0.5319520000000 1.0
C      1  0.6023300000000  0.4562710000000  0.4721790000000 1.0
C      1  0.4629810000000  0.5896890000000  0.5053630000000 1.0
C      1  0.5495120000000  0.6189880000000  0.4918230000000 1.0
C      1  0.4413060000000  0.4012340000000  0.4928830000000 1.0
C      1  0.5418280000000  0.4072100000000  0.4946570000000 1.0
C      1  0.5491360000000  0.5539880000000  0.4619540000000 1.0
C      1  0.4515090000000  0.5426960000000  0.5354460000000 1.0
C      1  0.5578840000000  0.4436850000000  0.4555540000000 1.0
C      1  0.4463320000000  0.4424810000000  0.5404030000000 1.0
C      1  0.5032480000000  0.5131640000000  0.4218660000000 1.0
C      1  0.4997620000000  0.5086800000000  0.5846730000000 1.0
C      1  0.5045950000000  0.4840480000000  0.4233700000000 1.0
C      1  0.4987520000000  0.4793750000000  0.5809120000000 1.0
C      1  0.6040570000000  0.5423580000000  0.4884280000000 1.0
C      1  0.4097460000000  0.5402930000000  0.5007670000000 1.0
C      1  0.5961000000000  0.4624780000000  0.4980480000000 1.0
C      1  0.3988100000000  0.4582680000000  0.4995590000000 1.0
C      1  0.4883410000000  0.4175820000000  0.5648040000000 1.0
C      1  0.5069490000000  0.4154250000000  0.4391970000000 1.0
C      1  0.4833150000000  0.5786830000000  0.5604150000000 1.0
C      1  0.5219060000000  0.5791530000000  0.4286420000000 1.0
C      1  0.5424280000000  0.5582080000000  0.4229810000000 1.0
C      1  0.4521820000000  0.5664970000000  0.5666700000000 1.0
C      1  0.5332800000000  0.4330880000000  0.4351170000000 1.0
C      1  0.4468650000000  0.4710860000000  0.5934150000000 1.0
C      1  0.5434070000000  0.5655070000000  0.4912290000000 1.0
C      1  0.4541940000000  0.5603330000000  0.5074230000000 1.0
C      1  0.5524780000000  0.4344610000000  0.4847080000000 1.0
C      1  0.4464370000000  0.4378480000000  0.5080590000000 1.0
C      1  0.5080830000000  0.4503760000000  0.4202020000000 1.0
C      1  0.4983110000000  0.4461820000000  0.5798670000000 1.0
C      1  0.5063150000000  0.5433940000000  0.4331220000000 1.0
C      1  0.4958880000000  0.5535900000000  0.6017180000000 1.0
C      1  0.5528090000000  0.4729230000000  0.4952320000000 1.0
C      1  0.4452830000000  0.4872510000000  0.5064070000000 1.0
C      1  0.5460430000000  0.5263330000000  0.4982500000000 1.0
C      1  0.4518550000000  0.5192100000000  0.5127800000000 1.0
C      1  0.4890190000000  0.4118370000000  0.5172170000000 1.0
C      1  0.4913630000000  0.4013060000000  0.4849520000000 1.0
C      1  0.5135130000000  0.5823740000000  0.5116930000000 1.0
C      1  0.5069730000000  0.5805330000000  0.4788450000000 1.0
C      1  0.4653250000000  0.4216790000000  0.4870190000000 1.0
C      1  0.5203100000000  0.4114220000000  0.5105840000000 1.0
C      1  0.4823650000000  0.5972280000000  0.4917170000000 1.0
C      1  0.5391450000000  0.5961920000000  0.4965870000000 1.0
C      1  0.4704410000000  0.4730770000000  0.5703650000000 1.0
C      1  0.5342570000000  0.4731050000000  0.4159630000000 1.0
C      1  0.4834300000000  0.5318910000000  0.5901330000000 1.0
C      1  0.5357890000000  0.5248580000000  0.4174440000000 1.0
C      1  0.5704430000000  0.4444570000000  0.5403430000000 1.0
C      1  0.4317110000000  0.4446130000000  0.4546200000000 1.0
C      1  0.5617150000000  0.5576740000000  0.5494670000000 1.0
C      1  0.4346780000000  0.5561800000000  0.4592360000000 1.0
C      1  0.5165870000000  0.5220400000000  0.5141560000000 1.0
C      1  0.4732820000000  0.5118740000000  0.4912260000000 1.0
C      1  0.5253170000000  0.4754810000000  0.5137740000000 1.0
C      1  0.4894000000000  0.4722800000000  0.4810290000000 1.0
C      1  0.4848680000000  0.5400790000000  0.4796620000000 1.0
C      1  0.5103030000000  0.5539420000000  0.5241830000000 1.0
C      1  0.4915810000000  0.4406610000000  0.4789810000000 1.0
C      1  0.5124090000000  0.4441300000000  0.5155090000000 1.0
C      1  0.4661700000000  0.4962450000000  0.5476540000000 1.0
C      1  0.5545670000000  0.4967280000000  0.4210190000000 1.0
C      1  0.4988240000000  0.4942910000000  0.5051760000000 1.0
END
