TITL C-2622967-6265-754 0.00127498621331954 125000 -542.521397948847 0 0 100 (C1) n - 1
REM
REM in /nfs/bkarasulu/CARBON/AIRSS/Generating-Clusters/AIREBO/with-SteepDescent/Higher-Symm/SD-CG/HFTN-CG
REM
REM
REM
REM
REM
REM ./C.cell (b20cbc046b6831c77cfcea5457e17084)
REM
REM compiler GCC version 9.2.1 20190827 (Red Hat 9.2.1-1)
REM options -cpp -mtune=generic -march=x86-64 -g -O0 -fpre-include=/usr/include/finclude/math-vector-fortran.h
REM seed 766125460 -698729408 93265445 -509974333 116552635 845869765 -762394342 1817266928 -81130428 540060233 -308553610 -903389157 -1200880714 1347486244 837085888 1718904934 1101453597 876241031 1636077965 -626018201 -1215797016 -2093152374 -515199772 -1361751180 58836305 -1205609229 300655772 850224292 -435655025 1834090670 -1750251946 1413830416 1059084860
REM
CELL 1.54180   50.00000   50.00000   50.00000   90.00000   90.00000   90.00000
LATT -1
SFAC C  
C      1  0.5417170000000  0.5181780000000  0.5601250000000 1.0
C      1  0.4863530000000  0.4639350000000  0.5577800000000 1.0
C      1  0.4738420000000  0.5506210000000  0.5695390000000 1.0
C      1  0.4350460000000  0.4398600000000  0.5072660000000 1.0
C      1  0.4856270000000  0.5808020000000  0.5242450000000 1.0
C      1  0.5783590000000  0.4763050000000  0.5240090000000 1.0
C      1  0.5661790000000  0.4540260000000  0.5466470000000 1.0
C      1  0.4416440000000  0.4479190000000  0.5346210000000 1.0
C      1  0.4945160000000  0.5697480000000  0.5515030000000 1.0
C      1  0.4923810000000  0.5174340000000  0.5205870000000 1.0
C      1  0.5343610000000  0.4995200000000  0.5325010000000 1.0
C      1  0.4835740000000  0.4853140000000  0.5314590000000 1.0
C      1  0.4160730000000  0.5478950000000  0.5291270000000 1.0
C      1  0.5840480000000  0.5591850000000  0.5190000000000 1.0
C      1  0.5080060000000  0.4073020000000  0.5140440000000 1.0
C      1  0.5007070000000  0.4120000000000  0.4837670000000 1.0
C      1  0.4248920000000  0.5451960000000  0.4979650000000 1.0
C      1  0.5751160000000  0.5424590000000  0.4933560000000 1.0
C      1  0.5771960000000  0.4989700000000  0.4509500000000 1.0
C      1  0.5162750000000  0.3841500000000  0.4408210000000 1.0
C      1  0.4466160000000  0.5663180000000  0.4523540000000 1.0
C      1  0.5402970000000  0.4536560000000  0.5581020000000 1.0
C      1  0.4489210000000  0.4719500000000  0.5462540000000 1.0
C      1  0.5255810000000  0.5673630000000  0.5654750000000 1.0
C      1  0.4659330000000  0.5342630000000  0.4772450000000 1.0
C      1  0.5425210000000  0.5038380000000  0.4746420000000 1.0
C      1  0.4800270000000  0.4572770000000  0.4790060000000 1.0
C      1  0.5693610000000  0.5206230000000  0.4704290000000 1.0
C      1  0.5202040000000  0.4046670000000  0.4582170000000 1.0
C      1  0.4349070000000  0.5419530000000  0.4656340000000 1.0
C      1  0.5306440000000  0.5829470000000  0.5092240000000 1.0
C      1  0.5682860000000  0.4386050000000  0.5205940000000 1.0
C      1  0.4178090000000  0.4813260000000  0.5123820000000 1.0
C      1  0.4901960000000  0.5525480000000  0.3965730000000 1.0
C      1  0.5384400000000  0.4707930000000  0.3937900000000 1.0
C      1  0.4625240000000  0.4655250000000  0.3964760000000 1.0
C      1  0.5146480000000  0.5179860000000  0.5773330000000 1.0
C      1  0.5090730000000  0.4754800000000  0.5759310000000 1.0
C      1  0.4811940000000  0.5214390000000  0.5734990000000 1.0
C      1  0.4255170000000  0.5150140000000  0.4928120000000 1.0
C      1  0.5474560000000  0.5463350000000  0.4759030000000 1.0
C      1  0.5300430000000  0.4286900000000  0.4878540000000 1.0
C      1  0.5039660000000  0.4276790000000  0.5303770000000 1.0
C      1  0.4353710000000  0.5391100000000  0.5467820000000 1.0
C      1  0.5662730000000  0.5531210000000  0.5406520000000 1.0
C      1  0.5248750000000  0.5516910000000  0.4981700000000 1.0
C      1  0.5430180000000  0.4508080000000  0.5024790000000 1.0
C      1  0.4439080000000  0.5002490000000  0.5126180000000 1.0
C      1  0.4287930000000  0.4739840000000  0.4661310000000 1.0
C      1  0.5022250000000  0.5735280000000  0.4728260000000 1.0
C      1  0.5593290000000  0.4535890000000  0.4661820000000 1.0
C      1  0.5305070000000  0.4748870000000  0.4194490000000 1.0
C      1  0.4704900000000  0.4752460000000  0.4189200000000 1.0
C      1  0.4891530000000  0.5404780000000  0.4190330000000 1.0
C      1  0.5332720000000  0.5691750000000  0.4630820000000 1.0
C      1  0.5432160000000  0.4245870000000  0.4595450000000 1.0
C      1  0.4226130000000  0.5074050000000  0.4652190000000 1.0
C      1  0.4735960000000  0.5045480000000  0.4304460000000 1.0
C      1  0.5050020000000  0.5160020000000  0.4366600000000 1.0
C      1  0.5135810000000  0.4620970000000  0.4407540000000 1.0
C      1  0.4562120000000  0.4898760000000  0.4532980000000 1.0
C      1  0.5033340000000  0.5438450000000  0.4561170000000 1.0
C      1  0.5278050000000  0.4611100000000  0.4648670000000 1.0
C      1  0.5748890000000  0.4595440000000  0.4944760000000 1.0
C      1  0.4218480000000  0.4611680000000  0.4936380000000 1.0
C      1  0.5021320000000  0.5841340000000  0.5022360000000 1.0
C      1  0.5802880000000  0.5041990000000  0.5280550000000 1.0
C      1  0.4501850000000  0.4201850000000  0.4928660000000 1.0
C      1  0.4588030000000  0.5767170000000  0.5179440000000 1.0
C      1  0.4523090000000  0.5505680000000  0.5125180000000 1.0
C      1  0.5582380000000  0.5287550000000  0.5198400000000 1.0
C      1  0.4753040000000  0.4280870000000  0.4841060000000 1.0
C      1  0.5244320000000  0.5294590000000  0.5237460000000 1.0
C      1  0.5048450000000  0.4603160000000  0.5225520000000 1.0
C      1  0.4602280000000  0.5227070000000  0.5303460000000 1.0
C      1  0.4649520000000  0.5004710000000  0.5555440000000 1.0
C      1  0.5100400000000  0.5406120000000  0.5524670000000 1.0
C      1  0.5217560000000  0.4759950000000  0.5443110000000 1.0
C      1  0.4672310000000  0.5334030000000  0.4436470000000 1.0
C      1  0.5289600000000  0.4988410000000  0.4434870000000 1.0
C      1  0.4841940000000  0.4624140000000  0.4456440000000 1.0
C      1  0.5095350000000  0.4693120000000  0.4908850000000 1.0
C      1  0.4686350000000  0.5027160000000  0.4777640000000 1.0
C      1  0.5167520000000  0.5207680000000  0.4744590000000 1.0
C      1  0.6050580000000  0.5138040000000  0.5360810000000 1.0
C      1  0.4400880000000  0.3956180000000  0.4882520000000 1.0
C      1  0.4414090000000  0.5971280000000  0.5154900000000 1.0
C      1  0.4861520000000  0.5105620000000  0.6037920000000 1.0
C      1  0.5185880000000  0.5152680000000  0.6109990000000 1.0
C      1  0.5070350000000  0.4863540000000  0.6005340000000 1.0
C      1  0.5564480000000  0.4791450000000  0.4470690000000 1.0
C      1  0.4506990000000  0.4570150000000  0.4479330000000 1.0
C      1  0.4770810000000  0.5649730000000  0.4515960000000 1.0
C      1  0.5378350000000  0.4844240000000  0.5021630000000 1.0
C      1  0.4683910000000  0.4804730000000  0.5014210000000 1.0
C      1  0.4953220000000  0.5353120000000  0.4943230000000 1.0
C      1  0.5485180000000  0.5471390000000  0.5611100000000 1.0
C      1  0.5092380000000  0.4405630000000  0.5569880000000 1.0
C      1  0.4468370000000  0.5536070000000  0.5680330000000 1.0
C      1  0.4982650000000  0.4976250000000  0.4813440000000 1.0
END
