TITL C-2622967-6265-768 0.00333957150202139 125000 -668.090791329769 0 0 123 (C1) n - 1
REM
REM in /nfs/bkarasulu/CARBON/AIRSS/Generating-Clusters/AIREBO/with-SteepDescent/Higher-Symm/SD-CG/HFTN-CG
REM
REM
REM
REM
REM
REM ./C.cell (b20cbc046b6831c77cfcea5457e17084)
REM
REM compiler GCC version 9.2.1 20190827 (Red Hat 9.2.1-1)
REM options -cpp -mtune=generic -march=x86-64 -g -O0 -fpre-include=/usr/include/finclude/math-vector-fortran.h
REM seed 450546208 918515325 683435743 -493708012 1625373260 -880137335 -2003476831 1557245986 -382552147 1688882120 488052310 -1074733383 -13215266 946073488 1012147490 1900453114 1628338379 -509627773 -1373014998 1553590122 1701444946 -456652125 -1630653331 1627909933 -688342559 -940590473 603184939 247369110 1255862196 1350894264 2103652589 1025941379 1002991937
REM
CELL 1.54180   50.00000   50.00000   50.00000   90.00000   90.00000   90.00000
LATT -1
SFAC C  
C      1  0.5041080000000  0.4683050000000  0.5641430000000 1.0
C      1  0.4937950000000  0.5291150000000  0.5710990000000 1.0
C      1  0.5620120000000  0.5852020000000  0.5165190000000 1.0
C      1  0.4380570000000  0.4219000000000  0.5175600000000 1.0
C      1  0.4947650000000  0.5476450000000  0.5286390000000 1.0
C      1  0.5082600000000  0.4499020000000  0.5291070000000 1.0
C      1  0.5269370000000  0.5194060000000  0.4633160000000 1.0
C      1  0.4622530000000  0.4669030000000  0.4621070000000 1.0
C      1  0.5712120000000  0.4832000000000  0.5483170000000 1.0
C      1  0.4290030000000  0.5280620000000  0.5603370000000 1.0
C      1  0.5277870000000  0.5497990000000  0.5791880000000 1.0
C      1  0.4647910000000  0.4454970000000  0.5801540000000 1.0
C      1  0.5041550000000  0.4785800000000  0.4810270000000 1.0
C      1  0.4839750000000  0.5324050000000  0.4830220000000 1.0
C      1  0.5810960000000  0.5651880000000  0.5058290000000 1.0
C      1  0.4166170000000  0.4385780000000  0.5065550000000 1.0
C      1  0.5805150000000  0.4409730000000  0.5107660000000 1.0
C      1  0.4174960000000  0.5552380000000  0.5067940000000 1.0
C      1  0.4625760000000  0.5196110000000  0.4094620000000 1.0
C      1  0.5425530000000  0.4854240000000  0.4212280000000 1.0
C      1  0.5130290000000  0.4454380000000  0.4438150000000 1.0
C      1  0.4823830000000  0.5588280000000  0.4374240000000 1.0
C      1  0.4939710000000  0.4184390000000  0.4518140000000 1.0
C      1  0.5085660000000  0.5883240000000  0.4564510000000 1.0
C      1  0.4213670000000  0.4451890000000  0.4791400000000 1.0
C      1  0.5785650000000  0.5598080000000  0.4773290000000 1.0
C      1  0.5397260000000  0.5394390000000  0.5037620000000 1.0
C      1  0.4730350000000  0.4595290000000  0.5133700000000 1.0
C      1  0.5577080000000  0.4270190000000  0.4888830000000 1.0
C      1  0.4398470000000  0.5694340000000  0.4846720000000 1.0
C      1  0.5865240000000  0.5440550000000  0.5254380000000 1.0
C      1  0.4108980000000  0.4608340000000  0.5248850000000 1.0
C      1  0.4298930000000  0.4580020000000  0.5477730000000 1.0
C      1  0.5709370000000  0.5457270000000  0.5510520000000 1.0
C      1  0.5693420000000  0.4943790000000  0.4393480000000 1.0
C      1  0.4413990000000  0.5071660000000  0.4317840000000 1.0
C      1  0.4536070000000  0.5691720000000  0.5157670000000 1.0
C      1  0.5425800000000  0.4322440000000  0.5187950000000 1.0
C      1  0.4801650000000  0.4442280000000  0.4344830000000 1.0
C      1  0.5148840000000  0.5625390000000  0.4352080000000 1.0
C      1  0.5733870000000  0.4562070000000  0.4811990000000 1.0
C      1  0.4263640000000  0.5388640000000  0.4783370000000 1.0
C      1  0.4254040000000  0.5412960000000  0.4444360000000 1.0
C      1  0.5721230000000  0.4504170000000  0.4475830000000 1.0
C      1  0.5457110000000  0.4960510000000  0.5677690000000 1.0
C      1  0.4547130000000  0.5176060000000  0.5805510000000 1.0
C      1  0.4736190000000  0.4919440000000  0.4776990000000 1.0
C      1  0.5104100000000  0.5172450000000  0.4884080000000 1.0
C      1  0.5073070000000  0.4477230000000  0.4754540000000 1.0
C      1  0.4943260000000  0.5602830000000  0.4693860000000 1.0
C      1  0.4577050000000  0.5208670000000  0.4552310000000 1.0
C      1  0.5490450000000  0.4800170000000  0.4602860000000 1.0
C      1  0.5906290000000  0.4936430000000  0.5277330000000 1.0
C      1  0.4125890000000  0.5127900000000  0.5381150000000 1.0
C      1  0.5405640000000  0.4558170000000  0.4379600000000 1.0
C      1  0.4568400000000  0.5439880000000  0.4324820000000 1.0
C      1  0.5140890000000  0.3952210000000  0.5412200000000 1.0
C      1  0.4843830000000  0.5958170000000  0.5470770000000 1.0
C      1  0.4930540000000  0.5226590000000  0.4242260000000 1.0
C      1  0.5094080000000  0.4870200000000  0.4274410000000 1.0
C      1  0.4868710000000  0.4285780000000  0.5160460000000 1.0
C      1  0.5151640000000  0.5620450000000  0.5103170000000 1.0
C      1  0.4998900000000  0.3837780000000  0.5239540000000 1.0
C      1  0.5019780000000  0.6065920000000  0.5328660000000 1.0
C      1  0.5491530000000  0.5278060000000  0.5644940000000 1.0
C      1  0.4512670000000  0.4670800000000  0.5654950000000 1.0
C      1  0.4349820000000  0.5450100000000  0.5313590000000 1.0
C      1  0.5633400000000  0.4542320000000  0.5343540000000 1.0
C      1  0.4808910000000  0.4917890000000  0.5207510000000 1.0
C      1  0.5232810000000  0.5123250000000  0.5160780000000 1.0
C      1  0.4773750000000  0.4490890000000  0.4836520000000 1.0
C      1  0.5266500000000  0.5509720000000  0.4745570000000 1.0
C      1  0.4587360000000  0.4705300000000  0.4320890000000 1.0
C      1  0.5385040000000  0.5381930000000  0.4388200000000 1.0
C      1  0.5576120000000  0.4849400000000  0.4902830000000 1.0
C      1  0.4485620000000  0.5141570000000  0.4856610000000 1.0
C      1  0.6025830000000  0.4720400000000  0.4825260000000 1.0
C      1  0.4007710000000  0.5177580000000  0.4831640000000 1.0
C      1  0.5208020000000  0.4903300000000  0.4577080000000 1.0
C      1  0.4882430000000  0.5131410000000  0.4554920000000 1.0
C      1  0.4801210000000  0.5249280000000  0.5130130000000 1.0
C      1  0.5117820000000  0.4803690000000  0.5141060000000 1.0
C      1  0.6085310000000  0.4795730000000  0.5093880000000 1.0
C      1  0.3974530000000  0.5133150000000  0.5103620000000 1.0
C      1  0.5224480000000  0.5521550000000  0.5478690000000 1.0
C      1  0.4825600000000  0.4467780000000  0.5511890000000 1.0
C      1  0.5255550000000  0.5152100000000  0.4173530000000 1.0
C      1  0.4776350000000  0.4910210000000  0.4200460000000 1.0
C      1  0.5006900000000  0.4085270000000  0.4779260000000 1.0
C      1  0.4968790000000  0.5973630000000  0.4836040000000 1.0
C      1  0.5195500000000  0.5022310000000  0.5890510000000 1.0
C      1  0.4857090000000  0.5057580000000  0.5911150000000 1.0
C      1  0.4732100000000  0.5687140000000  0.5394000000000 1.0
C      1  0.5249000000000  0.4234320000000  0.5424840000000 1.0
C      1  0.5633060000000  0.5167870000000  0.4937730000000 1.0
C      1  0.4279450000000  0.4894690000000  0.4901060000000 1.0
C      1  0.5324280000000  0.4755140000000  0.5479710000000 1.0
C      1  0.4641790000000  0.5154870000000  0.5482610000000 1.0
C      1  0.5497350000000  0.5588740000000  0.5298220000000 1.0
C      1  0.4544450000000  0.4419470000000  0.5346350000000 1.0
C      1  0.4476560000000  0.4392520000000  0.4714480000000 1.0
C      1  0.5542040000000  0.5618920000000  0.4587570000000 1.0
C      1  0.4518060000000  0.3997840000000  0.5096480000000 1.0
C      1  0.5443260000000  0.6027540000000  0.5066870000000 1.0
C      1  0.4479210000000  0.5163500000000  0.5197980000000 1.0
C      1  0.5446050000000  0.4749920000000  0.5162260000000 1.0
C      1  0.5147810000000  0.5935330000000  0.5077190000000 1.0
C      1  0.4833410000000  0.4003480000000  0.5029650000000 1.0
C      1  0.4711810000000  0.5464520000000  0.5604520000000 1.0
C      1  0.5284560000000  0.4459820000000  0.5633160000000 1.0
C      1  0.5690190000000  0.5239930000000  0.4436590000000 1.0
C      1  0.4270360000000  0.4797460000000  0.4409890000000 1.0
C      1  0.4283530000000  0.4886400000000  0.5222180000000 1.0
C      1  0.5837830000000  0.5182070000000  0.5160740000000 1.0
C      1  0.4710600000000  0.5779280000000  0.4874430000000 1.0
C      1  0.5252340000000  0.4268470000000  0.4900330000000 1.0
C      1  0.4699690000000  0.4847320000000  0.5521660000000 1.0
C      1  0.5224230000000  0.5192880000000  0.5451720000000 1.0
C      1  0.4182240000000  0.4723030000000  0.4710210000000 1.0
C      1  0.5769640000000  0.5310510000000  0.4700960000000 1.0
C      1  0.4153950000000  0.5095210000000  0.4535700000000 1.0
C      1  0.5934410000000  0.4750870000000  0.4523580000000 1.0
C      1  0.5002220000000  0.5000560000000  0.5546360000000 1.0
END
