TITL C-2622963-3633-284 -0.00522689017963307 125000 -257.689355671903 0 0 44 (C1) n - 1
REM
REM in /nfs/bkarasulu/CARBON/AIRSS/Generating-Clusters/AIREBO/with-SteepDescent/Higher-Symm/SD-CG/HFTN-CG
REM
REM
REM
REM
REM
REM ./C.cell (b20cbc046b6831c77cfcea5457e17084)
REM
REM compiler GCC version 9.2.1 20190827 (Red Hat 9.2.1-1)
REM options -cpp -mtune=generic -march=x86-64 -g -O0 -fpre-include=/usr/include/finclude/math-vector-fortran.h
REM seed -1261208759 -1879870616 -1458401748 -1431248633 979779242 -1725051344 330655193 1901637294 -920188020 1591641339 571573408 -1444064943 1182382509 -1515428867 1969253510 -600419059 1556664725 -1484014338 -194877023 -1703596013 -1994365483 2022488675 -166755075 1100997484 317041594 19777610 1083128610 1733816375 -57471523 1535508660 960448149 -1814414271 704197845
REM
CELL 1.54180   50.00000   50.00000   50.00000   90.00000   90.00000   90.00000
LATT -1
SFAC C  
C      1  0.4486330000000  0.5313310000000  0.5208460000000 1.0
C      1  0.5241530000000  0.4510300000000  0.5286670000000 1.0
C      1  0.5299880000000  0.5239360000000  0.4483080000000 1.0
C      1  0.4479890000000  0.4741350000000  0.4731020000000 1.0
C      1  0.5507950000000  0.4715680000000  0.5236870000000 1.0
C      1  0.5516880000000  0.5299120000000  0.4727600000000 1.0
C      1  0.5213930000000  0.5454240000000  0.4729330000000 1.0
C      1  0.4759500000000  0.5509880000000  0.5250030000000 1.0
C      1  0.4730560000000  0.4503250000000  0.4721130000000 1.0
C      1  0.5281850000000  0.4746720000000  0.5496410000000 1.0
C      1  0.4720990000000  0.4774840000000  0.4516720000000 1.0
C      1  0.4704830000000  0.5251240000000  0.5463890000000 1.0
C      1  0.5502900000000  0.5308430000000  0.5208560000000 1.0
C      1  0.4754080000000  0.4500750000000  0.5283820000000 1.0
C      1  0.4738970000000  0.5247300000000  0.4516600000000 1.0
C      1  0.5514060000000  0.4759810000000  0.4728310000000 1.0
C      1  0.4486690000000  0.4714570000000  0.5245640000000 1.0
C      1  0.4511200000000  0.5272680000000  0.4736870000000 1.0
C      1  0.4743640000000  0.5520450000000  0.4723540000000 1.0
C      1  0.5254060000000  0.5523530000000  0.5260530000000 1.0
C      1  0.5265750000000  0.4527610000000  0.4722500000000 1.0
C      1  0.4716150000000  0.4740280000000  0.5495290000000 1.0
C      1  0.5297630000000  0.4767160000000  0.4482440000000 1.0
C      1  0.5282860000000  0.5253950000000  0.5465740000000 1.0
C      1  0.4423280000000  0.5158480000000  0.4976020000000 1.0
C      1  0.5002600000000  0.4438310000000  0.5155710000000 1.0
C      1  0.5152500000000  0.5002960000000  0.4431060000000 1.0
C      1  0.4379750000000  0.4869220000000  0.4962290000000 1.0
C      1  0.5610160000000  0.4879050000000  0.4961340000000 1.0
C      1  0.5581210000000  0.5168030000000  0.4974680000000 1.0
C      1  0.5015570000000  0.5639040000000  0.4854500000000 1.0
C      1  0.5006710000000  0.5597340000000  0.5141840000000 1.0
C      1  0.5012570000000  0.4399090000000  0.4870450000000 1.0
C      1  0.5137370000000  0.4976630000000  0.5550350000000 1.0
C      1  0.4858450000000  0.5007290000000  0.4438350000000 1.0
C      1  0.4854880000000  0.4973050000000  0.5559130000000 1.0
C      1  0.5128730000000  0.4813580000000  0.4840230000000 1.0
C      1  0.4870970000000  0.5277460000000  0.4922580000000 1.0
C      1  0.4835360000000  0.5123070000000  0.5190270000000 1.0
C      1  0.5246350000000  0.4871270000000  0.5119810000000 1.0
C      1  0.4745680000000  0.4862520000000  0.5116430000000 1.0
C      1  0.5138980000000  0.5148250000000  0.5189750000000 1.0
C      1  0.4843000000000  0.4757380000000  0.4896510000000 1.0
C      1  0.5169120000000  0.5146670000000  0.4848480000000 1.0
END
