TITL C-2622957-9142-752 0.00128225796666446 125000 -568.759698946635 0 0 109 (C1) n - 1
REM
REM in /nfs/bkarasulu/CARBON/AIRSS/Generating-Clusters/AIREBO/with-SteepDescent/Higher-Symm/SD-CG/HFTN-CG
REM
REM
REM
REM
REM
REM ./C.cell (b20cbc046b6831c77cfcea5457e17084)
REM
REM compiler GCC version 9.2.1 20190827 (Red Hat 9.2.1-1)
REM options -cpp -mtune=generic -march=x86-64 -g -O0 -fpre-include=/usr/include/finclude/math-vector-fortran.h
REM seed -684616220 865888377 468665278 -1805711964 1743549647 -1985539387 -43033578 -2089660179 -51592130 -1560252681 -101709272 -1507842606 -1914882260 -391616462 1833295024 308845290 1213637788 -1186432679 -1164031228 -1653601686 628407782 -217413153 1113472180 -703250999 -1576338031 88400332 1682837856 1962534582 -782317519 1976713584 90862943 -492377518 1466537995
REM
CELL 1.54180   50.00000   50.00000   50.00000   90.00000   90.00000   90.00000
LATT -1
SFAC C  
C      1  0.5092770000000  0.5090870000000  0.4076850000000 1.0
C      1  0.4903070000000  0.5054740000000  0.5910780000000 1.0
C      1  0.4867840000000  0.4875220000000  0.4031530000000 1.0
C      1  0.5125360000000  0.4840810000000  0.5944390000000 1.0
C      1  0.5654090000000  0.4597000000000  0.4867860000000 1.0
C      1  0.4338870000000  0.4556090000000  0.5071520000000 1.0
C      1  0.4318860000000  0.5510540000000  0.4871430000000 1.0
C      1  0.5651230000000  0.5463320000000  0.5084780000000 1.0
C      1  0.5206670000000  0.5036310000000  0.5433600000000 1.0
C      1  0.4732410000000  0.4910140000000  0.4615830000000 1.0
C      1  0.4700830000000  0.5063110000000  0.5376740000000 1.0
C      1  0.5118390000000  0.5050140000000  0.4744280000000 1.0
C      1  0.4661320000000  0.5252100000000  0.4305290000000 1.0
C      1  0.5345260000000  0.5269570000000  0.5727480000000 1.0
C      1  0.5277080000000  0.4712880000000  0.4392640000000 1.0
C      1  0.4650110000000  0.4628800000000  0.5620570000000 1.0
C      1  0.4385370000000  0.5286050000000  0.4456980000000 1.0
C      1  0.5628100000000  0.5311730000000  0.5556780000000 1.0
C      1  0.5570250000000  0.4719760000000  0.4545290000000 1.0
C      1  0.4327620000000  0.4704270000000  0.5547900000000 1.0
C      1  0.5650670000000  0.5566330000000  0.5388830000000 1.0
C      1  0.4381060000000  0.5569360000000  0.4564740000000 1.0
C      1  0.4392390000000  0.4442560000000  0.5370240000000 1.0
C      1  0.5668600000000  0.4397700000000  0.4592740000000 1.0
C      1  0.4551080000000  0.5731730000000  0.4817550000000 1.0
C      1  0.5502310000000  0.5739050000000  0.5129600000000 1.0
C      1  0.5523420000000  0.4287810000000  0.4913810000000 1.0
C      1  0.4527730000000  0.4295230000000  0.5091880000000 1.0
C      1  0.5584050000000  0.4557170000000  0.5754640000000 1.0
C      1  0.4398180000000  0.4461940000000  0.4340740000000 1.0
C      1  0.4513990000000  0.5470600000000  0.5679770000000 1.0
C      1  0.5552460000000  0.5421650000000  0.4283550000000 1.0
C      1  0.4618820000000  0.4967190000000  0.4191010000000 1.0
C      1  0.5376350000000  0.4991820000000  0.5866130000000 1.0
C      1  0.5337580000000  0.4967890000000  0.4187400000000 1.0
C      1  0.4667630000000  0.4939150000000  0.5758580000000 1.0
C      1  0.4989420000000  0.5630890000000  0.5384840000000 1.0
C      1  0.5208330000000  0.5617480000000  0.4717260000000 1.0
C      1  0.5184230000000  0.4424080000000  0.5315100000000 1.0
C      1  0.4903000000000  0.4408050000000  0.4532040000000 1.0
C      1  0.5622680000000  0.5025480000000  0.4556190000000 1.0
C      1  0.4386220000000  0.4989250000000  0.5449530000000 1.0
C      1  0.4301570000000  0.5024280000000  0.4539630000000 1.0
C      1  0.5615600000000  0.4985220000000  0.5487090000000 1.0
C      1  0.4781590000000  0.4514500000000  0.5328470000000 1.0
C      1  0.5273500000000  0.4451920000000  0.4611640000000 1.0
C      1  0.5272310000000  0.5468390000000  0.5461410000000 1.0
C      1  0.4740420000000  0.5398350000000  0.4601940000000 1.0
C      1  0.4488160000000  0.4678270000000  0.4663050000000 1.0
C      1  0.5442410000000  0.4726690000000  0.5346140000000 1.0
C      1  0.5453690000000  0.5307140000000  0.4663110000000 1.0
C      1  0.4516720000000  0.5338720000000  0.5306100000000 1.0
C      1  0.5480140000000  0.4417460000000  0.5482470000000 1.0
C      1  0.4584490000000  0.4361180000000  0.4582200000000 1.0
C      1  0.4658120000000  0.5605300000000  0.5402440000000 1.0
C      1  0.5502980000000  0.5623110000000  0.4547390000000 1.0
C      1  0.5176190000000  0.5265480000000  0.5205960000000 1.0
C      1  0.4722120000000  0.5173190000000  0.4822640000000 1.0
C      1  0.4820950000000  0.4816150000000  0.5176200000000 1.0
C      1  0.5252530000000  0.4742400000000  0.4789160000000 1.0
C      1  0.4982970000000  0.5315250000000  0.4297780000000 1.0
C      1  0.5026260000000  0.5292340000000  0.5720130000000 1.0
C      1  0.4959440000000  0.4822380000000  0.4340260000000 1.0
C      1  0.4966310000000  0.4743750000000  0.5669690000000 1.0
C      1  0.5037650000000  0.5828500000000  0.5138960000000 1.0
C      1  0.4880470000000  0.5645330000000  0.4777370000000 1.0
C      1  0.4930200000000  0.4276240000000  0.5146550000000 1.0
C      1  0.5059990000000  0.4239830000000  0.4770040000000 1.0
C      1  0.4491010000000  0.5191180000000  0.5691330000000 1.0
C      1  0.5517810000000  0.5153510000000  0.4299410000000 1.0
C      1  0.5584460000000  0.4830000000000  0.5760110000000 1.0
C      1  0.4423240000000  0.4798380000000  0.4351590000000 1.0
C      1  0.4290050000000  0.5040510000000  0.5170400000000 1.0
C      1  0.5700460000000  0.5062210000000  0.4854310000000 1.0
C      1  0.5693850000000  0.4991900000000  0.5186890000000 1.0
C      1  0.4279500000000  0.4966870000000  0.4838560000000 1.0
C      1  0.5101890000000  0.4751300000000  0.5357450000000 1.0
C      1  0.4963860000000  0.4699230000000  0.4640160000000 1.0
C      1  0.4913380000000  0.5299560000000  0.5419250000000 1.0
C      1  0.5130900000000  0.5320450000000  0.4564560000000 1.0
C      1  0.4183690000000  0.5405460000000  0.5290590000000 1.0
C      1  0.5759620000000  0.5450590000000  0.4702140000000 1.0
C      1  0.5711960000000  0.4538510000000  0.5258830000000 1.0
C      1  0.4160390000000  0.4605750000000  0.4717380000000 1.0
C      1  0.4883620000000  0.5365250000000  0.6004950000000 1.0
C      1  0.5089360000000  0.5424120000000  0.4008380000000 1.0
C      1  0.5142930000000  0.4667350000000  0.6159590000000 1.0
C      1  0.4847500000000  0.4736030000000  0.3796940000000 1.0
C      1  0.5464200000000  0.4798690000000  0.5026360000000 1.0
C      1  0.4538590000000  0.4795000000000  0.4978570000000 1.0
C      1  0.4478100000000  0.5267200000000  0.4999520000000 1.0
C      1  0.5447380000000  0.5239790000000  0.4996400000000 1.0
C      1  0.4740110000000  0.5695610000000  0.5083010000000 1.0
C      1  0.5264430000000  0.5776940000000  0.4987870000000 1.0
C      1  0.5250840000000  0.4296350000000  0.5014360000000 1.0
C      1  0.4753150000000  0.4313190000000  0.4869920000000 1.0
C      1  0.4673700000000  0.5690690000000  0.4441270000000 1.0
C      1  0.5401550000000  0.5763480000000  0.5508970000000 1.0
C      1  0.5449480000000  0.4210720000000  0.4486510000000 1.0
C      1  0.4629600000000  0.4295950000000  0.5553300000000 1.0
C      1  0.5923170000000  0.5391290000000  0.4958900000000 1.0
C      1  0.4082830000000  0.5399920000000  0.5029090000000 1.0
C      1  0.4054570000000  0.4639270000000  0.4987140000000 1.0
C      1  0.5919960000000  0.4618060000000  0.5048430000000 1.0
C      1  0.3994000000000  0.4887950000000  0.5101500000000 1.0
C      1  0.5983400000000  0.4882330000000  0.4941380000000 1.0
C      1  0.5985730000000  0.5150000000000  0.5110980000000 1.0
C      1  0.4000850000000  0.5151660000000  0.4924880000000 1.0
C      1  0.4964280000000  0.5079580000000  0.5015740000000 1.0
END
