TITL C-2622953-3516-207 0.00124240800943881 125000 -775.390407802933 0 0 149 (C1) n - 1
REM
REM in /nfs/bkarasulu/CARBON/AIRSS/Generating-Clusters/AIREBO/with-SteepDescent/Higher-Symm/SD-CG/HFTN-CG
REM
REM
REM
REM
REM
REM ./C.cell (b20cbc046b6831c77cfcea5457e17084)
REM
REM compiler GCC version 9.2.1 20190827 (Red Hat 9.2.1-1)
REM options -cpp -mtune=generic -march=x86-64 -g -O0 -fpre-include=/usr/include/finclude/math-vector-fortran.h
REM seed 1734804522 1115096899 -1111503802 -391781160 -1703335878 1871582197 -1722613253 1185980512 888327721 2005790158 234743421 -182156855 -1543026821 1757038546 1540800499 1821377227 -1774427182 -481257788 -356696709 -1363054198 -208036269 -1063857053 -1543917570 261023607 744953232 1244253219 -991889564 -1534988834 1470917071 1491912460 -1276258604 1388726335 -132092954
REM
CELL 1.54180   50.00000   50.00000   50.00000   90.00000   90.00000   90.00000
LATT -1
SFAC C  
C      1  0.4672210000000  0.5554290000000  0.4351620000000 1.0
C      1  0.4401410000000  0.5609860000000  0.5738680000000 1.0
C      1  0.5898560000000  0.5586050000000  0.4771420000000 1.0
C      1  0.5897240000000  0.5519010000000  0.5272220000000 1.0
C      1  0.4473120000000  0.5101600000000  0.4707900000000 1.0
C      1  0.4257320000000  0.4980440000000  0.5351770000000 1.0
C      1  0.5107690000000  0.4652140000000  0.4728010000000 1.0
C      1  0.5183090000000  0.4713050000000  0.5163310000000 1.0
C      1  0.5633030000000  0.5591830000000  0.4377560000000 1.0
C      1  0.5506550000000  0.5544750000000  0.5536200000000 1.0
C      1  0.4444050000000  0.5249190000000  0.5259000000000 1.0
C      1  0.4429530000000  0.5333810000000  0.4929810000000 1.0
C      1  0.5412880000000  0.5887080000000  0.4778480000000 1.0
C      1  0.5355410000000  0.5914740000000  0.5112520000000 1.0
C      1  0.5024460000000  0.4458550000000  0.5323710000000 1.0
C      1  0.4996160000000  0.4357310000000  0.4640430000000 1.0
C      1  0.4663810000000  0.4915150000000  0.5602730000000 1.0
C      1  0.4637940000000  0.4961260000000  0.4445430000000 1.0
C      1  0.5174720000000  0.5591340000000  0.5477850000000 1.0
C      1  0.5249310000000  0.5323680000000  0.4459130000000 1.0
C      1  0.5898950000000  0.4644470000000  0.4707530000000 1.0
C      1  0.5958100000000  0.4591630000000  0.5017340000000 1.0
C      1  0.4954110000000  0.4698180000000  0.5910790000000 1.0
C      1  0.4901560000000  0.4824370000000  0.3929850000000 1.0
C      1  0.5074030000000  0.6012290000000  0.4571660000000 1.0
C      1  0.4997380000000  0.5969700000000  0.5418390000000 1.0
C      1  0.4019670000000  0.5223620000000  0.5357960000000 1.0
C      1  0.4183760000000  0.5179980000000  0.4596460000000 1.0
C      1  0.4712170000000  0.5730850000000  0.4776810000000 1.0
C      1  0.4660060000000  0.5698760000000  0.5075220000000 1.0
C      1  0.4439340000000  0.4444410000000  0.4254850000000 1.0
C      1  0.4421650000000  0.4573010000000  0.5790520000000 1.0
C      1  0.5012180000000  0.5551260000000  0.4371320000000 1.0
C      1  0.4842460000000  0.5523880000000  0.5504390000000 1.0
C      1  0.5613410000000  0.5261000000000  0.5382300000000 1.0
C      1  0.5672310000000  0.5322750000000  0.4582160000000 1.0
C      1  0.5656680000000  0.4818410000000  0.4897520000000 1.0
C      1  0.5818340000000  0.4859270000000  0.5167980000000 1.0
C      1  0.5426590000000  0.5129670000000  0.5614590000000 1.0
C      1  0.5316650000000  0.5020120000000  0.4566890000000 1.0
C      1  0.4764360000000  0.5264780000000  0.4496620000000 1.0
C      1  0.4686870000000  0.5224060000000  0.5462490000000 1.0
C      1  0.5368190000000  0.5267080000000  0.5188020000000 1.0
C      1  0.5389090000000  0.5356310000000  0.4767430000000 1.0
C      1  0.4852740000000  0.4933960000000  0.5203160000000 1.0
C      1  0.4852240000000  0.5005380000000  0.4786440000000 1.0
C      1  0.4263430000000  0.4386020000000  0.4881460000000 1.0
C      1  0.4240180000000  0.4382000000000  0.5150650000000 1.0
C      1  0.5462640000000  0.5862790000000  0.5420780000000 1.0
C      1  0.5460320000000  0.5860260000000  0.4493470000000 1.0
C      1  0.5687770000000  0.4484260000000  0.5144860000000 1.0
C      1  0.5657230000000  0.4428070000000  0.4810930000000 1.0
C      1  0.5234050000000  0.4999220000000  0.5103970000000 1.0
C      1  0.5430340000000  0.5031770000000  0.4867380000000 1.0
C      1  0.4408370000000  0.4610570000000  0.4750000000000 1.0
C      1  0.4372340000000  0.4596740000000  0.5298660000000 1.0
C      1  0.5800130000000  0.5055640000000  0.5758460000000 1.0
C      1  0.5614650000000  0.5281660000000  0.4248460000000 1.0
C      1  0.4774300000000  0.4252300000000  0.5699900000000 1.0
C      1  0.4687820000000  0.4308310000000  0.4369050000000 1.0
C      1  0.5216880000000  0.5883130000000  0.5647240000000 1.0
C      1  0.5175970000000  0.5827790000000  0.4323460000000 1.0
C      1  0.4968980000000  0.4895650000000  0.5492220000000 1.0
C      1  0.5027350000000  0.4903390000000  0.4513420000000 1.0
C      1  0.5458120000000  0.5052990000000  0.4062160000000 1.0
C      1  0.5497900000000  0.4952760000000  0.5875650000000 1.0
C      1  0.4901050000000  0.5526170000000  0.5194610000000 1.0
C      1  0.4890860000000  0.5502650000000  0.4681420000000 1.0
C      1  0.4248000000000  0.5518900000000  0.5234180000000 1.0
C      1  0.4419810000000  0.5616310000000  0.4766330000000 1.0
C      1  0.5046190000000  0.4669470000000  0.4267340000000 1.0
C      1  0.5155150000000  0.4648530000000  0.5570050000000 1.0
C      1  0.4608640000000  0.4238070000000  0.5203260000000 1.0
C      1  0.4628920000000  0.4224450000000  0.4874000000000 1.0
C      1  0.5191540000000  0.4464860000000  0.5840990000000 1.0
C      1  0.5268960000000  0.4458270000000  0.4245580000000 1.0
C      1  0.4867380000000  0.5467830000000  0.4075170000000 1.0
C      1  0.4657510000000  0.5501850000000  0.5749580000000 1.0
C      1  0.5514140000000  0.4591360000000  0.4250880000000 1.0
C      1  0.5509010000000  0.4471410000000  0.5907240000000 1.0
C      1  0.5427180000000  0.4271390000000  0.5448300000000 1.0
C      1  0.5439070000000  0.4292270000000  0.4572870000000 1.0
C      1  0.4300420000000  0.4126040000000  0.5284120000000 1.0
C      1  0.4326510000000  0.4128830000000  0.4759120000000 1.0
C      1  0.5477150000000  0.4147600000000  0.4878320000000 1.0
C      1  0.5441450000000  0.4083110000000  0.5211420000000 1.0
C      1  0.4955340000000  0.5130260000000  0.4270340000000 1.0
C      1  0.4949900000000  0.5180970000000  0.5676170000000 1.0
C      1  0.5755550000000  0.4767100000000  0.5485750000000 1.0
C      1  0.5829210000000  0.4922960000000  0.4413410000000 1.0
C      1  0.5363220000000  0.5587080000000  0.4184220000000 1.0
C      1  0.5342990000000  0.5596200000000  0.5836810000000 1.0
C      1  0.4670390000000  0.4883440000000  0.5939320000000 1.0
C      1  0.4667490000000  0.4902870000000  0.4111710000000 1.0
C      1  0.5672580000000  0.4839230000000  0.4145130000000 1.0
C      1  0.5653250000000  0.4685800000000  0.5797830000000 1.0
C      1  0.5424030000000  0.4825680000000  0.5504070000000 1.0
C      1  0.5542810000000  0.4790980000000  0.4515210000000 1.0
C      1  0.4382680000000  0.5212690000000  0.5730200000000 1.0
C      1  0.4386830000000  0.5318930000000  0.4206540000000 1.0
C      1  0.5401120000000  0.4646880000000  0.4763950000000 1.0
C      1  0.5443420000000  0.4550230000000  0.5311770000000 1.0
C      1  0.5938710000000  0.5053500000000  0.5493090000000 1.0
C      1  0.5979430000000  0.5068830000000  0.4582080000000 1.0
C      1  0.4744830000000  0.4639270000000  0.4422500000000 1.0
C      1  0.4733060000000  0.4588990000000  0.5676550000000 1.0
C      1  0.5876410000000  0.5255330000000  0.4847290000000 1.0
C      1  0.5881830000000  0.5190570000000  0.5185530000000 1.0
C      1  0.5230440000000  0.5278720000000  0.4138940000000 1.0
C      1  0.5208580000000  0.5323460000000  0.5684540000000 1.0
C      1  0.3995940000000  0.5177140000000  0.4846610000000 1.0
C      1  0.4008030000000  0.5351560000000  0.5064590000000 1.0
C      1  0.4273970000000  0.4929600000000  0.5690180000000 1.0
C      1  0.4176850000000  0.4949270000000  0.4380310000000 1.0
C      1  0.4531790000000  0.4859870000000  0.5191090000000 1.0
C      1  0.4567610000000  0.4857250000000  0.4881630000000 1.0
C      1  0.5169830000000  0.4887100000000  0.4036700000000 1.0
C      1  0.5224670000000  0.4830480000000  0.5999320000000 1.0
C      1  0.4730220000000  0.4520500000000  0.4740870000000 1.0
C      1  0.4691630000000  0.4523930000000  0.5345320000000 1.0
C      1  0.3918970000000  0.4918300000000  0.4936320000000 1.0
C      1  0.4045490000000  0.4802850000000  0.5153800000000 1.0
C      1  0.4929580000000  0.4105310000000  0.4469190000000 1.0
C      1  0.4927730000000  0.4149330000000  0.5427180000000 1.0
C      1  0.5061730000000  0.5272440000000  0.4807390000000 1.0
C      1  0.4979730000000  0.5225020000000  0.5107630000000 1.0
C      1  0.4359590000000  0.4799000000000  0.5993360000000 1.0
C      1  0.4397990000000  0.4775360000000  0.4185350000000 1.0
C      1  0.4417660000000  0.5756800000000  0.5179120000000 1.0
C      1  0.4205750000000  0.5833050000000  0.4770290000000 1.0
C      1  0.4310420000000  0.4660480000000  0.4481980000000 1.0
C      1  0.4241230000000  0.4633020000000  0.5557620000000 1.0
C      1  0.5219500000000  0.5634320000000  0.4865250000000 1.0
C      1  0.5326380000000  0.5580300000000  0.5173740000000 1.0
C      1  0.4837280000000  0.4006600000000  0.5131240000000 1.0
C      1  0.4861500000000  0.4011650000000  0.4789880000000 1.0
C      1  0.4682560000000  0.5208330000000  0.5871820000000 1.0
C      1  0.4666190000000  0.5216420000000  0.4113020000000 1.0
C      1  0.5170440000000  0.4280240000000  0.4860310000000 1.0
C      1  0.5185110000000  0.4238550000000  0.5135210000000 1.0
C      1  0.5025270000000  0.5840530000000  0.5145830000000 1.0
C      1  0.4997280000000  0.5866820000000  0.4807850000000 1.0
C      1  0.5245090000000  0.4191700000000  0.4375660000000 1.0
C      1  0.5197070000000  0.4241240000000  0.5610970000000 1.0
C      1  0.5663300000000  0.5625940000000  0.5177440000000 1.0
C      1  0.5626120000000  0.5563460000000  0.4896400000000 1.0
C      1  0.4390940000000  0.5432790000000  0.4500100000000 1.0
C      1  0.4211530000000  0.5423600000000  0.5555010000000 1.0
C      1  0.4899890000000  0.4668270000000  0.4995830000000 1.0
END
