TITL C-2622960-5345-523 -0.00109565964215509 125000 -313.839512582354 0 0 63 (C1) n - 1
REM
REM in /nfs/bkarasulu/CARBON/AIRSS/Generating-Clusters/AIREBO/with-SteepDescent/Higher-Symm/SD-CG/HFTN-CG
REM
REM
REM
REM
REM
REM ./C.cell (b20cbc046b6831c77cfcea5457e17084)
REM
REM compiler GCC version 9.2.1 20190827 (Red Hat 9.2.1-1)
REM options -cpp -mtune=generic -march=x86-64 -g -O0 -fpre-include=/usr/include/finclude/math-vector-fortran.h
REM seed 1130624880 -313725932 -1719197274 -1643862642 59199176 -567377206 -1876284706 -486599442 775700036 -1877401191 1140828156 1763609476 1470363089 -1998554750 -1332173732 -1595625596 467067204 -18126261 -1574563655 -1495880253 -568517032 -249499692 -1189536868 -653977171 1157748513 1513657398 -413692082 2055807822 -150774265 -1232727427 1553706958 -709655637 1171513582
REM
CELL 1.54180   50.00000   50.00000   50.00000   90.00000   90.00000   90.00000
LATT -1
SFAC C  
C      1  0.4753300000000  0.4782070000000  0.5436270000000 1.0
C      1  0.5456850000000  0.4740450000000  0.4993140000000 1.0
C      1  0.4799140000000  0.4863730000000  0.4655990000000 1.0
C      1  0.4743790000000  0.5121200000000  0.5413770000000 1.0
C      1  0.5467580000000  0.5234600000000  0.4982680000000 1.0
C      1  0.4796990000000  0.5193140000000  0.4689060000000 1.0
C      1  0.5216730000000  0.5563220000000  0.4958950000000 1.0
C      1  0.4894320000000  0.5544610000000  0.4852230000000 1.0
C      1  0.4936810000000  0.5564650000000  0.5189100000000 1.0
C      1  0.5169340000000  0.4449970000000  0.4975710000000 1.0
C      1  0.4833680000000  0.4469320000000  0.4923680000000 1.0
C      1  0.4935560000000  0.4376490000000  0.5234630000000 1.0
C      1  0.5332570000000  0.5559230000000  0.5231580000000 1.0
C      1  0.5022640000000  0.5560750000000  0.4564820000000 1.0
C      1  0.4622690000000  0.5632550000000  0.5131920000000 1.0
C      1  0.5325000000000  0.4450120000000  0.5233620000000 1.0
C      1  0.4985050000000  0.4413620000000  0.4624320000000 1.0
C      1  0.4666660000000  0.4219230000000  0.5187000000000 1.0
C      1  0.4976400000000  0.4827360000000  0.5759640000000 1.0
C      1  0.5594530000000  0.4816570000000  0.4710570000000 1.0
C      1  0.4462580000000  0.4888850000000  0.4614450000000 1.0
C      1  0.4947170000000  0.5117970000000  0.5663750000000 1.0
C      1  0.5609820000000  0.5137790000000  0.4701900000000 1.0
C      1  0.4397110000000  0.5185060000000  0.4614630000000 1.0
C      1  0.5116390000000  0.4656120000000  0.4529950000000 1.0
C      1  0.4522460000000  0.4488020000000  0.5063740000000 1.0
C      1  0.5294580000000  0.4712420000000  0.5357030000000 1.0
C      1  0.5130540000000  0.5298130000000  0.4497440000000 1.0
C      1  0.4385890000000  0.5497890000000  0.5137780000000 1.0
C      1  0.5308180000000  0.5293270000000  0.5346390000000 1.0
C      1  0.4314380000000  0.5382460000000  0.5390440000000 1.0
C      1  0.5823180000000  0.5263890000000  0.5357960000000 1.0
C      1  0.4740430000000  0.5259400000000  0.4148550000000 1.0
C      1  0.4334190000000  0.4640510000000  0.5280880000000 1.0
C      1  0.5812030000000  0.4721340000000  0.5369090000000 1.0
C      1  0.4882400000000  0.4707390000000  0.4071140000000 1.0
C      1  0.5218560000000  0.5132250000000  0.4774640000000 1.0
C      1  0.4990050000000  0.5233860000000  0.4951650000000 1.0
C      1  0.5036510000000  0.5158310000000  0.5228950000000 1.0
C      1  0.5203690000000  0.4839620000000  0.4788770000000 1.0
C      1  0.4945710000000  0.4787070000000  0.4953110000000 1.0
C      1  0.5014290000000  0.4847950000000  0.5248560000000 1.0
C      1  0.4584670000000  0.5414950000000  0.4789010000000 1.0
C      1  0.4963460000000  0.5419810000000  0.5495820000000 1.0
C      1  0.5443910000000  0.5453830000000  0.4729330000000 1.0
C      1  0.4610420000000  0.4583190000000  0.4691990000000 1.0
C      1  0.4965560000000  0.4559640000000  0.5520490000000 1.0
C      1  0.5416390000000  0.4508210000000  0.4748130000000 1.0
C      1  0.5557030000000  0.4848020000000  0.5263760000000 1.0
C      1  0.4931170000000  0.4820470000000  0.4343540000000 1.0
C      1  0.4455180000000  0.4844280000000  0.5414430000000 1.0
C      1  0.5563000000000  0.5143830000000  0.5258180000000 1.0
C      1  0.4895780000000  0.5130520000000  0.4374410000000 1.0
C      1  0.4423520000000  0.5129300000000  0.5417150000000 1.0
C      1  0.5439090000000  0.5253840000000  0.4446330000000 1.0
C      1  0.4311970000000  0.5270910000000  0.4923170000000 1.0
C      1  0.5231290000000  0.5294160000000  0.5663450000000 1.0
C      1  0.5424910000000  0.4695510000000  0.4459020000000 1.0
C      1  0.4363330000000  0.4736680000000  0.4894110000000 1.0
C      1  0.5248790000000  0.4670190000000  0.5672860000000 1.0
C      1  0.5508970000000  0.4970720000000  0.4351860000000 1.0
C      1  0.4315220000000  0.4975880000000  0.5064130000000 1.0
C      1  0.5326510000000  0.4993480000000  0.5639370000000 1.0
END
