TITL C-2622965-4321-358 -0.00120767938081061 125000 -755.862721372718 0 0 137 (C1) n - 1
REM
REM in /nfs/bkarasulu/CARBON/AIRSS/Generating-Clusters/AIREBO/with-SteepDescent/Higher-Symm/SD-CG/HFTN-CG
REM
REM
REM
REM
REM
REM ./C.cell (b20cbc046b6831c77cfcea5457e17084)
REM
REM compiler GCC version 9.2.1 20190827 (Red Hat 9.2.1-1)
REM options -cpp -mtune=generic -march=x86-64 -g -O0 -fpre-include=/usr/include/finclude/math-vector-fortran.h
REM seed 1709561841 -690082526 1948191403 785787887 193523160 503418294 1591623823 -1270890295 -2090327747 723027481 1237322459 1516183858 -1531297686 1395481162 1962396343 -382921481 1233349014 -724728672 646904022 -541670170 -1198348504 -1059820449 -1147073716 -1467399174 1902409414 -180238411 -1237587125 1897716130 2079498440 -309326219 -366303283 1127279970 -344142871
REM
CELL 1.54180   50.00000   50.00000   50.00000   90.00000   90.00000   90.00000
LATT -1
SFAC C  
C      1  0.5315030000000  0.5759000000000  0.4839900000000 1.0
C      1  0.4663160000000  0.4261260000000  0.4839840000000 1.0
C      1  0.5336520000000  0.5899750000000  0.5105960000000 1.0
C      1  0.4648070000000  0.4109690000000  0.5091920000000 1.0
C      1  0.4656100000000  0.5821600000000  0.4852450000000 1.0
C      1  0.5301360000000  0.4217420000000  0.4894600000000 1.0
C      1  0.4654130000000  0.5682680000000  0.5115480000000 1.0
C      1  0.5423220000000  0.4105150000000  0.5134020000000 1.0
C      1  0.4848640000000  0.5204820000000  0.4126940000000 1.0
C      1  0.5195650000000  0.4890710000000  0.4187950000000 1.0
C      1  0.4737800000000  0.5161610000000  0.5876940000000 1.0
C      1  0.5168030000000  0.4893530000000  0.5925990000000 1.0
C      1  0.5335090000000  0.5187210000000  0.4175970000000 1.0
C      1  0.4859960000000  0.4894760000000  0.4174550000000 1.0
C      1  0.5222870000000  0.5196500000000  0.5887770000000 1.0
C      1  0.4864130000000  0.4892340000000  0.5849270000000 1.0
C      1  0.5756530000000  0.5445170000000  0.4406920000000 1.0
C      1  0.4067450000000  0.4627910000000  0.4437990000000 1.0
C      1  0.5636070000000  0.5402370000000  0.5648940000000 1.0
C      1  0.4269680000000  0.4582590000000  0.5594530000000 1.0
C      1  0.4319170000000  0.5266960000000  0.4325450000000 1.0
C      1  0.5755960000000  0.4756730000000  0.4146070000000 1.0
C      1  0.4293130000000  0.5354380000000  0.5693290000000 1.0
C      1  0.5770100000000  0.4657270000000  0.5637720000000 1.0
C      1  0.5593540000000  0.5095750000000  0.4509210000000 1.0
C      1  0.4369250000000  0.4886800000000  0.4437900000000 1.0
C      1  0.5498520000000  0.5121090000000  0.5540480000000 1.0
C      1  0.4558690000000  0.4741180000000  0.5581630000000 1.0
C      1  0.4587930000000  0.5127550000000  0.4408460000000 1.0
C      1  0.5643970000000  0.4757700000000  0.4451360000000 1.0
C      1  0.4521360000000  0.5064250000000  0.5559320000000 1.0
C      1  0.5503020000000  0.4846380000000  0.5688920000000 1.0
C      1  0.5192750000000  0.5612940000000  0.4356200000000 1.0
C      1  0.4815310000000  0.4430790000000  0.4355700000000 1.0
C      1  0.5202620000000  0.5583620000000  0.5578790000000 1.0
C      1  0.4892060000000  0.4396280000000  0.5554820000000 1.0
C      1  0.4946010000000  0.5517510000000  0.4518620000000 1.0
C      1  0.5146680000000  0.4415310000000  0.4398710000000 1.0
C      1  0.4649420000000  0.5584840000000  0.5630160000000 1.0
C      1  0.5214600000000  0.4413370000000  0.5484020000000 1.0
C      1  0.5588570000000  0.5757290000000  0.5261550000000 1.0
C      1  0.4440990000000  0.4229060000000  0.5298310000000 1.0
C      1  0.5610400000000  0.5689890000000  0.4706480000000 1.0
C      1  0.4399850000000  0.4318320000000  0.4650300000000 1.0
C      1  0.4329910000000  0.5657430000000  0.5214880000000 1.0
C      1  0.5710630000000  0.4167210000000  0.5295760000000 1.0
C      1  0.4437680000000  0.5695010000000  0.4636350000000 1.0
C      1  0.5535670000000  0.4320830000000  0.4694180000000 1.0
C      1  0.5079390000000  0.5487890000000  0.5850850000000 1.0
C      1  0.4967250000000  0.4416180000000  0.5870530000000 1.0
C      1  0.5224000000000  0.5452300000000  0.4118370000000 1.0
C      1  0.4786980000000  0.4584580000000  0.4053700000000 1.0
C      1  0.4795550000000  0.5452710000000  0.5823290000000 1.0
C      1  0.5108100000000  0.4578220000000  0.5998450000000 1.0
C      1  0.4974730000000  0.5399280000000  0.3990470000000 1.0
C      1  0.5105680000000  0.4586140000000  0.4132550000000 1.0
C      1  0.4077360000000  0.4905530000000  0.4618840000000 1.0
C      1  0.5902580000000  0.5131630000000  0.4646770000000 1.0
C      1  0.4109700000000  0.4968510000000  0.5295270000000 1.0
C      1  0.5803120000000  0.5150400000000  0.5390600000000 1.0
C      1  0.5926890000000  0.4831120000000  0.4625230000000 1.0
C      1  0.4021400000000  0.5208560000000  0.4735910000000 1.0
C      1  0.5843670000000  0.4858530000000  0.5265130000000 1.0
C      1  0.4197660000000  0.5136900000000  0.5482020000000 1.0
C      1  0.4132590000000  0.4828510000000  0.4205890000000 1.0
C      1  0.5731170000000  0.5219700000000  0.4221100000000 1.0
C      1  0.4319660000000  0.4821690000000  0.5804030000000 1.0
C      1  0.5836110000000  0.5236500000000  0.5781690000000 1.0
C      1  0.5772000000000  0.5013330000000  0.4038390000000 1.0
C      1  0.4144340000000  0.5122160000000  0.4161860000000 1.0
C      1  0.5804580000000  0.4954870000000  0.5788140000000 1.0
C      1  0.4320270000000  0.5102320000000  0.5862720000000 1.0
C      1  0.5597380000000  0.5377350000000  0.4699660000000 1.0
C      1  0.4272630000000  0.4558470000000  0.4644220000000 1.0
C      1  0.5502430000000  0.5466510000000  0.5342930000000 1.0
C      1  0.4386480000000  0.4548050000000  0.5277080000000 1.0
C      1  0.4355500000000  0.5376420000000  0.4616570000000 1.0
C      1  0.5606080000000  0.4584540000000  0.4722160000000 1.0
C      1  0.4455450000000  0.5422410000000  0.5401990000000 1.0
C      1  0.5754290000000  0.4492370000000  0.5383150000000 1.0
C      1  0.5227160000000  0.5099300000000  0.5248940000000 1.0
C      1  0.4883730000000  0.4897970000000  0.5244030000000 1.0
C      1  0.5255090000000  0.5198600000000  0.4800450000000 1.0
C      1  0.4694970000000  0.4777340000000  0.4720450000000 1.0
C      1  0.4743070000000  0.5191230000000  0.5250530000000 1.0
C      1  0.5270090000000  0.4779310000000  0.5306940000000 1.0
C      1  0.4841940000000  0.5040270000000  0.4758530000000 1.0
C      1  0.5238640000000  0.4727980000000  0.4788200000000 1.0
C      1  0.4848030000000  0.5160550000000  0.5555250000000 1.0
C      1  0.5203800000000  0.4717350000000  0.5635990000000 1.0
C      1  0.4920060000000  0.5180300000000  0.4458620000000 1.0
C      1  0.5306980000000  0.4711240000000  0.4454430000000 1.0
C      1  0.5181310000000  0.5243480000000  0.5553520000000 1.0
C      1  0.4876600000000  0.4739330000000  0.5545900000000 1.0
C      1  0.5256660000000  0.5139280000000  0.4490800000000 1.0
C      1  0.4672070000000  0.4735360000000  0.4404260000000 1.0
C      1  0.5181040000000  0.5496980000000  0.4889640000000 1.0
C      1  0.4802020000000  0.4525510000000  0.4900950000000 1.0
C      1  0.5194660000000  0.5431060000000  0.5202370000000 1.0
C      1  0.4714610000000  0.4605650000000  0.5206410000000 1.0
C      1  0.4889690000000  0.5359700000000  0.4812450000000 1.0
C      1  0.5118640000000  0.4473630000000  0.4913260000000 1.0
C      1  0.4862720000000  0.5445910000000  0.5123820000000 1.0
C      1  0.5048140000000  0.4538520000000  0.5215250000000 1.0
C      1  0.5530560000000  0.5116890000000  0.4909550000000 1.0
C      1  0.4402400000000  0.4798030000000  0.4823920000000 1.0
C      1  0.5593820000000  0.5231320000000  0.5167320000000 1.0
C      1  0.4343750000000  0.4850090000000  0.5133910000000 1.0
C      1  0.4331920000000  0.5131080000000  0.4850990000000 1.0
C      1  0.5517550000000  0.4808830000000  0.4928200000000 1.0
C      1  0.4443780000000  0.5173290000000  0.5169760000000 1.0
C      1  0.5562520000000  0.4707220000000  0.5217120000000 1.0
C      1  0.5361100000000  0.5782590000000  0.4506250000000 1.0
C      1  0.4667720000000  0.4224610000000  0.4508700000000 1.0
C      1  0.5292550000000  0.5793360000000  0.5425880000000 1.0
C      1  0.4741910000000  0.4213170000000  0.5387120000000 1.0
C      1  0.4745880000000  0.5736680000000  0.4549330000000 1.0
C      1  0.5274060000000  0.4206860000000  0.4558060000000 1.0
C      1  0.4571570000000  0.5797600000000  0.5416970000000 1.0
C      1  0.5407870000000  0.4212050000000  0.5432970000000 1.0
C      1  0.6060910000000  0.4709880000000  0.4845850000000 1.0
C      1  0.3731220000000  0.5227650000000  0.4826920000000 1.0
C      1  0.6067210000000  0.4886940000000  0.5068650000000 1.0
C      1  0.3898370000000  0.5365100000000  0.5082570000000 1.0
C      1  0.3855260000000  0.4884150000000  0.4876250000000 1.0
C      1  0.5972670000000  0.5331950000000  0.4866530000000 1.0
C      1  0.3902160000000  0.5058320000000  0.5140090000000 1.0
C      1  0.5997710000000  0.5188820000000  0.5113080000000 1.0
C      1  0.5939110000000  0.4345300000000  0.5138040000000 1.0
C      1  0.4101610000000  0.5559620000000  0.5039890000000 1.0
C      1  0.6089050000000  0.4440890000000  0.4940400000000 1.0
C      1  0.4158450000000  0.5603440000000  0.4769620000000 1.0
C      1  0.4076800000000  0.4505710000000  0.5143100000000 1.0
C      1  0.5862750000000  0.5753090000000  0.5116920000000 1.0
C      1  0.3882280000000  0.4618480000000  0.5035460000000 1.0
C      1  0.5871270000000  0.5607670000000  0.4877610000000 1.0
C      1  0.5079450000000  0.4964650000000  0.4973790000000 1.0
END
