TITL C-2622963-3633-541 -0.000290240108515879 125000 -631.991909680167 0 0 114 (C1) n - 1
REM
REM in /nfs/bkarasulu/CARBON/AIRSS/Generating-Clusters/AIREBO/with-SteepDescent/Higher-Symm/SD-CG/HFTN-CG
REM
REM
REM
REM
REM
REM ./C.cell (b20cbc046b6831c77cfcea5457e17084)
REM
REM compiler GCC version 9.2.1 20190827 (Red Hat 9.2.1-1)
REM options -cpp -mtune=generic -march=x86-64 -g -O0 -fpre-include=/usr/include/finclude/math-vector-fortran.h
REM seed -1978920223 1167660997 1991606443 -614587351 -1610848883 806983078 1110513705 605136039 1400694327 -1098979574 -905865469 205604345 824866901 907192926 -292093230 537884360 835770124 733648105 2006012216 -478565597 -1780780805 -920030528 -1862587151 971913285 -965571164 -1208557383 1123103624 -1791277403 -2058798063 1405043124 -93936460 887183409 2143631340
REM
CELL 1.54180   50.00000   50.00000   50.00000   90.00000   90.00000   90.00000
LATT -1
SFAC C  
C      1  0.5563800000000  0.5016040000000  0.5768820000000 1.0
C      1  0.4736190000000  0.4494190000000  0.5784850000000 1.0
C      1  0.4704970000000  0.5463640000000  0.5747860000000 1.0
C      1  0.4428080000000  0.4961390000000  0.5667080000000 1.0
C      1  0.5308400000000  0.4470230000000  0.5743820000000 1.0
C      1  0.5336110000000  0.5492740000000  0.5799330000000 1.0
C      1  0.4439590000000  0.5607160000000  0.5315030000000 1.0
C      1  0.5832810000000  0.5169260000000  0.5289080000000 1.0
C      1  0.4749850000000  0.4017770000000  0.5144710000000 1.0
C      1  0.5705610000000  0.5714960000000  0.5128720000000 1.0
C      1  0.3952090000000  0.5319030000000  0.5154890000000 1.0
C      1  0.5266450000000  0.4165810000000  0.5327870000000 1.0
C      1  0.4721710000000  0.5353320000000  0.5036920000000 1.0
C      1  0.5362060000000  0.5046680000000  0.5108800000000 1.0
C      1  0.4802440000000  0.4630990000000  0.5035410000000 1.0
C      1  0.5175010000000  0.5319190000000  0.5055910000000 1.0
C      1  0.4524270000000  0.5085520000000  0.5107640000000 1.0
C      1  0.5141470000000  0.4614840000000  0.5097010000000 1.0
C      1  0.5853330000000  0.5169550000000  0.4599150000000 1.0
C      1  0.4923120000000  0.4098360000000  0.4605190000000 1.0
C      1  0.4248920000000  0.5617660000000  0.4625670000000 1.0
C      1  0.4161070000000  0.5361920000000  0.4589290000000 1.0
C      1  0.5292310000000  0.4216220000000  0.4488770000000 1.0
C      1  0.5656610000000  0.5567550000000  0.4599320000000 1.0
C      1  0.5184800000000  0.5786590000000  0.5434290000000 1.0
C      1  0.5659200000000  0.4465540000000  0.5362270000000 1.0
C      1  0.4309420000000  0.4734420000000  0.5491470000000 1.0
C      1  0.4885840000000  0.5788590000000  0.5414440000000 1.0
C      1  0.4406640000000  0.4501810000000  0.5391070000000 1.0
C      1  0.5813510000000  0.4689990000000  0.5481540000000 1.0
C      1  0.5594810000000  0.5179310000000  0.4814260000000 1.0
C      1  0.4887340000000  0.4280570000000  0.4876780000000 1.0
C      1  0.4541500000000  0.5629650000000  0.4748710000000 1.0
C      1  0.4079970000000  0.5230460000000  0.4860040000000 1.0
C      1  0.5218270000000  0.4340400000000  0.4796650000000 1.0
C      1  0.5483400000000  0.5496920000000  0.4878450000000 1.0
C      1  0.5177590000000  0.5635730000000  0.4931640000000 1.0
C      1  0.5423470000000  0.4572680000000  0.4937040000000 1.0
C      1  0.4241230000000  0.4987740000000  0.4946230000000 1.0
C      1  0.4829460000000  0.5656950000000  0.4927580000000 1.0
C      1  0.4595240000000  0.4375040000000  0.4950740000000 1.0
C      1  0.5601380000000  0.4866350000000  0.4947930000000 1.0
C      1  0.4910730000000  0.4300690000000  0.4403680000000 1.0
C      1  0.4465950000000  0.5344990000000  0.4208330000000 1.0
C      1  0.5662450000000  0.5176820000000  0.4317520000000 1.0
C      1  0.5154220000000  0.4385290000000  0.4260820000000 1.0
C      1  0.5534550000000  0.5430050000000  0.4392080000000 1.0
C      1  0.4312150000000  0.5223860000000  0.4404990000000 1.0
C      1  0.4688030000000  0.4418990000000  0.5482400000000 1.0
C      1  0.4709230000000  0.5551570000000  0.5446720000000 1.0
C      1  0.5669460000000  0.4969250000000  0.5469750000000 1.0
C      1  0.5379960000000  0.4414100000000  0.5441130000000 1.0
C      1  0.5363140000000  0.5552310000000  0.5478370000000 1.0
C      1  0.4307530000000  0.5052080000000  0.5367720000000 1.0
C      1  0.5187760000000  0.4726080000000  0.4285180000000 1.0
C      1  0.4727480000000  0.4994830000000  0.4334600000000 1.0
C      1  0.5104200000000  0.5245200000000  0.4209790000000 1.0
C      1  0.4879870000000  0.4787490000000  0.4344510000000 1.0
C      1  0.5353860000000  0.5024000000000  0.4276980000000 1.0
C      1  0.4794720000000  0.5281620000000  0.4239690000000 1.0
C      1  0.4713680000000  0.5491580000000  0.4485870000000 1.0
C      1  0.5447530000000  0.4979310000000  0.4581990000000 1.0
C      1  0.4747280000000  0.4545330000000  0.4478290000000 1.0
C      1  0.5234490000000  0.5417980000000  0.4431790000000 1.0
C      1  0.4464850000000  0.4984180000000  0.4501510000000 1.0
C      1  0.5246700000000  0.4601330000000  0.4580310000000 1.0
C      1  0.5900280000000  0.5211250000000  0.4957790000000 1.0
C      1  0.4994170000000  0.3970170000000  0.4912960000000 1.0
C      1  0.4369140000000  0.5628820000000  0.5041020000000 1.0
C      1  0.4105400000000  0.5539850000000  0.4990350000000 1.0
C      1  0.5268880000000  0.4117650000000  0.5048560000000 1.0
C      1  0.5818460000000  0.5525290000000  0.4883610000000 1.0
C      1  0.5140360000000  0.5242210000000  0.5730890000000 1.0
C      1  0.5156940000000  0.4744230000000  0.5764230000000 1.0
C      1  0.4726760000000  0.4982130000000  0.5720050000000 1.0
C      1  0.4851040000000  0.5237300000000  0.5805520000000 1.0
C      1  0.4862910000000  0.4737150000000  0.5831620000000 1.0
C      1  0.5294180000000  0.4999660000000  0.5821660000000 1.0
C      1  0.5592980000000  0.4226080000000  0.4457630000000 1.0
C      1  0.4137510000000  0.4747600000000  0.4729680000000 1.0
C      1  0.5270140000000  0.5818620000000  0.4660360000000 1.0
C      1  0.4413030000000  0.4314360000000  0.4697760000000 1.0
C      1  0.5875320000000  0.4805810000000  0.4755590000000 1.0
C      1  0.4827530000000  0.5899610000000  0.4689200000000 1.0
C      1  0.5339690000000  0.4965210000000  0.5395890000000 1.0
C      1  0.4830590000000  0.4681670000000  0.5343330000000 1.0
C      1  0.4842530000000  0.5267930000000  0.5328860000000 1.0
C      1  0.4716170000000  0.4972900000000  0.5388110000000 1.0
C      1  0.5159190000000  0.4678470000000  0.5430620000000 1.0
C      1  0.5176570000000  0.5263630000000  0.5393440000000 1.0
C      1  0.4225150000000  0.5512790000000  0.5477910000000 1.0
C      1  0.5839450000000  0.5406370000000  0.5431230000000 1.0
C      1  0.4794030000000  0.4139060000000  0.5389570000000 1.0
C      1  0.5644180000000  0.5595930000000  0.5366450000000 1.0
C      1  0.4106870000000  0.5273270000000  0.5384490000000 1.0
C      1  0.5050960000000  0.4069090000000  0.5481660000000 1.0
C      1  0.4834240000000  0.5916590000000  0.5147060000000 1.0
C      1  0.5837410000000  0.4766150000000  0.5171350000000 1.0
C      1  0.4357140000000  0.4471060000000  0.5126030000000 1.0
C      1  0.5166330000000  0.5879160000000  0.5147870000000 1.0
C      1  0.4198690000000  0.4660000000000  0.5016880000000 1.0
C      1  0.5690680000000  0.4496210000000  0.5069720000000 1.0
C      1  0.5664510000000  0.4763950000000  0.4566780000000 1.0
C      1  0.4453980000000  0.4496850000000  0.4497930000000 1.0
C      1  0.4876700000000  0.5754660000000  0.4453340000000 1.0
C      1  0.4308870000000  0.4730750000000  0.4515320000000 1.0
C      1  0.5554070000000  0.4514700000000  0.4527840000000 1.0
C      1  0.5149310000000  0.5709510000000  0.4436500000000 1.0
C      1  0.5231620000000  0.5015520000000  0.4806810000000 1.0
C      1  0.4793880000000  0.4760220000000  0.4735700000000 1.0
C      1  0.4815570000000  0.5308840000000  0.4726150000000 1.0
C      1  0.4640700000000  0.5034440000000  0.4788220000000 1.0
C      1  0.5096620000000  0.4755570000000  0.4799670000000 1.0
C      1  0.5120040000000  0.5300060000000  0.4720530000000 1.0
END
