TITL C-2622967-6265-536 0.00154002736249184 125000 -709.623352159392 0 0 136 (C1) n - 1
REM
REM in /nfs/bkarasulu/CARBON/AIRSS/Generating-Clusters/AIREBO/with-SteepDescent/Higher-Symm/SD-CG/HFTN-CG
REM
REM
REM
REM
REM
REM ./C.cell (b20cbc046b6831c77cfcea5457e17084)
REM
REM compiler GCC version 9.2.1 20190827 (Red Hat 9.2.1-1)
REM options -cpp -mtune=generic -march=x86-64 -g -O0 -fpre-include=/usr/include/finclude/math-vector-fortran.h
REM seed -690435282 -2025234468 610665572 1579855711 -891426472 369496216 -1217976973 -1835844013 664408246 -2111471613 2027019458 1164735298 -131235055 -754494226 1802807320 -1172844876 -1106169535 -2136020437 -1195775914 -913906079 1871966870 453597517 1912386812 883104304 -1670708711 986759405 -856962196 -391489759 -1478050083 1744850385 87899473 -1806560544 -167813833
REM
CELL 1.54180   50.00000   50.00000   50.00000   90.00000   90.00000   90.00000
LATT -1
SFAC C  
C      1  0.5613990000000  0.4815750000000  0.5322320000000 1.0
C      1  0.4844420000000  0.4011750000000  0.4825170000000 1.0
C      1  0.4867170000000  0.5863160000000  0.4999480000000 1.0
C      1  0.4294230000000  0.5823910000000  0.4750830000000 1.0
C      1  0.4527700000000  0.4789040000000  0.5835820000000 1.0
C      1  0.5187920000000  0.5325080000000  0.4157990000000 1.0
C      1  0.4695930000000  0.5234590000000  0.4120170000000 1.0
C      1  0.4501020000000  0.5320710000000  0.5919130000000 1.0
C      1  0.5352800000000  0.4297760000000  0.4748560000000 1.0
C      1  0.4389530000000  0.4149080000000  0.5318660000000 1.0
C      1  0.5408730000000  0.5326080000000  0.4681660000000 1.0
C      1  0.4822090000000  0.5092170000000  0.5239750000000 1.0
C      1  0.5228940000000  0.5396290000000  0.5681600000000 1.0
C      1  0.5792080000000  0.5301490000000  0.4472500000000 1.0
C      1  0.4901920000000  0.4135370000000  0.5122800000000 1.0
C      1  0.4333350000000  0.4611940000000  0.5279290000000 1.0
C      1  0.5015420000000  0.4514390000000  0.5559660000000 1.0
C      1  0.5907610000000  0.4967110000000  0.4921950000000 1.0
C      1  0.5603460000000  0.5527930000000  0.4855640000000 1.0
C      1  0.4778340000000  0.4679680000000  0.6016140000000 1.0
C      1  0.4973680000000  0.5527550000000  0.5498830000000 1.0
C      1  0.4342860000000  0.4168170000000  0.4994190000000 1.0
C      1  0.4101950000000  0.4944040000000  0.4872840000000 1.0
C      1  0.5267940000000  0.5254030000000  0.5266690000000 1.0
C      1  0.4375660000000  0.4258440000000  0.4599120000000 1.0
C      1  0.4763910000000  0.5466130000000  0.5759430000000 1.0
C      1  0.5547750000000  0.4547910000000  0.5015780000000 1.0
C      1  0.4400190000000  0.4528960000000  0.5716210000000 1.0
C      1  0.4630150000000  0.5708700000000  0.4349840000000 1.0
C      1  0.4783190000000  0.5385840000000  0.5250240000000 1.0
C      1  0.5535370000000  0.4648290000000  0.4691100000000 1.0
C      1  0.5113460000000  0.4840230000000  0.5568310000000 1.0
C      1  0.4774100000000  0.5411930000000  0.4564950000000 1.0
C      1  0.4340750000000  0.5072750000000  0.5820520000000 1.0
C      1  0.5150620000000  0.5985990000000  0.5023890000000 1.0
C      1  0.4580840000000  0.5555450000000  0.5433570000000 1.0
C      1  0.4886620000000  0.4984650000000  0.4435390000000 1.0
C      1  0.5213440000000  0.5152410000000  0.4884150000000 1.0
C      1  0.4317140000000  0.5079970000000  0.5474770000000 1.0
C      1  0.5127260000000  0.4809540000000  0.4043810000000 1.0
C      1  0.4912220000000  0.4086640000000  0.5418800000000 1.0
C      1  0.5008360000000  0.5560720000000  0.4035440000000 1.0
C      1  0.4147580000000  0.5011150000000  0.4601350000000 1.0
C      1  0.5608350000000  0.5269520000000  0.5512290000000 1.0
C      1  0.4930860000000  0.5268610000000  0.4899340000000 1.0
C      1  0.5399990000000  0.5823420000000  0.5541130000000 1.0
C      1  0.4542390000000  0.4732350000000  0.4761050000000 1.0
C      1  0.5004430000000  0.4385400000000  0.4314820000000 1.0
C      1  0.4558120000000  0.5048330000000  0.5084540000000 1.0
C      1  0.4596270000000  0.4807560000000  0.4433800000000 1.0
C      1  0.4821240000000  0.4314820000000  0.5554150000000 1.0
C      1  0.4344950000000  0.5599050000000  0.4500400000000 1.0
C      1  0.5491740000000  0.5298140000000  0.4210220000000 1.0
C      1  0.4586600000000  0.5187440000000  0.4604310000000 1.0
C      1  0.5826300000000  0.5433260000000  0.5308530000000 1.0
C      1  0.5333060000000  0.4825610000000  0.5808100000000 1.0
C      1  0.5710990000000  0.5793800000000  0.5016460000000 1.0
C      1  0.5256710000000  0.5157180000000  0.5813240000000 1.0
C      1  0.4732820000000  0.5005540000000  0.4814370000000 1.0
C      1  0.5162550000000  0.5551820000000  0.4617370000000 1.0
C      1  0.5734660000000  0.5073960000000  0.5149740000000 1.0
C      1  0.4845790000000  0.4491920000000  0.4660770000000 1.0
C      1  0.4162060000000  0.5407050000000  0.5154720000000 1.0
C      1  0.4542190000000  0.4417460000000  0.5435010000000 1.0
C      1  0.5380440000000  0.5021180000000  0.5459900000000 1.0
C      1  0.4557600000000  0.3980290000000  0.4820510000000 1.0
C      1  0.5612210000000  0.4123040000000  0.5255610000000 1.0
C      1  0.5339370000000  0.4180540000000  0.5532410000000 1.0
C      1  0.5400610000000  0.4388880000000  0.5270500000000 1.0
C      1  0.4668230000000  0.5479920000000  0.4944270000000 1.0
C      1  0.5420000000000  0.4850670000000  0.5045280000000 1.0
C      1  0.4081610000000  0.5647050000000  0.4948610000000 1.0
C      1  0.5964120000000  0.5384800000000  0.5058080000000 1.0
C      1  0.4191220000000  0.4775500000000  0.5443630000000 1.0
C      1  0.5463270000000  0.5554790000000  0.5627190000000 1.0
C      1  0.5530880000000  0.5031800000000  0.4800580000000 1.0
C      1  0.5523820000000  0.5297570000000  0.5092930000000 1.0
C      1  0.5842770000000  0.4610980000000  0.5172890000000 1.0
C      1  0.5437900000000  0.5735740000000  0.4539420000000 1.0
C      1  0.4963170000000  0.5738230000000  0.4414520000000 1.0
C      1  0.5586610000000  0.5919310000000  0.4779490000000 1.0
C      1  0.4978030000000  0.4797050000000  0.4703970000000 1.0
C      1  0.5715230000000  0.4797330000000  0.4248920000000 1.0
C      1  0.4049340000000  0.4643740000000  0.4902330000000 1.0
C      1  0.4259200000000  0.5095530000000  0.5133670000000 1.0
C      1  0.4367120000000  0.5505020000000  0.4826480000000 1.0
C      1  0.5661050000000  0.4268730000000  0.4858150000000 1.0
C      1  0.4975850000000  0.5068010000000  0.4118000000000 1.0
C      1  0.4256170000000  0.4807950000000  0.4438060000000 1.0
C      1  0.4841250000000  0.4833520000000  0.5402000000000 1.0
C      1  0.4566190000000  0.4415720000000  0.4773690000000 1.0
C      1  0.4494270000000  0.5102480000000  0.4298440000000 1.0
C      1  0.4565810000000  0.5950590000000  0.4868330000000 1.0
C      1  0.5280490000000  0.4802250000000  0.4545720000000 1.0
C      1  0.5151740000000  0.4549990000000  0.5299720000000 1.0
C      1  0.5028480000000  0.5295010000000  0.4439340000000 1.0
C      1  0.5625570000000  0.5552570000000  0.4386370000000 1.0
C      1  0.4289870000000  0.5276270000000  0.4510910000000 1.0
C      1  0.5826880000000  0.4747450000000  0.4792020000000 1.0
C      1  0.5318930000000  0.4401840000000  0.4464470000000 1.0
C      1  0.4994110000000  0.4211280000000  0.4598930000000 1.0
C      1  0.4280880000000  0.5414400000000  0.5469740000000 1.0
C      1  0.5125540000000  0.4969050000000  0.5147860000000 1.0
C      1  0.4742910000000  0.4589020000000  0.5220540000000 1.0
C      1  0.5198260000000  0.4646500000000  0.4261540000000 1.0
C      1  0.5366840000000  0.5087650000000  0.4442780000000 1.0
C      1  0.5032580000000  0.4766810000000  0.5960700000000 1.0
C      1  0.5391920000000  0.4051330000000  0.5058300000000 1.0
C      1  0.4682810000000  0.5700600000000  0.4685800000000 1.0
C      1  0.4338470000000  0.4650780000000  0.5004930000000 1.0
C      1  0.5151440000000  0.3996020000000  0.5527090000000 1.0
C      1  0.5914730000000  0.4400470000000  0.4962990000000 1.0
C      1  0.4109670000000  0.4346520000000  0.4883390000000 1.0
C      1  0.4593480000000  0.5869670000000  0.5191420000000 1.0
C      1  0.5268020000000  0.5909190000000  0.5278130000000 1.0
C      1  0.5717720000000  0.4987540000000  0.5667880000000 1.0
C      1  0.4327550000000  0.5684940000000  0.5260980000000 1.0
C      1  0.4639640000000  0.4320470000000  0.5060040000000 1.0
C      1  0.5788990000000  0.5254650000000  0.4797070000000 1.0
C      1  0.5732830000000  0.5070690000000  0.4286020000000 1.0
C      1  0.5280830000000  0.5882400000000  0.4806040000000 1.0
C      1  0.4736390000000  0.4537420000000  0.4280830000000 1.0
C      1  0.5578590000000  0.4601630000000  0.4370210000000 1.0
C      1  0.5594210000000  0.4687980000000  0.5636880000000 1.0
C      1  0.4626250000000  0.4971730000000  0.5566500000000 1.0
C      1  0.5015300000000  0.5045740000000  0.5909730000000 1.0
C      1  0.4797990000000  0.5815900000000  0.5458400000000 1.0
C      1  0.5003940000000  0.4677760000000  0.5021450000000 1.0
C      1  0.4759740000000  0.5143050000000  0.5803510000000 1.0
C      1  0.5539960000000  0.5603310000000  0.5239830000000 1.0
C      1  0.5624100000000  0.4367670000000  0.5525900000000 1.0
C      1  0.5200020000000  0.5577260000000  0.5249730000000 1.0
C      1  0.5183610000000  0.4006240000000  0.4793180000000 1.0
C      1  0.4745260000000  0.5517660000000  0.4116040000000 1.0
C      1  0.5094100000000  0.4356420000000  0.4956330000000 1.0
C      1  0.5052280000000  0.5583910000000  0.4940200000000 1.0
END
