TITL C-2622953-3516-507 0.00400471167686279 125000 -865.528880627194 0 0 164 (C1) n - 1
REM
REM in /nfs/bkarasulu/CARBON/AIRSS/Generating-Clusters/AIREBO/with-SteepDescent/Higher-Symm/SD-CG/HFTN-CG
REM
REM
REM
REM
REM
REM ./C.cell (b20cbc046b6831c77cfcea5457e17084)
REM
REM compiler GCC version 9.2.1 20190827 (Red Hat 9.2.1-1)
REM options -cpp -mtune=generic -march=x86-64 -g -O0 -fpre-include=/usr/include/finclude/math-vector-fortran.h
REM seed -1138462778 -1955065095 323360049 -1135910322 858834624 206568984 12459671 1103724348 -1131519663 -831762229 720313854 1416461321 996838156 -948650024 731957918 -180944138 -1431625423 -277773163 -383182495 593000722 -87819249 -67922100 1894172764 -1906710256 -1958241494 1939345409 1852218756 1464242249 -662993876 946358480 1579399987 571219043 1325080272
REM
CELL 1.54180   50.00000   50.00000   50.00000   90.00000   90.00000   90.00000
LATT -1
SFAC C  
C      1  0.3985520000000  0.5127410000000  0.5279120000000 1.0
C      1  0.4898190000000  0.5105560000000  0.6077740000000 1.0
C      1  0.6035030000000  0.5171100000000  0.5333840000000 1.0
C      1  0.5552610000000  0.5181830000000  0.4207070000000 1.0
C      1  0.4484710000000  0.5137490000000  0.4193750000000 1.0
C      1  0.5638290000000  0.4855490000000  0.4162120000000 1.0
C      1  0.4414020000000  0.4807660000000  0.4122710000000 1.0
C      1  0.4021570000000  0.4869110000000  0.5152290000000 1.0
C      1  0.4879760000000  0.4762050000000  0.6051140000000 1.0
C      1  0.5955610000000  0.4873100000000  0.5410370000000 1.0
C      1  0.4719220000000  0.4499000000000  0.4610060000000 1.0
C      1  0.4585040000000  0.4728740000000  0.5312030000000 1.0
C      1  0.4943710000000  0.4563830000000  0.5342730000000 1.0
C      1  0.5367110000000  0.4599560000000  0.5098490000000 1.0
C      1  0.5073880000000  0.4648480000000  0.4745790000000 1.0
C      1  0.5018580000000  0.5066790000000  0.4850280000000 1.0
C      1  0.4741540000000  0.4998750000000  0.4898660000000 1.0
C      1  0.4607940000000  0.5246560000000  0.5089340000000 1.0
C      1  0.5011670000000  0.5107180000000  0.5246940000000 1.0
C      1  0.5258000000000  0.4988980000000  0.5052940000000 1.0
C      1  0.5031980000000  0.4527110000000  0.5894970000000 1.0
C      1  0.5857760000000  0.4611340000000  0.5213590000000 1.0
C      1  0.5428730000000  0.4625530000000  0.4264370000000 1.0
C      1  0.4414780000000  0.4514300000000  0.4250680000000 1.0
C      1  0.4196400000000  0.4639410000000  0.5332630000000 1.0
C      1  0.5178220000000  0.4452630000000  0.5531030000000 1.0
C      1  0.5578890000000  0.4380400000000  0.5032630000000 1.0
C      1  0.5093780000000  0.4418330000000  0.4496310000000 1.0
C      1  0.4549780000000  0.4234570000000  0.4658470000000 1.0
C      1  0.4542070000000  0.4416990000000  0.5354930000000 1.0
C      1  0.4052030000000  0.4838950000000  0.4868640000000 1.0
C      1  0.4675490000000  0.4960690000000  0.5865360000000 1.0
C      1  0.5754440000000  0.4961660000000  0.5612080000000 1.0
C      1  0.5752850000000  0.5025690000000  0.4433260000000 1.0
C      1  0.4723560000000  0.4922740000000  0.4082010000000 1.0
C      1  0.4900190000000  0.5376540000000  0.5872170000000 1.0
C      1  0.5928600000000  0.5359890000000  0.5513980000000 1.0
C      1  0.5688170000000  0.5447090000000  0.4333080000000 1.0
C      1  0.4496170000000  0.5484340000000  0.4216550000000 1.0
C      1  0.4130330000000  0.5402120000000  0.5154480000000 1.0
C      1  0.4741520000000  0.3918390000000  0.5100530000000 1.0
C      1  0.5015200000000  0.3909650000000  0.5280080000000 1.0
C      1  0.5277440000000  0.3924890000000  0.5063860000000 1.0
C      1  0.5163610000000  0.3944680000000  0.4737520000000 1.0
C      1  0.4823870000000  0.3967350000000  0.4774240000000 1.0
C      1  0.4774450000000  0.5851970000000  0.5095960000000 1.0
C      1  0.5172450000000  0.5961140000000  0.5365180000000 1.0
C      1  0.5349780000000  0.5682550000000  0.5028770000000 1.0
C      1  0.5039360000000  0.5747450000000  0.4759120000000 1.0
C      1  0.4673410000000  0.5979440000000  0.4841880000000 1.0
C      1  0.5553850000000  0.4666480000000  0.5355860000000 1.0
C      1  0.5512970000000  0.4615420000000  0.4582910000000 1.0
C      1  0.4740350000000  0.4476380000000  0.4297310000000 1.0
C      1  0.4389600000000  0.4626190000000  0.5053120000000 1.0
C      1  0.4798380000000  0.4525590000000  0.5647800000000 1.0
C      1  0.4372740000000  0.4887390000000  0.5484410000000 1.0
C      1  0.5265390000000  0.4882490000000  0.5611080000000 1.0
C      1  0.5803670000000  0.4812140000000  0.4944550000000 1.0
C      1  0.5145460000000  0.4814270000000  0.4311910000000 1.0
C      1  0.4546860000000  0.4730370000000  0.4680880000000 1.0
C      1  0.4228990000000  0.5549680000000  0.5612460000000 1.0
C      1  0.5294920000000  0.5401290000000  0.5870280000000 1.0
C      1  0.5901760000000  0.5583570000000  0.5002170000000 1.0
C      1  0.5239460000000  0.5507180000000  0.4221840000000 1.0
C      1  0.4274750000000  0.5388920000000  0.4535600000000 1.0
C      1  0.4296780000000  0.5673920000000  0.5035940000000 1.0
C      1  0.4917970000000  0.5634120000000  0.5659950000000 1.0
C      1  0.5673370000000  0.5585960000000  0.5488770000000 1.0
C      1  0.5506310000000  0.5645600000000  0.4478950000000 1.0
C      1  0.4741270000000  0.5690910000000  0.4330000000000 1.0
C      1  0.4291880000000  0.5157650000000  0.4863400000000 1.0
C      1  0.4641500000000  0.5363200000000  0.5559760000000 1.0
C      1  0.5417800000000  0.5152810000000  0.5522640000000 1.0
C      1  0.5552080000000  0.5124890000000  0.4748320000000 1.0
C      1  0.4930950000000  0.5222460000000  0.4469800000000 1.0
C      1  0.4734950000000  0.5866600000000  0.5491790000000 1.0
C      1  0.5486080000000  0.5855560000000  0.5443190000000 1.0
C      1  0.5555280000000  0.5844280000000  0.4712870000000 1.0
C      1  0.4978660000000  0.5897490000000  0.4395360000000 1.0
C      1  0.4381380000000  0.5840990000000  0.4751850000000 1.0
C      1  0.5228130000000  0.5362290000000  0.4526030000000 1.0
C      1  0.4560720000000  0.5506050000000  0.4632330000000 1.0
C      1  0.4499620000000  0.5636610000000  0.5542480000000 1.0
C      1  0.5259200000000  0.5451190000000  0.5560320000000 1.0
C      1  0.5503950000000  0.5314340000000  0.5023650000000 1.0
C      1  0.4290230000000  0.4529910000000  0.5642910000000 1.0
C      1  0.5370590000000  0.4500790000000  0.5876770000000 1.0
C      1  0.5996960000000  0.4453030000000  0.4946650000000 1.0
C      1  0.5191970000000  0.4525510000000  0.4041680000000 1.0
C      1  0.4188000000000  0.4480300000000  0.4479260000000 1.0
C      1  0.4434980000000  0.5423590000000  0.4898700000000 1.0
C      1  0.4952490000000  0.5347740000000  0.5479920000000 1.0
C      1  0.5444380000000  0.5492890000000  0.5280430000000 1.0
C      1  0.5386840000000  0.5484720000000  0.4753670000000 1.0
C      1  0.4876060000000  0.5537840000000  0.4584560000000 1.0
C      1  0.4898080000000  0.4230100000000  0.5296020000000 1.0
C      1  0.5218620000000  0.4238180000000  0.5182400000000 1.0
C      1  0.5255380000000  0.4251960000000  0.4844480000000 1.0
C      1  0.4938770000000  0.4272930000000  0.4738340000000 1.0
C      1  0.4691050000000  0.4244630000000  0.5028880000000 1.0
C      1  0.4159170000000  0.4292370000000  0.4699910000000 1.0
C      1  0.4379140000000  0.4258540000000  0.5681850000000 1.0
C      1  0.5475780000000  0.4273170000000  0.5726940000000 1.0
C      1  0.5872970000000  0.4316640000000  0.4771210000000 1.0
C      1  0.5089080000000  0.4211140000000  0.3963020000000 1.0
C      1  0.5805730000000  0.4277160000000  0.5250250000000 1.0
C      1  0.5367340000000  0.4292110000000  0.4237120000000 1.0
C      1  0.4465640000000  0.4189340000000  0.4339350000000 1.0
C      1  0.4226050000000  0.4301670000000  0.5305310000000 1.0
C      1  0.5068570000000  0.4241440000000  0.5713860000000 1.0
C      1  0.4225650000000  0.4685690000000  0.4693770000000 1.0
C      1  0.4552480000000  0.4707070000000  0.5709770000000 1.0
C      1  0.5532180000000  0.4716220000000  0.5691530000000 1.0
C      1  0.5752110000000  0.4791760000000  0.4660420000000 1.0
C      1  0.4911800000000  0.4691820000000  0.4138940000000 1.0
C      1  0.4398380000000  0.4352170000000  0.4925300000000 1.0
C      1  0.4696810000000  0.4210530000000  0.5570200000000 1.0
C      1  0.5444570000000  0.4348440000000  0.5406270000000 1.0
C      1  0.5543190000000  0.4352980000000  0.4717020000000 1.0
C      1  0.4963300000000  0.4256970000000  0.4226940000000 1.0
C      1  0.5926380000000  0.5382980000000  0.4469610000000 1.0
C      1  0.4737170000000  0.5406520000000  0.4039210000000 1.0
C      1  0.3938000000000  0.5321840000000  0.4933070000000 1.0
C      1  0.4613010000000  0.5355680000000  0.5957810000000 1.0
C      1  0.5697160000000  0.5348490000000  0.5731070000000 1.0
C      1  0.5390890000000  0.6001900000000  0.5137980000000 1.0
C      1  0.5306580000000  0.5963020000000  0.4749390000000 1.0
C      1  0.4934240000000  0.6063210000000  0.4689020000000 1.0
C      1  0.4406700000000  0.6161830000000  0.4797960000000 1.0
C      1  0.4904000000000  0.6080800000000  0.5286700000000 1.0
C      1  0.5888650000000  0.5160580000000  0.4714540000000 1.0
C      1  0.4884020000000  0.5186360000000  0.4145660000000 1.0
C      1  0.4031890000000  0.5109240000000  0.4686240000000 1.0
C      1  0.4435140000000  0.5174470000000  0.5753200000000 1.0
C      1  0.5528840000000  0.5082220000000  0.5836220000000 1.0
C      1  0.5054800000000  0.3994550000000  0.5605380000000 1.0
C      1  0.5572950000000  0.4062830000000  0.5160480000000 1.0
C      1  0.5268990000000  0.4128140000000  0.4469470000000 1.0
C      1  0.4604090000000  0.3938900000000  0.4523250000000 1.0
C      1  0.4489300000000  0.4095820000000  0.5248560000000 1.0
C      1  0.5982690000000  0.5284350000000  0.5017280000000 1.0
C      1  0.5214380000000  0.5182550000000  0.4171930000000 1.0
C      1  0.4293870000000  0.5094060000000  0.4469590000000 1.0
C      1  0.4198210000000  0.5243000000000  0.5513770000000 1.0
C      1  0.5203040000000  0.5116520000000  0.5927500000000 1.0
C      1  0.4936650000000  0.4896760000000  0.4567340000000 1.0
C      1  0.4437410000000  0.4918650000000  0.4940190000000 1.0
C      1  0.4871090000000  0.4882790000000  0.5413260000000 1.0
C      1  0.5491430000000  0.4986910000000  0.5260580000000 1.0
C      1  0.5342520000000  0.4857030000000  0.4750900000000 1.0
C      1  0.4490110000000  0.5166320000000  0.5357180000000 1.0
C      1  0.4978100000000  0.4971110000000  0.5710640000000 1.0
C      1  0.5741630000000  0.5079380000000  0.5086530000000 1.0
C      1  0.5291530000000  0.5050350000000  0.4475820000000 1.0
C      1  0.4618790000000  0.5010040000000  0.4525000000000 1.0
C      1  0.5206280000000  0.5780790000000  0.5625240000000 1.0
C      1  0.5678090000000  0.5710380000000  0.4944210000000 1.0
C      1  0.5239490000000  0.5794430000000  0.4325590000000 1.0
C      1  0.4419660000000  0.5739580000000  0.4429130000000 1.0
C      1  0.4514800000000  0.5755550000000  0.5244390000000 1.0
C      1  0.5013340000000  0.5634550000000  0.5055890000000 1.0
C      1  0.4902700000000  0.5364370000000  0.5088410000000 1.0
C      1  0.5075510000000  0.4634880000000  0.5065960000000 1.0
C      1  0.5091760000000  0.6069240000000  0.4990570000000 1.0
END
