TITL C-2622957-9142-432 -0.000525139258416164 125000 -863.688131257822 0 0 163 (C1) n - 1
REM
REM in /nfs/bkarasulu/CARBON/AIRSS/Generating-Clusters/AIREBO/with-SteepDescent/Higher-Symm/SD-CG/HFTN-CG
REM
REM
REM
REM
REM
REM ./C.cell (b20cbc046b6831c77cfcea5457e17084)
REM
REM compiler GCC version 9.2.1 20190827 (Red Hat 9.2.1-1)
REM options -cpp -mtune=generic -march=x86-64 -g -O0 -fpre-include=/usr/include/finclude/math-vector-fortran.h
REM seed -2013052185 -1023000078 -692223140 1922935500 -1864740139 1003031494 -101192900 1132338695 -1700210354 -1014569333 991137695 129037475 2041928128 541126086 946512134 -392807888 1727574945 -1308738356 -784963072 -1569400945 848185417 -718319108 -1822122908 54745379 -609146836 -203893869 -1786959929 1061144171 1097902983 -262918976 1205829787 -398668495 -1932154765
REM
CELL 1.54180   50.00000   50.00000   50.00000   90.00000   90.00000   90.00000
LATT -1
SFAC C  
C      1  0.5540840000000  0.4561350000000  0.5864860000000 1.0
C      1  0.4048270000000  0.4662050000000  0.5201020000000 1.0
C      1  0.5495790000000  0.4620740000000  0.4077840000000 1.0
C      1  0.5028560000000  0.4744220000000  0.4402080000000 1.0
C      1  0.5444930000000  0.4700470000000  0.5341840000000 1.0
C      1  0.4487790000000  0.4689420000000  0.5214200000000 1.0
C      1  0.5018580000000  0.5059450000000  0.3907170000000 1.0
C      1  0.5891070000000  0.5050060000000  0.5586140000000 1.0
C      1  0.4126810000000  0.5157900000000  0.5642250000000 1.0
C      1  0.4755130000000  0.4002810000000  0.4750360000000 1.0
C      1  0.5324650000000  0.3863920000000  0.4780510000000 1.0
C      1  0.5112460000000  0.3944600000000  0.5327510000000 1.0
C      1  0.4360490000000  0.4663570000000  0.4171710000000 1.0
C      1  0.5931110000000  0.4778750000000  0.4843420000000 1.0
C      1  0.4738020000000  0.4662590000000  0.6015840000000 1.0
C      1  0.5255940000000  0.5373680000000  0.5945360000000 1.0
C      1  0.4086110000000  0.5348420000000  0.4911270000000 1.0
C      1  0.5591170000000  0.5388810000000  0.4293480000000 1.0
C      1  0.4486730000000  0.5553440000000  0.4281950000000 1.0
C      1  0.5875300000000  0.5562560000000  0.4979640000000 1.0
C      1  0.4624940000000  0.5588190000000  0.5844500000000 1.0
C      1  0.5794190000000  0.5086760000000  0.4275490000000 1.0
C      1  0.5252180000000  0.5105580000000  0.6047760000000 1.0
C      1  0.3965400000000  0.5044320000000  0.4815860000000 1.0
C      1  0.4498050000000  0.3925650000000  0.4625610000000 1.0
C      1  0.5535290000000  0.3937340000000  0.4619080000000 1.0
C      1  0.5177240000000  0.4044840000000  0.5574890000000 1.0
C      1  0.5494000000000  0.5213420000000  0.5306520000000 1.0
C      1  0.4538970000000  0.5276850000000  0.5360620000000 1.0
C      1  0.4786630000000  0.5096390000000  0.4288040000000 1.0
C      1  0.5049240000000  0.4642940000000  0.5766770000000 1.0
C      1  0.4287250000000  0.4646290000000  0.4687230000000 1.0
C      1  0.5637170000000  0.4596600000000  0.4540490000000 1.0
C      1  0.5249230000000  0.4091170000000  0.5002310000000 1.0
C      1  0.4842770000000  0.4064740000000  0.5199030000000 1.0
C      1  0.4972020000000  0.4035830000000  0.4582570000000 1.0
C      1  0.4957590000000  0.4354910000000  0.4201010000000 1.0
C      1  0.5654660000000  0.4360610000000  0.5295040000000 1.0
C      1  0.4429180000000  0.4365340000000  0.5483610000000 1.0
C      1  0.5437980000000  0.4722410000000  0.4785740000000 1.0
C      1  0.4932190000000  0.4766280000000  0.5470040000000 1.0
C      1  0.4606420000000  0.4666610000000  0.4715670000000 1.0
C      1  0.5732200000000  0.5619220000000  0.4700400000000 1.0
C      1  0.4941890000000  0.5613940000000  0.5895600000000 1.0
C      1  0.4324540000000  0.5597120000000  0.4563180000000 1.0
C      1  0.5327690000000  0.5460410000000  0.5397340000000 1.0
C      1  0.4550380000000  0.5509650000000  0.5142010000000 1.0
C      1  0.5140570000000  0.5381620000000  0.4528770000000 1.0
C      1  0.4739490000000  0.6135840000000  0.5012760000000 1.0
C      1  0.5196930000000  0.5846560000000  0.4671250000000 1.0
C      1  0.5076390000000  0.5916010000000  0.5238240000000 1.0
C      1  0.4377540000000  0.4943340000000  0.4189980000000 1.0
C      1  0.5639380000000  0.4950440000000  0.4876190000000 1.0
C      1  0.4622430000000  0.5007220000000  0.5642850000000 1.0
C      1  0.5623530000000  0.4196300000000  0.4652340000000 1.0
C      1  0.5041680000000  0.4257730000000  0.5660200000000 1.0
C      1  0.4468490000000  0.4191750000000  0.4536890000000 1.0
C      1  0.4853810000000  0.4383930000000  0.5869890000000 1.0
C      1  0.4400570000000  0.4477720000000  0.4430510000000 1.0
C      1  0.5820470000000  0.4407560000000  0.4755620000000 1.0
C      1  0.4169310000000  0.5107820000000  0.5953190000000 1.0
C      1  0.4749040000000  0.4909150000000  0.3881730000000 1.0
C      1  0.6045560000000  0.4929990000000  0.5345380000000 1.0
C      1  0.5504650000000  0.5840800000000  0.5053830000000 1.0
C      1  0.4668230000000  0.5946880000000  0.5479530000000 1.0
C      1  0.4819430000000  0.5825350000000  0.4561060000000 1.0
C      1  0.5690610000000  0.4416280000000  0.4255300000000 1.0
C      1  0.5245760000000  0.4466360000000  0.5983260000000 1.0
C      1  0.4003370000000  0.4379530000000  0.5051980000000 1.0
C      1  0.5372260000000  0.4449010000000  0.5128500000000 1.0
C      1  0.4669260000000  0.4418720000000  0.5248770000000 1.0
C      1  0.4975420000000  0.4431060000000  0.4524850000000 1.0
C      1  0.4986290000000  0.5624700000000  0.4341890000000 1.0
C      1  0.5538470000000  0.5708120000000  0.5365880000000 1.0
C      1  0.4451530000000  0.5791700000000  0.5268110000000 1.0
C      1  0.4875980000000  0.4727830000000  0.4098620000000 1.0
C      1  0.5781140000000  0.4733320000000  0.5301450000000 1.0
C      1  0.4505660000000  0.4749280000000  0.5548510000000 1.0
C      1  0.4711800000000  0.4778170000000  0.4990930000000 1.0
C      1  0.5162450000000  0.4814770000000  0.4837510000000 1.0
C      1  0.5147610000000  0.4826180000000  0.5235000000000 1.0
C      1  0.4861920000000  0.5401440000000  0.5161390000000 1.0
C      1  0.4895220000000  0.5384530000000  0.4764150000000 1.0
C      1  0.5139770000000  0.5425170000000  0.4982990000000 1.0
C      1  0.4655350000000  0.4513670000000  0.4202790000000 1.0
C      1  0.5837640000000  0.4523610000000  0.5048860000000 1.0
C      1  0.4592560000000  0.4522950000000  0.5739920000000 1.0
C      1  0.4734910000000  0.5530860000000  0.4180250000000 1.0
C      1  0.5808080000000  0.5538000000000  0.5245920000000 1.0
C      1  0.4466960000000  0.5692950000000  0.5593290000000 1.0
C      1  0.4450910000000  0.5175580000000  0.5866700000000 1.0
C      1  0.4520830000000  0.5066260000000  0.3991180000000 1.0
C      1  0.5903420000000  0.5036780000000  0.5072420000000 1.0
C      1  0.5103700000000  0.5083060000000  0.4356140000000 1.0
C      1  0.5421190000000  0.4988880000000  0.5475520000000 1.0
C      1  0.4418170000000  0.5010160000000  0.5250200000000 1.0
C      1  0.5171650000000  0.5017020000000  0.5672500000000 1.0
C      1  0.4320490000000  0.5111280000000  0.4978040000000 1.0
C      1  0.5431780000000  0.5124120000000  0.4435400000000 1.0
C      1  0.5731730000000  0.5134270000000  0.4606400000000 1.0
C      1  0.4874890000000  0.5106440000000  0.5812490000000 1.0
C      1  0.4340610000000  0.5074180000000  0.4471540000000 1.0
C      1  0.3999590000000  0.5595530000000  0.5085280000000 1.0
C      1  0.5433330000000  0.5555590000000  0.4089140000000 1.0
C      1  0.5464860000000  0.5583010000000  0.5889960000000 1.0
C      1  0.5521590000000  0.4088900000000  0.5206180000000 1.0
C      1  0.4570160000000  0.4068810000000  0.5403870000000 1.0
C      1  0.4963010000000  0.4054690000000  0.4309050000000 1.0
C      1  0.4850080000000  0.6106220000000  0.5271110000000 1.0
C      1  0.4949910000000  0.6056550000000  0.4773680000000 1.0
C      1  0.5205430000000  0.5967650000000  0.4982930000000 1.0
C      1  0.5140950000000  0.5525170000000  0.5663150000000 1.0
C      1  0.4393280000000  0.5485880000000  0.4866850000000 1.0
C      1  0.5435510000000  0.5550050000000  0.4549340000000 1.0
C      1  0.4998980000000  0.4880270000000  0.6005020000000 1.0
C      1  0.4139790000000  0.4900890000000  0.4626700000000 1.0
C      1  0.5862020000000  0.4837720000000  0.4510610000000 1.0
C      1  0.5313360000000  0.5169490000000  0.4731150000000 1.0
C      1  0.5095540000000  0.5213130000000  0.5425020000000 1.0
C      1  0.4547750000000  0.5083680000000  0.4742930000000 1.0
C      1  0.5618410000000  0.5994450000000  0.4773290000000 1.0
C      1  0.4974420000000  0.5883900000000  0.5617070000000 1.0
C      1  0.4503270000000  0.5858280000000  0.4749850000000 1.0
C      1  0.5005770000000  0.5072420000000  0.4743090000000 1.0
C      1  0.5140790000000  0.5117780000000  0.5128370000000 1.0
C      1  0.4730640000000  0.5115530000000  0.5029200000000 1.0
C      1  0.4505730000000  0.5988780000000  0.4995890000000 1.0
C      1  0.5482970000000  0.5886630000000  0.4538050000000 1.0
C      1  0.5287440000000  0.5903960000000  0.5485540000000 1.0
C      1  0.4785230000000  0.4912720000000  0.4569660000000 1.0
C      1  0.5444980000000  0.5169230000000  0.5004440000000 1.0
C      1  0.4800130000000  0.5058910000000  0.5357480000000 1.0
C      1  0.4269900000000  0.4559830000000  0.4983930000000 1.0
C      1  0.5347540000000  0.4664440000000  0.4375720000000 1.0
C      1  0.5331610000000  0.4549050000000  0.5604380000000 1.0
C      1  0.4262600000000  0.5349430000000  0.4373510000000 1.0
C      1  0.5893170000000  0.5358240000000  0.4724980000000 1.0
C      1  0.4794520000000  0.5347550000000  0.5965790000000 1.0
C      1  0.4041650000000  0.4989510000000  0.5130120000000 1.0
C      1  0.5507340000000  0.4952520000000  0.4151750000000 1.0
C      1  0.5421740000000  0.4879950000000  0.5857970000000 1.0
C      1  0.5190080000000  0.4231010000000  0.4697840000000 1.0
C      1  0.5056260000000  0.4326020000000  0.5154910000000 1.0
C      1  0.4713100000000  0.4254700000000  0.4964380000000 1.0
C      1  0.5230490000000  0.4896090000000  0.3984300000000 1.0
C      1  0.5723610000000  0.4862060000000  0.5702480000000 1.0
C      1  0.4087600000000  0.4946050000000  0.5464130000000 1.0
C      1  0.5428680000000  0.4405700000000  0.4828500000000 1.0
C      1  0.4929490000000  0.4445140000000  0.5440560000000 1.0
C      1  0.4708320000000  0.4390710000000  0.4668630000000 1.0
C      1  0.4969330000000  0.5630610000000  0.5388880000000 1.0
C      1  0.4687050000000  0.5580380000000  0.4729220000000 1.0
C      1  0.5335400000000  0.5608780000000  0.4871000000000 1.0
C      1  0.5803800000000  0.5242640000000  0.5328250000000 1.0
C      1  0.4388210000000  0.5375100000000  0.5603800000000 1.0
C      1  0.4784010000000  0.5278210000000  0.4023430000000 1.0
C      1  0.5210080000000  0.5665660000000  0.4119510000000 1.0
C      1  0.5627670000000  0.5679990000000  0.5692790000000 1.0
C      1  0.4126520000000  0.5751440000000  0.5233640000000 1.0
C      1  0.5726840000000  0.4541510000000  0.5576890000000 1.0
C      1  0.4201090000000  0.4623730000000  0.5484690000000 1.0
C      1  0.5163880000000  0.4563530000000  0.4029090000000 1.0
C      1  0.4987230000000  0.4637360000000  0.5036500000000 1.0
END
