TITL C-2622967-6265-237 -0.00159145579851372 125000 -275.805744930564 0 0 49 (C1) n - 1
REM
REM in /nfs/bkarasulu/CARBON/AIRSS/Generating-Clusters/AIREBO/with-SteepDescent/Higher-Symm/SD-CG/HFTN-CG
REM
REM
REM
REM
REM
REM ./C.cell (b20cbc046b6831c77cfcea5457e17084)
REM
REM compiler GCC version 9.2.1 20190827 (Red Hat 9.2.1-1)
REM options -cpp -mtune=generic -march=x86-64 -g -O0 -fpre-include=/usr/include/finclude/math-vector-fortran.h
REM seed 699960566 13569671 385701435 169149805 -813235643 1158385949 -1132012663 -1271082599 -1387915388 -732127395 263565727 1788809280 407095639 -1217573732 -1592943161 72733153 2107499306 -522648096 1204878879 -806302745 436858577 -496959492 -1195603123 412110127 596532280 1718908676 -1720049185 -393603617 -1224103027 -1517749853 717515924 289589914 482865376
REM
CELL 1.54180   50.00000   50.00000   50.00000   90.00000   90.00000   90.00000
LATT -1
SFAC C  
C      1  0.4382000000000  0.4715470000000  0.5151490000000 1.0
C      1  0.5511800000000  0.4649210000000  0.5142390000000 1.0
C      1  0.5050970000000  0.5672750000000  0.5130770000000 1.0
C      1  0.5251910000000  0.5624780000000  0.5318600000000 1.0
C      1  0.4391050000000  0.4913900000000  0.5348680000000 1.0
C      1  0.5346960000000  0.4532330000000  0.5330360000000 1.0
C      1  0.5040080000000  0.4832670000000  0.4288710000000 1.0
C      1  0.5132510000000  0.5143680000000  0.4292630000000 1.0
C      1  0.4816030000000  0.5067770000000  0.4298490000000 1.0
C      1  0.4603320000000  0.4523750000000  0.5149690000000 1.0
C      1  0.5565040000000  0.4917080000000  0.5171150000000 1.0
C      1  0.4787590000000  0.5575900000000  0.5179330000000 1.0
C      1  0.5507940000000  0.5325630000000  0.4911550000000 1.0
C      1  0.4500610000000  0.5256730000000  0.4951070000000 1.0
C      1  0.5004540000000  0.4403700000000  0.4897730000000 1.0
C      1  0.4982040000000  0.5261540000000  0.5508380000000 1.0
C      1  0.4829500000000  0.4785400000000  0.5534120000000 1.0
C      1  0.5116650000000  0.4952640000000  0.5461770000000 1.0
C      1  0.4722680000000  0.5375100000000  0.5376200000000 1.0
C      1  0.4807530000000  0.4523290000000  0.5348860000000 1.0
C      1  0.5402590000000  0.5101160000000  0.5352890000000 1.0
C      1  0.4770300000000  0.4912620000000  0.5224400000000 1.0
C      1  0.5084860000000  0.4790650000000  0.5164450000000 1.0
C      1  0.5137810000000  0.5259360000000  0.5206070000000 1.0
C      1  0.4739680000000  0.4508320000000  0.4883590000000 1.0
C      1  0.5547630000000  0.5050820000000  0.4906820000000 1.0
C      1  0.4704150000000  0.5449240000000  0.4922360000000 1.0
C      1  0.5445080000000  0.5404960000000  0.5206240000000 1.0
C      1  0.4554200000000  0.5156490000000  0.5239670000000 1.0
C      1  0.5077970000000  0.4452550000000  0.5200660000000 1.0
C      1  0.4501150000000  0.5072180000000  0.4745090000000 1.0
C      1  0.5175000000000  0.4527160000000  0.4717500000000 1.0
C      1  0.5327180000000  0.5409000000000  0.4720730000000 1.0
C      1  0.5671470000000  0.4515060000000  0.4679990000000 1.0
C      1  0.5027080000000  0.5798480000000  0.4642790000000 1.0
C      1  0.4326500000000  0.4610340000000  0.4649350000000 1.0
C      1  0.5211810000000  0.5209250000000  0.4563670000000 1.0
C      1  0.4723720000000  0.5085860000000  0.4572720000000 1.0
C      1  0.5071580000000  0.4732700000000  0.4558430000000 1.0
C      1  0.5155800000000  0.5531530000000  0.5563520000000 1.0
C      1  0.4512950000000  0.4837830000000  0.5587910000000 1.0
C      1  0.5302630000000  0.4685500000000  0.5560070000000 1.0
C      1  0.5106420000000  0.5604870000000  0.4823670000000 1.0
C      1  0.4446960000000  0.4776370000000  0.4834600000000 1.0
C      1  0.5456860000000  0.4593970000000  0.4833620000000 1.0
C      1  0.5004720000000  0.5296860000000  0.4927040000000 1.0
C      1  0.4770790000000  0.4836080000000  0.4920490000000 1.0
C      1  0.5263910000000  0.4863420000000  0.4913610000000 1.0
C      1  0.5006120000000  0.5008830000000  0.4745920000000 1.0
END
