TITL C-2622960-5345-49 0.00100848877650981 125000 -690.372760940145 0 0 128 (C1) n - 1
REM
REM in /nfs/bkarasulu/CARBON/AIRSS/Generating-Clusters/AIREBO/with-SteepDescent/Higher-Symm/SD-CG/HFTN-CG
REM
REM
REM
REM
REM
REM ./C.cell (b20cbc046b6831c77cfcea5457e17084)
REM
REM compiler GCC version 9.2.1 20190827 (Red Hat 9.2.1-1)
REM options -cpp -mtune=generic -march=x86-64 -g -O0 -fpre-include=/usr/include/finclude/math-vector-fortran.h
REM seed -165999894 -1435310294 -1712988046 1532043776 1435732360 -697988300 1579897210 643124017 -2005500591 1438310754 -740331997 -1002451313 1458549310 616191151 1751923 -1182052648 789279946 -2076700476 -1452350233 2029630010 297148934 604016447 2029095716 -1888071514 -1510735131 -586759281 337068016 -711660602 -498443639 -1399583700 -1782495617 954039281 9631619
REM
CELL 1.54180   50.00000   50.00000   50.00000   90.00000   90.00000   90.00000
LATT -1
SFAC C  
C      1  0.4568890000000  0.4246590000000  0.5507760000000 1.0
C      1  0.4605850000000  0.4344200000000  0.4484340000000 1.0
C      1  0.4634010000000  0.5291910000000  0.4152960000000 1.0
C      1  0.4626260000000  0.5855140000000  0.5105810000000 1.0
C      1  0.4678980000000  0.5134380000000  0.5795510000000 1.0
C      1  0.4713950000000  0.4953440000000  0.5519040000000 1.0
C      1  0.4714490000000  0.4583520000000  0.5074010000000 1.0
C      1  0.4650070000000  0.4680860000000  0.4502710000000 1.0
C      1  0.4540820000000  0.5319820000000  0.4461600000000 1.0
C      1  0.4743520000000  0.5539640000000  0.5155440000000 1.0
C      1  0.4243430000000  0.5536500000000  0.4914540000000 1.0
C      1  0.4318460000000  0.5239920000000  0.5412840000000 1.0
C      1  0.4268320000000  0.4655810000000  0.5411070000000 1.0
C      1  0.4305360000000  0.4523860000000  0.4826170000000 1.0
C      1  0.4142780000000  0.5000090000000  0.4408810000000 1.0
C      1  0.5719340000000  0.5381180000000  0.4617000000000 1.0
C      1  0.5840040000000  0.5807610000000  0.5267310000000 1.0
C      1  0.5772120000000  0.4995110000000  0.5931530000000 1.0
C      1  0.5742740000000  0.4384010000000  0.5083050000000 1.0
C      1  0.5860090000000  0.4551650000000  0.4348030000000 1.0
C      1  0.5278110000000  0.5919430000000  0.4897680000000 1.0
C      1  0.5289400000000  0.5442980000000  0.5775130000000 1.0
C      1  0.5260610000000  0.4309360000000  0.5571100000000 1.0
C      1  0.5278150000000  0.4140220000000  0.4535070000000 1.0
C      1  0.5223300000000  0.5081540000000  0.4057030000000 1.0
C      1  0.4474330000000  0.4803870000000  0.4766630000000 1.0
C      1  0.4415080000000  0.5060880000000  0.4580860000000 1.0
C      1  0.4553420000000  0.5399770000000  0.4942970000000 1.0
C      1  0.4530770000000  0.5040030000000  0.5287160000000 1.0
C      1  0.4465320000000  0.4753020000000  0.5165950000000 1.0
C      1  0.4059410000000  0.5169920000000  0.5248930000000 1.0
C      1  0.4076180000000  0.4825540000000  0.5218330000000 1.0
C      1  0.4084930000000  0.4738640000000  0.4888070000000 1.0
C      1  0.4039470000000  0.5034650000000  0.4711940000000 1.0
C      1  0.4046480000000  0.5305480000000  0.4929490000000 1.0
C      1  0.4798420000000  0.6062490000000  0.5252380000000 1.0
C      1  0.4915250000000  0.5109310000000  0.6023440000000 1.0
C      1  0.4810040000000  0.4107050000000  0.5402870000000 1.0
C      1  0.4815100000000  0.4269360000000  0.4245290000000 1.0
C      1  0.4887960000000  0.5518160000000  0.4155570000000 1.0
C      1  0.5057390000000  0.5259380000000  0.5764850000000 1.0
C      1  0.5011320000000  0.4465400000000  0.5481430000000 1.0
C      1  0.5001210000000  0.4298710000000  0.4513140000000 1.0
C      1  0.5015330000000  0.5235740000000  0.4248050000000 1.0
C      1  0.5061870000000  0.5681810000000  0.4879980000000 1.0
C      1  0.5103120000000  0.4967210000000  0.6241390000000 1.0
C      1  0.5048740000000  0.3986740000000  0.5296700000000 1.0
C      1  0.4838820000000  0.4473490000000  0.4058550000000 1.0
C      1  0.5088220000000  0.5759430000000  0.4110120000000 1.0
C      1  0.5048780000000  0.5969150000000  0.5305360000000 1.0
C      1  0.6199610000000  0.4829280000000  0.4816770000000 1.0
C      1  0.6107840000000  0.5117600000000  0.4868820000000 1.0
C      1  0.6246480000000  0.5225060000000  0.5118830000000 1.0
C      1  0.6083450000000  0.5005340000000  0.5256280000000 1.0
C      1  0.6053380000000  0.4782300000000  0.5079530000000 1.0
C      1  0.5145500000000  0.5469410000000  0.5132060000000 1.0
C      1  0.5099210000000  0.5037130000000  0.5552580000000 1.0
C      1  0.5182760000000  0.4529530000000  0.5194790000000 1.0
C      1  0.5142170000000  0.4592000000000  0.4612180000000 1.0
C      1  0.5075370000000  0.5208140000000  0.4581610000000 1.0
C      1  0.5503440000000  0.4867830000000  0.5805620000000 1.0
C      1  0.5500710000000  0.4148870000000  0.5134500000000 1.0
C      1  0.5533810000000  0.4603310000000  0.4271320000000 1.0
C      1  0.5471950000000  0.5571950000000  0.4468610000000 1.0
C      1  0.5505910000000  0.5826540000000  0.5327330000000 1.0
C      1  0.4370260000000  0.5678040000000  0.5169880000000 1.0
C      1  0.4375860000000  0.5083690000000  0.5685200000000 1.0
C      1  0.4370390000000  0.4359820000000  0.5339160000000 1.0
C      1  0.4308560000000  0.4364590000000  0.4584290000000 1.0
C      1  0.4310100000000  0.5222790000000  0.4232930000000 1.0
C      1  0.4782740000000  0.5431760000000  0.5749420000000 1.0
C      1  0.4769510000000  0.4444470000000  0.5611950000000 1.0
C      1  0.4776390000000  0.4180200000000  0.4699700000000 1.0
C      1  0.4808770000000  0.5015830000000  0.4124360000000 1.0
C      1  0.4764310000000  0.5784320000000  0.4840420000000 1.0
C      1  0.5331120000000  0.4348540000000  0.4296750000000 1.0
C      1  0.5169970000000  0.5583910000000  0.4368300000000 1.0
C      1  0.5301640000000  0.5993650000000  0.5169870000000 1.0
C      1  0.5214440000000  0.4935990000000  0.5940070000000 1.0
C      1  0.5310940000000  0.4102750000000  0.5389060000000 1.0
C      1  0.5429530000000  0.5492160000000  0.4946380000000 1.0
C      1  0.5500710000000  0.5335570000000  0.5554780000000 1.0
C      1  0.5393990000000  0.4658190000000  0.5428170000000 1.0
C      1  0.5414550000000  0.4453910000000  0.4739190000000 1.0
C      1  0.5343650000000  0.5057170000000  0.4437000000000 1.0
C      1  0.4882680000000  0.4737930000000  0.4744300000000 1.0
C      1  0.4875670000000  0.5057980000000  0.4812270000000 1.0
C      1  0.4898900000000  0.5252430000000  0.5085520000000 1.0
C      1  0.4926850000000  0.4999010000000  0.5261770000000 1.0
C      1  0.4964800000000  0.4755790000000  0.5074330000000 1.0
C      1  0.4343230000000  0.4733340000000  0.4365840000000 1.0
C      1  0.4323700000000  0.5714940000000  0.4644110000000 1.0
C      1  0.4425350000000  0.5520290000000  0.5394960000000 1.0
C      1  0.4379090000000  0.4788990000000  0.5661450000000 1.0
C      1  0.4462540000000  0.4371930000000  0.5048150000000 1.0
C      1  0.5544510000000  0.5264690000000  0.4385570000000 1.0
C      1  0.5650120000000  0.5568820000000  0.5158670000000 1.0
C      1  0.5675110000000  0.5096590000000  0.5621620000000 1.0
C      1  0.5547590000000  0.4423430000000  0.5319530000000 1.0
C      1  0.5646790000000  0.4610380000000  0.4587460000000 1.0
C      1  0.5293330000000  0.4613190000000  0.5723380000000 1.0
C      1  0.5343900000000  0.4167940000000  0.4855050000000 1.0
C      1  0.5350090000000  0.4850530000000  0.4196150000000 1.0
C      1  0.5434420000000  0.5710140000000  0.4740400000000 1.0
C      1  0.5342910000000  0.5629690000000  0.5505900000000 1.0
C      1  0.5095340000000  0.4224380000000  0.5070690000000 1.0
C      1  0.5136330000000  0.4630640000000  0.4274410000000 1.0
C      1  0.4962940000000  0.5527610000000  0.4611580000000 1.0
C      1  0.5042980000000  0.5667990000000  0.5385860000000 1.0
C      1  0.4999850000000  0.4775080000000  0.5734140000000 1.0
C      1  0.5439410000000  0.4628730000000  0.4994790000000 1.0
C      1  0.5345600000000  0.4857440000000  0.4674220000000 1.0
C      1  0.5280660000000  0.5219470000000  0.4852440000000 1.0
C      1  0.5376030000000  0.5257060000000  0.5264370000000 1.0
C      1  0.5316540000000  0.4943850000000  0.5321680000000 1.0
C      1  0.4680060000000  0.4702440000000  0.5740690000000 1.0
C      1  0.4785920000000  0.4277330000000  0.4977270000000 1.0
C      1  0.4834980000000  0.4746130000000  0.4228500000000 1.0
C      1  0.4621320000000  0.5547180000000  0.4644200000000 1.0
C      1  0.4741330000000  0.5568500000000  0.5494260000000 1.0
C      1  0.5668780000000  0.4876190000000  0.4780850000000 1.0
C      1  0.5799930000000  0.5169460000000  0.4839380000000 1.0
C      1  0.5689110000000  0.5252280000000  0.5131860000000 1.0
C      1  0.5841080000000  0.5101960000000  0.5361970000000 1.0
C      1  0.5768410000000  0.4702490000000  0.5039350000000 1.0
C      1  0.5324880000000  0.4943070000000  0.4999320000000 1.0
C      1  0.4231480000000  0.5027170000000  0.4992630000000 1.0
C      1  0.4565520000000  0.5074920000000  0.4950710000000 1.0
END
