TITL C-2622966-9038-622 -0.0013004227176671 125000 -596.789855593988 0 0 116 (C1) n - 1
REM
REM in /nfs/bkarasulu/CARBON/AIRSS/Generating-Clusters/AIREBO/with-SteepDescent/Higher-Symm/SD-CG/HFTN-CG
REM
REM
REM
REM
REM
REM ./C.cell (b20cbc046b6831c77cfcea5457e17084)
REM
REM compiler GCC version 9.2.1 20190827 (Red Hat 9.2.1-1)
REM options -cpp -mtune=generic -march=x86-64 -g -O0 -fpre-include=/usr/include/finclude/math-vector-fortran.h
REM seed 128865412 186139235 330283258 -2084956428 -995475794 -2056907742 -410901668 -2044906779 1413816086 1240782398 920523890 552205232 -970493691 1083046632 758495941 1669491630 2145405491 -2142462414 161762064 1201375402 1530861481 1075390339 868047354 -1849173547 1934652816 -1059888236 -1863972372 -697453349 -1536181179 -629630288 643176308 -1974679199 -625425036
REM
CELL 1.54180   50.00000   50.00000   50.00000   90.00000   90.00000   90.00000
LATT -1
SFAC C  
C      1  0.4671640000000  0.5417330000000  0.5678950000000 1.0
C      1  0.4307620000000  0.5419190000000  0.4683080000000 1.0
C      1  0.5335630000000  0.5460700000000  0.4347970000000 1.0
C      1  0.5716720000000  0.5428040000000  0.5302790000000 1.0
C      1  0.5310530000000  0.4566270000000  0.5643950000000 1.0
C      1  0.5692400000000  0.4544390000000  0.4664200000000 1.0
C      1  0.4717950000000  0.4563000000000  0.4373240000000 1.0
C      1  0.4343780000000  0.4583320000000  0.5340560000000 1.0
C      1  0.5306170000000  0.4451560000000  0.4699040000000 1.0
C      1  0.5412910000000  0.4461200000000  0.5259740000000 1.0
C      1  0.4740080000000  0.4563050000000  0.5295630000000 1.0
C      1  0.4571420000000  0.4437710000000  0.4723070000000 1.0
C      1  0.4761300000000  0.5522260000000  0.4680190000000 1.0
C      1  0.4937600000000  0.5512640000000  0.5183490000000 1.0
C      1  0.5261880000000  0.5550170000000  0.5109000000000 1.0
C      1  0.5175490000000  0.5574400000000  0.4799290000000 1.0
C      1  0.5924640000000  0.4749000000000  0.5098980000000 1.0
C      1  0.4893100000000  0.4787710000000  0.5971290000000 1.0
C      1  0.4075730000000  0.4767500000000  0.4914920000000 1.0
C      1  0.5111770000000  0.4808050000000  0.4138210000000 1.0
C      1  0.4044740000000  0.5200610000000  0.5090930000000 1.0
C      1  0.5070730000000  0.5136380000000  0.5869060000000 1.0
C      1  0.5953930000000  0.5190790000000  0.4900830000000 1.0
C      1  0.4919070000000  0.5231950000000  0.4083200000000 1.0
C      1  0.5928330000000  0.4717660000000  0.4796200000000 1.0
C      1  0.5187430000000  0.4749340000000  0.5902680000000 1.0
C      1  0.4085620000000  0.4741490000000  0.5222120000000 1.0
C      1  0.4813500000000  0.4767580000000  0.4139620000000 1.0
C      1  0.4069600000000  0.5228720000000  0.4787770000000 1.0
C      1  0.4790650000000  0.5229190000000  0.5904300000000 1.0
C      1  0.5945720000000  0.5219950000000  0.5201450000000 1.0
C      1  0.5215090000000  0.5275840000000  0.4107610000000 1.0
C      1  0.5144880000000  0.5243020000000  0.4831240000000 1.0
C      1  0.5229060000000  0.5215770000000  0.5160980000000 1.0
C      1  0.4779070000000  0.5221630000000  0.5168810000000 1.0
C      1  0.4805380000000  0.5220000000000  0.4829720000000 1.0
C      1  0.4847090000000  0.4824110000000  0.4866070000000 1.0
C      1  0.4797600000000  0.4883080000000  0.5196210000000 1.0
C      1  0.5140680000000  0.4887940000000  0.5179180000000 1.0
C      1  0.5185990000000  0.4798530000000  0.4854280000000 1.0
C      1  0.5942220000000  0.4979420000000  0.4674480000000 1.0
C      1  0.5340980000000  0.5015550000000  0.5923500000000 1.0
C      1  0.4066380000000  0.5010630000000  0.5330110000000 1.0
C      1  0.4688820000000  0.5026680000000  0.4109690000000 1.0
C      1  0.4094150000000  0.4960020000000  0.4675980000000 1.0
C      1  0.4637240000000  0.4985970000000  0.5958660000000 1.0
C      1  0.5916300000000  0.4959240000000  0.5325920000000 1.0
C      1  0.5335330000000  0.5016530000000  0.4097470000000 1.0
C      1  0.4474060000000  0.5147320000000  0.4804680000000 1.0
C      1  0.5240190000000  0.5186050000000  0.4509720000000 1.0
C      1  0.5551420000000  0.5160440000000  0.5201640000000 1.0
C      1  0.4855320000000  0.5212560000000  0.5500080000000 1.0
C      1  0.5519090000000  0.4808870000000  0.4786310000000 1.0
C      1  0.4908970000000  0.4772660000000  0.4535660000000 1.0
C      1  0.4460060000000  0.4880260000000  0.5236400000000 1.0
C      1  0.5172190000000  0.4845820000000  0.5515210000000 1.0
C      1  0.5080740000000  0.5881080000000  0.5240680000000 1.0
C      1  0.4803990000000  0.5787830000000  0.5072050000000 1.0
C      1  0.4872430000000  0.5830310000000  0.4763380000000 1.0
C      1  0.5153840000000  0.5892870000000  0.4917510000000 1.0
C      1  0.4898180000000  0.4329560000000  0.5167030000000 1.0
C      1  0.5214350000000  0.4269080000000  0.5090890000000 1.0
C      1  0.5054300000000  0.4284840000000  0.4803140000000 1.0
C      1  0.4772150000000  0.4247330000000  0.4900430000000 1.0
C      1  0.4767180000000  0.5236130000000  0.4492060000000 1.0
C      1  0.5476050000000  0.5263690000000  0.4823290000000 1.0
C      1  0.5144440000000  0.5327870000000  0.5470710000000 1.0
C      1  0.4483160000000  0.5279420000000  0.5233570000000 1.0
C      1  0.5224780000000  0.4703290000000  0.4537570000000 1.0
C      1  0.4576580000000  0.4720550000000  0.4749120000000 1.0
C      1  0.4680140000000  0.4690540000000  0.5564460000000 1.0
C      1  0.5432330000000  0.4736950000000  0.5232380000000 1.0
C      1  0.4611520000000  0.5819400000000  0.4462830000000 1.0
C      1  0.5424890000000  0.5872800000000  0.4726210000000 1.0
C      1  0.5378640000000  0.5821980000000  0.5376810000000 1.0
C      1  0.4513860000000  0.5771470000000  0.5343930000000 1.0
C      1  0.5357700000000  0.4116640000000  0.4480420000000 1.0
C      1  0.4533730000000  0.4100410000000  0.4702630000000 1.0
C      1  0.4695450000000  0.4156900000000  0.5463090000000 1.0
C      1  0.5492750000000  0.4077490000000  0.5303970000000 1.0
C      1  0.5562300000000  0.5659260000000  0.5177870000000 1.0
C      1  0.4782940000000  0.5627950000000  0.5463480000000 1.0
C      1  0.4470250000000  0.5681850000000  0.4742000000000 1.0
C      1  0.5229070000000  0.5703220000000  0.4505760000000 1.0
C      1  0.4504620000000  0.4324620000000  0.5237120000000 1.0
C      1  0.5283090000000  0.4261260000000  0.5500910000000 1.0
C      1  0.5568480000000  0.4252850000000  0.4710980000000 1.0
C      1  0.4761330000000  0.4263150000000  0.4501420000000 1.0
C      1  0.4358060000000  0.5375710000000  0.5654150000000 1.0
C      1  0.4303260000000  0.5378460000000  0.4362730000000 1.0
C      1  0.5639280000000  0.5328400000000  0.4384530000000 1.0
C      1  0.5620820000000  0.5338170000000  0.5602240000000 1.0
C      1  0.5630510000000  0.4671100000000  0.5659880000000 1.0
C      1  0.5653030000000  0.4678490000000  0.4363020000000 1.0
C      1  0.4404060000000  0.4645650000000  0.4366830000000 1.0
C      1  0.4368680000000  0.4594380000000  0.5661220000000 1.0
C      1  0.4464180000000  0.4900880000000  0.5723420000000 1.0
C      1  0.4401520000000  0.4926110000000  0.4556810000000 1.0
C      1  0.5415270000000  0.4914810000000  0.4402670000000 1.0
C      1  0.5597160000000  0.4918140000000  0.5435760000000 1.0
C      1  0.5369560000000  0.5109100000000  0.5601410000000 1.0
C      1  0.5630610000000  0.5077410000000  0.4609830000000 1.0
C      1  0.4504060000000  0.5137150000000  0.4335270000000 1.0
C      1  0.4354750000000  0.5088380000000  0.5483900000000 1.0
C      1  0.5514580000000  0.4164680000000  0.5012360000000 1.0
C      1  0.4994150000000  0.4192570000000  0.5445660000000 1.0
C      1  0.4387730000000  0.4188080000000  0.4981500000000 1.0
C      1  0.5085970000000  0.4182180000000  0.4505120000000 1.0
C      1  0.4487220000000  0.5785790000000  0.5042080000000 1.0
C      1  0.5119270000000  0.5659800000000  0.5504120000000 1.0
C      1  0.5638610000000  0.5806750000000  0.4900080000000 1.0
C      1  0.4920190000000  0.5828280000000  0.4441860000000 1.0
C      1  0.4897320000000  0.4929520000000  0.5662040000000 1.0
C      1  0.4306270000000  0.4998300000000  0.5011230000000 1.0
C      1  0.5002040000000  0.5045660000000  0.4355610000000 1.0
C      1  0.5701300000000  0.4981970000000  0.4991600000000 1.0
END
