TITL C-2622964-2985-211 -2.06759862300726e-05 125000 -695.865625483934 0 0 130 (C1) n - 1
REM
REM in /nfs/bkarasulu/CARBON/AIRSS/Generating-Clusters/AIREBO/with-SteepDescent/Higher-Symm/SD-CG/HFTN-CG
REM
REM
REM
REM
REM
REM ./C.cell (b20cbc046b6831c77cfcea5457e17084)
REM
REM compiler GCC version 9.2.1 20190827 (Red Hat 9.2.1-1)
REM options -cpp -mtune=generic -march=x86-64 -g -O0 -fpre-include=/usr/include/finclude/math-vector-fortran.h
REM seed -1494469123 1740809056 1294138523 -1532344929 -1635601851 -1249646635 112315585 443208245 -365237323 1956158692 338188653 501666904 1970683177 -874035521 620070393 -30485890 1308226383 -1055369125 -1948886727 -305903398 153675033 -766360016 735317568 1368946844 1766797535 1789175102 -267103765 -1414945065 1372203127 -568339024 -2113150068 1316313976 -601585207
REM
CELL 1.54180   50.00000   50.00000   50.00000   90.00000   90.00000   90.00000
LATT -1
SFAC C  
C      1  0.4508190000000  0.4845000000000  0.4433810000000 1.0
C      1  0.4499230000000  0.5307520000000  0.4425790000000 1.0
C      1  0.4936970000000  0.4768000000000  0.5159340000000 1.0
C      1  0.4879350000000  0.5336780000000  0.5066380000000 1.0
C      1  0.4814750000000  0.5490030000000  0.5363020000000 1.0
C      1  0.4810750000000  0.4587960000000  0.5418990000000 1.0
C      1  0.4858900000000  0.4766650000000  0.4148360000000 1.0
C      1  0.4836570000000  0.5162690000000  0.4105790000000 1.0
C      1  0.4292810000000  0.5539230000000  0.5330250000000 1.0
C      1  0.4320140000000  0.4484120000000  0.5368340000000 1.0
C      1  0.4938910000000  0.4482280000000  0.4974750000000 1.0
C      1  0.4922290000000  0.5654480000000  0.4948770000000 1.0
C      1  0.5531070000000  0.4427700000000  0.4342360000000 1.0
C      1  0.5543520000000  0.5575330000000  0.4342450000000 1.0
C      1  0.5001180000000  0.4518030000000  0.5664560000000 1.0
C      1  0.5015270000000  0.5372200000000  0.5609650000000 1.0
C      1  0.4157760000000  0.4490220000000  0.4670680000000 1.0
C      1  0.4120930000000  0.5470580000000  0.4750490000000 1.0
C      1  0.5933260000000  0.5242730000000  0.4780960000000 1.0
C      1  0.5963380000000  0.4731000000000  0.4795940000000 1.0
C      1  0.4478300000000  0.4468430000000  0.4562360000000 1.0
C      1  0.4303510000000  0.5751600000000  0.4793600000000 1.0
C      1  0.5514730000000  0.4766830000000  0.5835750000000 1.0
C      1  0.5490690000000  0.5136470000000  0.5699300000000 1.0
C      1  0.4622160000000  0.4577520000000  0.4274240000000 1.0
C      1  0.4648400000000  0.5370350000000  0.4175600000000 1.0
C      1  0.4107990000000  0.4726710000000  0.4916490000000 1.0
C      1  0.4001040000000  0.5261360000000  0.4990330000000 1.0
C      1  0.5430840000000  0.4293830000000  0.4579470000000 1.0
C      1  0.5394640000000  0.5730350000000  0.4606500000000 1.0
C      1  0.4591050000000  0.5679480000000  0.5233600000000 1.0
C      1  0.4584850000000  0.4376820000000  0.5274620000000 1.0
C      1  0.5052560000000  0.5589130000000  0.4181740000000 1.0
C      1  0.5032700000000  0.4325030000000  0.4213010000000 1.0
C      1  0.4633310000000  0.5299690000000  0.5519700000000 1.0
C      1  0.4587590000000  0.4765110000000  0.5604820000000 1.0
C      1  0.5512290000000  0.5813650000000  0.5459790000000 1.0
C      1  0.5481730000000  0.4351470000000  0.5536790000000 1.0
C      1  0.5101460000000  0.5347150000000  0.4710810000000 1.0
C      1  0.5142850000000  0.4623680000000  0.4661960000000 1.0
C      1  0.5650830000000  0.4312510000000  0.4829840000000 1.0
C      1  0.5672690000000  0.5690340000000  0.4799670000000 1.0
C      1  0.5584340000000  0.4713650000000  0.4231560000000 1.0
C      1  0.5569540000000  0.5238450000000  0.4261600000000 1.0
C      1  0.4201980000000  0.5289430000000  0.4529790000000 1.0
C      1  0.4198260000000  0.4773350000000  0.4500050000000 1.0
C      1  0.4734400000000  0.5630050000000  0.4596940000000 1.0
C      1  0.4756960000000  0.4304760000000  0.4668070000000 1.0
C      1  0.5570630000000  0.5208250000000  0.5054540000000 1.0
C      1  0.5571380000000  0.4697410000000  0.5173700000000 1.0
C      1  0.5317190000000  0.4566710000000  0.5678480000000 1.0
C      1  0.5344700000000  0.5353680000000  0.5527570000000 1.0
C      1  0.5723930000000  0.5433190000000  0.5226700000000 1.0
C      1  0.5798210000000  0.4473650000000  0.5198590000000 1.0
C      1  0.4358070000000  0.5376290000000  0.5601310000000 1.0
C      1  0.4358080000000  0.4556360000000  0.5643110000000 1.0
C      1  0.4616330000000  0.5734480000000  0.4898770000000 1.0
C      1  0.4663280000000  0.4334570000000  0.4993780000000 1.0
C      1  0.5575600000000  0.4618840000000  0.4846810000000 1.0
C      1  0.5519510000000  0.5390110000000  0.4802770000000 1.0
C      1  0.4230450000000  0.4745140000000  0.5208500000000 1.0
C      1  0.4108300000000  0.5260700000000  0.5256700000000 1.0
C      1  0.4694550000000  0.4686040000000  0.6002290000000 1.0
C      1  0.4670340000000  0.5228070000000  0.5959700000000 1.0
C      1  0.5139950000000  0.5868750000000  0.4792560000000 1.0
C      1  0.5242810000000  0.4080530000000  0.4812300000000 1.0
C      1  0.4828650000000  0.4638500000000  0.4693540000000 1.0
C      1  0.4771170000000  0.5293550000000  0.4629950000000 1.0
C      1  0.5116810000000  0.4590120000000  0.4205430000000 1.0
C      1  0.5183320000000  0.5376560000000  0.4269760000000 1.0
C      1  0.5094780000000  0.4314170000000  0.4629870000000 1.0
C      1  0.5066550000000  0.5645200000000  0.4577430000000 1.0
C      1  0.5238140000000  0.4615700000000  0.5202200000000 1.0
C      1  0.5160540000000  0.5283660000000  0.5250190000000 1.0
C      1  0.5573980000000  0.5538720000000  0.5438860000000 1.0
C      1  0.5750470000000  0.4354080000000  0.5458050000000 1.0
C      1  0.5432340000000  0.5713950000000  0.5014890000000 1.0
C      1  0.5529720000000  0.4159260000000  0.5075080000000 1.0
C      1  0.5146820000000  0.4267670000000  0.5028500000000 1.0
C      1  0.5093310000000  0.5897640000000  0.5113800000000 1.0
C      1  0.4863500000000  0.5422530000000  0.5890510000000 1.0
C      1  0.4874390000000  0.4490250000000  0.5905190000000 1.0
C      1  0.4322550000000  0.5493040000000  0.5013890000000 1.0
C      1  0.4412020000000  0.4620770000000  0.4858850000000 1.0
C      1  0.4780040000000  0.4293320000000  0.4328410000000 1.0
C      1  0.4785660000000  0.5610270000000  0.4267350000000 1.0
C      1  0.4414600000000  0.5218720000000  0.5844340000000 1.0
C      1  0.4411070000000  0.4643340000000  0.5941640000000 1.0
C      1  0.5882500000000  0.5468650000000  0.4945340000000 1.0
C      1  0.5938010000000  0.4474330000000  0.4918130000000 1.0
C      1  0.5256110000000  0.5445080000000  0.4997400000000 1.0
C      1  0.5282120000000  0.4672320000000  0.4903910000000 1.0
C      1  0.4550630000000  0.5305840000000  0.4996240000000 1.0
C      1  0.4619180000000  0.4723850000000  0.5046380000000 1.0
C      1  0.5312820000000  0.4750100000000  0.4432980000000 1.0
C      1  0.5393100000000  0.5338470000000  0.4534610000000 1.0
C      1  0.5358380000000  0.5892950000000  0.5239360000000 1.0
C      1  0.5329430000000  0.4318260000000  0.5282790000000 1.0
C      1  0.5752320000000  0.4919230000000  0.5686100000000 1.0
C      1  0.4487430000000  0.4967640000000  0.5199820000000 1.0
C      1  0.5280820000000  0.5076030000000  0.6204770000000 1.0
C      1  0.5660740000000  0.5018970000000  0.5394030000000 1.0
C      1  0.4345860000000  0.4928150000000  0.5788830000000 1.0
C      1  0.4676980000000  0.5011290000000  0.5431380000000 1.0
C      1  0.4904380000000  0.5057370000000  0.5680020000000 1.0
C      1  0.5510700000000  0.4900430000000  0.4667610000000 1.0
C      1  0.4720030000000  0.4960180000000  0.4673800000000 1.0
C      1  0.4781020000000  0.4952360000000  0.5970180000000 1.0
C      1  0.5411400000000  0.4975250000000  0.5221110000000 1.0
C      1  0.5208790000000  0.5030980000000  0.4754420000000 1.0
C      1  0.4473480000000  0.5011380000000  0.4156970000000 1.0
C      1  0.4083220000000  0.4944940000000  0.5633360000000 1.0
C      1  0.4124280000000  0.5022780000000  0.4817180000000 1.0
C      1  0.5399910000000  0.4979340000000  0.4117770000000 1.0
C      1  0.5712180000000  0.4976940000000  0.4404610000000 1.0
C      1  0.4453140000000  0.5039190000000  0.4869150000000 1.0
C      1  0.5176920000000  0.4876190000000  0.5662700000000 1.0
C      1  0.5314540000000  0.5008180000000  0.5945100000000 1.0
C      1  0.4204770000000  0.5055360000000  0.4282750000000 1.0
C      1  0.5182550000000  0.5055100000000  0.4357870000000 1.0
C      1  0.3984990000000  0.5027680000000  0.4527500000000 1.0
C      1  0.4930380000000  0.5022920000000  0.4933790000000 1.0
C      1  0.5749640000000  0.4974850000000  0.4898340000000 1.0
C      1  0.5986650000000  0.4983480000000  0.4580010000000 1.0
C      1  0.5084650000000  0.4963820000000  0.3985230000000 1.0
C      1  0.4888290000000  0.4988700000000  0.4379690000000 1.0
C      1  0.5130320000000  0.4968420000000  0.5354630000000 1.0
C      1  0.4111620000000  0.5001180000000  0.5370280000000 1.0
C      1  0.5902670000000  0.4987160000000  0.5201880000000 1.0
C      1  0.6034130000000  0.4933200000000  0.5492420000000 1.0
END
