TITL C-2622954-8726-462 -0.00148984689448078 125000 -866.745562714014 0 0 171 (C1) n - 1
REM
REM in /nfs/bkarasulu/CARBON/AIRSS/Generating-Clusters/AIREBO/with-SteepDescent/Higher-Symm/SD-CG/HFTN-CG
REM
REM
REM
REM
REM
REM ./C.cell (b20cbc046b6831c77cfcea5457e17084)
REM
REM compiler GCC version 9.2.1 20190827 (Red Hat 9.2.1-1)
REM options -cpp -mtune=generic -march=x86-64 -g -O0 -fpre-include=/usr/include/finclude/math-vector-fortran.h
REM seed -1262533711 -1216877935 -681628679 -50110470 -1009560604 1777521564 -2079569808 1404941824 1224045587 -1583504417 604685956 406220054 -1718027461 1463820714 1861003629 1497142430 1404223142 -2063250468 -1322196684 728488898 725520907 332495912 -1307202493 2038949704 635899869 -1447745565 -448347331 -242436671 -649475955 -2017080066 -889860086 1440228703 1981146775
REM
CELL 1.54180   50.00000   50.00000   50.00000   90.00000   90.00000   90.00000
LATT -1
SFAC C  
C      1  0.4429650000000  0.4482410000000  0.4905160000000 1.0
C      1  0.4427710000000  0.4493840000000  0.5254940000000 1.0
C      1  0.4368780000000  0.4752270000000  0.5469390000000 1.0
C      1  0.4435440000000  0.5085930000000  0.5479920000000 1.0
C      1  0.4436710000000  0.5359650000000  0.5268340000000 1.0
C      1  0.4507920000000  0.5517140000000  0.4974410000000 1.0
C      1  0.4397720000000  0.5404090000000  0.4691120000000 1.0
C      1  0.4443830000000  0.4953240000000  0.4516590000000 1.0
C      1  0.4509640000000  0.4647900000000  0.4618920000000 1.0
C      1  0.4973630000000  0.3868900000000  0.4872370000000 1.0
C      1  0.4993470000000  0.4105200000000  0.5690970000000 1.0
C      1  0.5057160000000  0.4760360000000  0.6080210000000 1.0
C      1  0.5020220000000  0.5454230000000  0.6054890000000 1.0
C      1  0.4988470000000  0.6020700000000  0.5537480000000 1.0
C      1  0.5031620000000  0.5971770000000  0.4806260000000 1.0
C      1  0.5001410000000  0.5757050000000  0.4122280000000 1.0
C      1  0.5191020000000  0.5098900000000  0.3904060000000 1.0
C      1  0.5055680000000  0.4160730000000  0.4094210000000 1.0
C      1  0.5561060000000  0.4797120000000  0.4086290000000 1.0
C      1  0.5533870000000  0.4252480000000  0.4460960000000 1.0
C      1  0.5445270000000  0.4002920000000  0.5064260000000 1.0
C      1  0.5513180000000  0.4299240000000  0.5631070000000 1.0
C      1  0.5545730000000  0.4871160000000  0.5912240000000 1.0
C      1  0.5567410000000  0.5494830000000  0.5788890000000 1.0
C      1  0.5554620000000  0.5942150000000  0.5300730000000 1.0
C      1  0.5563440000000  0.5882530000000  0.4633650000000 1.0
C      1  0.5575490000000  0.5460880000000  0.4108340000000 1.0
C      1  0.4769920000000  0.4304340000000  0.5529710000000 1.0
C      1  0.4795950000000  0.4776330000000  0.5863100000000 1.0
C      1  0.4924560000000  0.5427940000000  0.5729540000000 1.0
C      1  0.4877610000000  0.5760090000000  0.5344830000000 1.0
C      1  0.4866460000000  0.5761480000000  0.4655960000000 1.0
C      1  0.4900770000000  0.5444690000000  0.4214930000000 1.0
C      1  0.4764830000000  0.4849180000000  0.4009650000000 1.0
C      1  0.4949270000000  0.4455540000000  0.4366280000000 1.0
C      1  0.4714950000000  0.4184900000000  0.5088000000000 1.0
C      1  0.5383300000000  0.4459520000000  0.4878510000000 1.0
C      1  0.5379680000000  0.4422910000000  0.5275520000000 1.0
C      1  0.5399130000000  0.4716770000000  0.5574630000000 1.0
C      1  0.5427650000000  0.5110160000000  0.5518730000000 1.0
C      1  0.5417830000000  0.5481770000000  0.5374770000000 1.0
C      1  0.5400260000000  0.5630220000000  0.4946650000000 1.0
C      1  0.5338410000000  0.5514040000000  0.4541950000000 1.0
C      1  0.5408960000000  0.5040560000000  0.4367730000000 1.0
C      1  0.5301350000000  0.4636080000000  0.4520990000000 1.0
C      1  0.4527680000000  0.5911890000000  0.5466670000000 1.0
C      1  0.4547700000000  0.6027400000000  0.4744560000000 1.0
C      1  0.4599690000000  0.5598380000000  0.4178220000000 1.0
C      1  0.4488100000000  0.4967570000000  0.3870220000000 1.0
C      1  0.4649820000000  0.4288110000000  0.4366740000000 1.0
C      1  0.4554500000000  0.3939540000000  0.4958800000000 1.0
C      1  0.4442510000000  0.4218120000000  0.5561710000000 1.0
C      1  0.4548880000000  0.4734740000000  0.6096410000000 1.0
C      1  0.4524310000000  0.5385830000000  0.5901400000000 1.0
C      1  0.4151670000000  0.4080430000000  0.5028390000000 1.0
C      1  0.4287840000000  0.4354800000000  0.5745690000000 1.0
C      1  0.4211890000000  0.4912510000000  0.5879690000000 1.0
C      1  0.4160220000000  0.5461790000000  0.5685220000000 1.0
C      1  0.4192230000000  0.5777610000000  0.5238450000000 1.0
C      1  0.4219200000000  0.5789360000000  0.4691260000000 1.0
C      1  0.4278550000000  0.5366590000000  0.4261150000000 1.0
C      1  0.4234480000000  0.4772960000000  0.4208880000000 1.0
C      1  0.4203150000000  0.4274720000000  0.4510990000000 1.0
C      1  0.4755480000000  0.4733000000000  0.4399980000000 1.0
C      1  0.4766480000000  0.4461810000000  0.4947070000000 1.0
C      1  0.4752530000000  0.4533610000000  0.5279140000000 1.0
C      1  0.4769110000000  0.4826700000000  0.5366960000000 1.0
C      1  0.4772460000000  0.5125990000000  0.5470380000000 1.0
C      1  0.4757110000000  0.5439740000000  0.5349290000000 1.0
C      1  0.4806460000000  0.5516530000000  0.4858950000000 1.0
C      1  0.4676940000000  0.5255600000000  0.4723800000000 1.0
C      1  0.4766440000000  0.5058900000000  0.4497480000000 1.0
C      1  0.5159050000000  0.4339080000000  0.4575790000000 1.0
C      1  0.4971280000000  0.4173650000000  0.5283310000000 1.0
C      1  0.5039620000000  0.4600310000000  0.5703750000000 1.0
C      1  0.5125340000000  0.5166920000000  0.5816030000000 1.0
C      1  0.5106560000000  0.5641530000000  0.5566670000000 1.0
C      1  0.5082770000000  0.5831100000000  0.5083150000000 1.0
C      1  0.5010270000000  0.5528760000000  0.4515330000000 1.0
C      1  0.5192220000000  0.5289620000000  0.4142160000000 1.0
C      1  0.5046080000000  0.4701510000000  0.4131450000000 1.0
C      1  0.5559220000000  0.5136410000000  0.4110460000000 1.0
C      1  0.5531430000000  0.4552210000000  0.4298720000000 1.0
C      1  0.5506000000000  0.4189570000000  0.4786570000000 1.0
C      1  0.5480610000000  0.4140880000000  0.5345860000000 1.0
C      1  0.5484690000000  0.4555350000000  0.5852930000000 1.0
C      1  0.5556100000000  0.5188960000000  0.5786260000000 1.0
C      1  0.5559230000000  0.5712080000000  0.5527410000000 1.0
C      1  0.5551300000000  0.5897590000000  0.4963650000000 1.0
C      1  0.5566330000000  0.5656310000000  0.4377880000000 1.0
C      1  0.5266980000000  0.5603850000000  0.4122340000000 1.0
C      1  0.5271550000000  0.4832750000000  0.3963680000000 1.0
C      1  0.5252990000000  0.4216760000000  0.4272690000000 1.0
C      1  0.5131530000000  0.3972470000000  0.5067710000000 1.0
C      1  0.5184500000000  0.4336700000000  0.5710580000000 1.0
C      1  0.5241170000000  0.4958640000000  0.5982650000000 1.0
C      1  0.5266210000000  0.5576490000000  0.5854530000000 1.0
C      1  0.5225210000000  0.5957140000000  0.5342690000000 1.0
C      1  0.5298310000000  0.6063300000000  0.4673630000000 1.0
C      1  0.5914390000000  0.5168520000000  0.4534250000000 1.0
C      1  0.5892900000000  0.4829570000000  0.4513180000000 1.0
C      1  0.5883720000000  0.4580420000000  0.4744550000000 1.0
C      1  0.5907700000000  0.4490760000000  0.5074950000000 1.0
C      1  0.5946600000000  0.4662980000000  0.5370200000000 1.0
C      1  0.5954240000000  0.4998610000000  0.5453480000000 1.0
C      1  0.5942370000000  0.5322170000000  0.5348960000000 1.0
C      1  0.5935130000000  0.5501770000000  0.5058150000000 1.0
C      1  0.5946480000000  0.5450330000000  0.4721870000000 1.0
C      1  0.4793510000000  0.4255590000000  0.4062740000000 1.0
C      1  0.4810070000000  0.3901880000000  0.4653630000000 1.0
C      1  0.4817570000000  0.3908230000000  0.5540060000000 1.0
C      1  0.4885030000000  0.4479570000000  0.6108020000000 1.0
C      1  0.4754030000000  0.5261630000000  0.6046150000000 1.0
C      1  0.4737260000000  0.5924950000000  0.5679550000000 1.0
C      1  0.4831970000000  0.6132700000000  0.5006320000000 1.0
C      1  0.4818140000000  0.5938830000000  0.4217750000000 1.0
C      1  0.4922800000000  0.5172070000000  0.3838190000000 1.0
C      1  0.4035740000000  0.4772570000000  0.4708730000000 1.0
C      1  0.4115240000000  0.4598410000000  0.4910710000000 1.0
C      1  0.3996710000000  0.4621070000000  0.5163220000000 1.0
C      1  0.4079410000000  0.4803710000000  0.5357700000000 1.0
C      1  0.4001480000000  0.5071230000000  0.5350650000000 1.0
C      1  0.4107420000000  0.5292220000000  0.5215200000000 1.0
C      1  0.4008350000000  0.5342730000000  0.4957900000000 1.0
C      1  0.4152110000000  0.5253150000000  0.4737490000000 1.0
C      1  0.4176240000000  0.5002330000000  0.4645440000000 1.0
C      1  0.5094270000000  0.5403110000000  0.5324460000000 1.0
C      1  0.5103290000000  0.5501250000000  0.5003240000000 1.0
C      1  0.5150820000000  0.5306200000000  0.4728740000000 1.0
C      1  0.5092750000000  0.5146450000000  0.4434190000000 1.0
C      1  0.5082050000000  0.4821560000000  0.4434540000000 1.0
C      1  0.5069700000000  0.4490060000000  0.4867410000000 1.0
C      1  0.5082200000000  0.4486700000000  0.5210150000000 1.0
C      1  0.5097530000000  0.4759110000000  0.5423400000000 1.0
C      1  0.5111110000000  0.5100260000000  0.5487290000000 1.0
C      1  0.4632680000000  0.5866860000000  0.4478430000000 1.0
C      1  0.4726630000000  0.5169900000000  0.4115900000000 1.0
C      1  0.4675460000000  0.4570770000000  0.4111670000000 1.0
C      1  0.4619780000000  0.4076880000000  0.4571010000000 1.0
C      1  0.4624570000000  0.3960070000000  0.5322400000000 1.0
C      1  0.4690330000000  0.4455510000000  0.5823880000000 1.0
C      1  0.4742130000000  0.5067270000000  0.5801580000000 1.0
C      1  0.4633570000000  0.5601390000000  0.5693420000000 1.0
C      1  0.4646010000000  0.5946320000000  0.5179410000000 1.0
C      1  0.5558340000000  0.4777500000000  0.4626590000000 1.0
C      1  0.5599800000000  0.4671490000000  0.4901300000000 1.0
C      1  0.5601260000000  0.4582430000000  0.5190280000000 1.0
C      1  0.5629380000000  0.4774420000000  0.5408550000000 1.0
C      1  0.5647630000000  0.5058280000000  0.5319190000000 1.0
C      1  0.5613970000000  0.5333700000000  0.5220250000000 1.0
C      1  0.5621760000000  0.5432040000000  0.4946150000000 1.0
C      1  0.5597550000000  0.5374030000000  0.4657790000000 1.0
C      1  0.5599500000000  0.5081100000000  0.4601700000000 1.0
C      1  0.5865850000000  0.4754930000000  0.4225860000000 1.0
C      1  0.5831580000000  0.4335430000000  0.4586660000000 1.0
C      1  0.5729770000000  0.4202600000000  0.5040520000000 1.0
C      1  0.5807370000000  0.4464030000000  0.5585860000000 1.0
C      1  0.5826300000000  0.4989480000000  0.5760860000000 1.0
C      1  0.5839200000000  0.5527590000000  0.5587210000000 1.0
C      1  0.5820120000000  0.5800370000000  0.5135700000000 1.0
C      1  0.5842790000000  0.5708560000000  0.4562720000000 1.0
C      1  0.5843090000000  0.5350580000000  0.4287350000000 1.0
C      1  0.4372780000000  0.4169060000000  0.4785740000000 1.0
C      1  0.4356230000000  0.4160540000000  0.5261680000000 1.0
C      1  0.4416330000000  0.4654750000000  0.5793590000000 1.0
C      1  0.4318360000000  0.5187140000000  0.5763530000000 1.0
C      1  0.4366120000000  0.5615190000000  0.5481440000000 1.0
C      1  0.4400300000000  0.5827320000000  0.4976710000000 1.0
C      1  0.4391130000000  0.5629780000000  0.4444970000000 1.0
C      1  0.4414340000000  0.5061400000000  0.4195580000000 1.0
C      1  0.4384620000000  0.4500270000000  0.4347210000000 1.0
END
