TITL C-2622958-629-436 -0.00290618816766318 125000 -877.248415223653 0 0 170 (C1) n - 1
REM
REM in /nfs/bkarasulu/CARBON/AIRSS/Generating-Clusters/AIREBO/with-SteepDescent/Higher-Symm/SD-CG/HFTN-CG
REM
REM
REM
REM
REM
REM ./C.cell (b20cbc046b6831c77cfcea5457e17084)
REM
REM compiler GCC version 9.2.1 20190827 (Red Hat 9.2.1-1)
REM options -cpp -mtune=generic -march=x86-64 -g -O0 -fpre-include=/usr/include/finclude/math-vector-fortran.h
REM seed -463777225 1588675469 -490539993 -1422248429 -1273855637 1930568921 553625030 536951612 663921905 1042204255 -174076340 -693388470 1370873218 923257769 1638332077 -1798247265 -600047624 1038253062 -312077724 -606975765 159515531 -1776445996 -454740447 894050645 2039198962 -1214509072 -235459932 1288817617 457815256 -107700313 1663164026 -2094437855 2048724424
REM
CELL 1.54180   50.00000   50.00000   50.00000   90.00000   90.00000   90.00000
LATT -1
SFAC C  
C      1  0.3957600000000  0.4614410000000  0.4819150000000 1.0
C      1  0.4910420000000  0.3977720000000  0.4773160000000 1.0
C      1  0.6023190000000  0.4580800000000  0.4733160000000 1.0
C      1  0.5539020000000  0.5891240000000  0.4792070000000 1.0
C      1  0.4342200000000  0.5843070000000  0.4803990000000 1.0
C      1  0.4997330000000  0.5387070000000  0.5180260000000 1.0
C      1  0.4639850000000  0.4995980000000  0.5200650000000 1.0
C      1  0.4867780000000  0.4764220000000  0.5174490000000 1.0
C      1  0.5387220000000  0.4741490000000  0.5196980000000 1.0
C      1  0.5338470000000  0.5031280000000  0.5214690000000 1.0
C      1  0.4611530000000  0.4431980000000  0.4230380000000 1.0
C      1  0.5427360000000  0.4386580000000  0.4229340000000 1.0
C      1  0.5750500000000  0.5162420000000  0.4217290000000 1.0
C      1  0.4743960000000  0.5781150000000  0.4154910000000 1.0
C      1  0.4275500000000  0.5170740000000  0.4266170000000 1.0
C      1  0.5735920000000  0.4829920000000  0.4282580000000 1.0
C      1  0.5413560000000  0.5569740000000  0.4303710000000 1.0
C      1  0.4429960000000  0.5468290000000  0.4317930000000 1.0
C      1  0.4397350000000  0.4681930000000  0.4316690000000 1.0
C      1  0.5103400000000  0.4324180000000  0.4312800000000 1.0
C      1  0.5672620000000  0.5346240000000  0.5763920000000 1.0
C      1  0.4843340000000  0.5817460000000  0.5729410000000 1.0
C      1  0.4157640000000  0.5154340000000  0.5671850000000 1.0
C      1  0.4775270000000  0.4351740000000  0.5712550000000 1.0
C      1  0.5634340000000  0.4348560000000  0.5749170000000 1.0
C      1  0.4783360000000  0.4626530000000  0.4022270000000 1.0
C      1  0.5404330000000  0.4691970000000  0.4081520000000 1.0
C      1  0.5456560000000  0.5248890000000  0.4069830000000 1.0
C      1  0.4945560000000  0.5536820000000  0.4078300000000 1.0
C      1  0.4490230000000  0.5195820000000  0.4033920000000 1.0
C      1  0.5631160000000  0.4717600000000  0.5508120000000 1.0
C      1  0.5263370000000  0.5437760000000  0.5385940000000 1.0
C      1  0.4602310000000  0.5450400000000  0.5287170000000 1.0
C      1  0.4355090000000  0.4832210000000  0.5515180000000 1.0
C      1  0.5045180000000  0.4527840000000  0.5448320000000 1.0
C      1  0.4651980000000  0.5406270000000  0.3966740000000 1.0
C      1  0.4640640000000  0.4927560000000  0.4039930000000 1.0
C      1  0.5113190000000  0.4693820000000  0.3991760000000 1.0
C      1  0.5542430000000  0.4945390000000  0.3952400000000 1.0
C      1  0.5266010000000  0.5528260000000  0.4034480000000 1.0
C      1  0.4635240000000  0.5985800000000  0.5254310000000 1.0
C      1  0.4018230000000  0.4930920000000  0.5163460000000 1.0
C      1  0.4814640000000  0.4110610000000  0.5189440000000 1.0
C      1  0.5829130000000  0.4354550000000  0.5168730000000 1.0
C      1  0.5712300000000  0.5600960000000  0.5210260000000 1.0
C      1  0.4560510000000  0.5722810000000  0.4350030000000 1.0
C      1  0.4222950000000  0.4901180000000  0.4392850000000 1.0
C      1  0.4808930000000  0.4274160000000  0.4383140000000 1.0
C      1  0.5709110000000  0.4535500000000  0.4348260000000 1.0
C      1  0.5677190000000  0.5442010000000  0.4388970000000 1.0
C      1  0.5187570000000  0.5753060000000  0.5033370000000 1.0
C      1  0.4379220000000  0.5420240000000  0.5013610000000 1.0
C      1  0.4385420000000  0.4518500000000  0.5098560000000 1.0
C      1  0.5382100000000  0.4249580000000  0.5091920000000 1.0
C      1  0.5788450000000  0.5065080000000  0.4991990000000 1.0
C      1  0.4536750000000  0.4084660000000  0.4992300000000 1.0
C      1  0.5741340000000  0.4103770000000  0.4976170000000 1.0
C      1  0.5966750000000  0.5463750000000  0.5053120000000 1.0
C      1  0.4837970000000  0.6063480000000  0.5020570000000 1.0
C      1  0.3916020000000  0.5208920000000  0.5013960000000 1.0
C      1  0.5163770000000  0.5386190000000  0.4787530000000 1.0
C      1  0.4745610000000  0.5180670000000  0.4788330000000 1.0
C      1  0.4599020000000  0.4709430000000  0.4769100000000 1.0
C      1  0.5130480000000  0.4582030000000  0.4784760000000 1.0
C      1  0.5395990000000  0.4964370000000  0.4788400000000 1.0
C      1  0.5585950000000  0.4380140000000  0.4852860000000 1.0
C      1  0.5578850000000  0.5251340000000  0.4799530000000 1.0
C      1  0.4908680000000  0.5783490000000  0.4840950000000 1.0
C      1  0.4218720000000  0.5158340000000  0.4867300000000 1.0
C      1  0.4613710000000  0.4395720000000  0.4878290000000 1.0
C      1  0.4656400000000  0.4727390000000  0.4494980000000 1.0
C      1  0.5140930000000  0.4587040000000  0.4493780000000 1.0
C      1  0.5553490000000  0.4977620000000  0.4510620000000 1.0
C      1  0.5210610000000  0.5442320000000  0.4509240000000 1.0
C      1  0.4655450000000  0.5280510000000  0.4489710000000 1.0
C      1  0.4996840000000  0.5819960000000  0.5306770000000 1.0
C      1  0.4208110000000  0.5297560000000  0.5270100000000 1.0
C      1  0.4534390000000  0.4438770000000  0.5385450000000 1.0
C      1  0.5440620000000  0.4195010000000  0.5410590000000 1.0
C      1  0.5799250000000  0.5124860000000  0.5326540000000 1.0
C      1  0.5023030000000  0.3866780000000  0.5076480000000 1.0
C      1  0.6039170000000  0.4586140000000  0.5040080000000 1.0
C      1  0.5605590000000  0.5912260000000  0.5124320000000 1.0
C      1  0.4334450000000  0.5931410000000  0.5104910000000 1.0
C      1  0.3955570000000  0.4608280000000  0.5159120000000 1.0
C      1  0.4445490000000  0.5726370000000  0.5349550000000 1.0
C      1  0.4119130000000  0.4638440000000  0.5454050000000 1.0
C      1  0.5022200000000  0.4249300000000  0.5415610000000 1.0
C      1  0.5909910000000  0.4616430000000  0.5354260000000 1.0
C      1  0.5439760000000  0.5728330000000  0.5368830000000 1.0
C      1  0.5359130000000  0.5179090000000  0.4361480000000 1.0
C      1  0.4937090000000  0.5388820000000  0.4356320000000 1.0
C      1  0.4626800000000  0.5004920000000  0.4355720000000 1.0
C      1  0.4904170000000  0.4680950000000  0.4335420000000 1.0
C      1  0.5365870000000  0.4739700000000  0.4394410000000 1.0
C      1  0.5935170000000  0.4854900000000  0.5594320000000 1.0
C      1  0.5347270000000  0.5860660000000  0.5627200000000 1.0
C      1  0.4236450000000  0.5663530000000  0.5561810000000 1.0
C      1  0.4263640000000  0.4480950000000  0.5675010000000 1.0
C      1  0.5111130000000  0.4062950000000  0.5630030000000 1.0
C      1  0.5796030000000  0.4460710000000  0.4623380000000 1.0
C      1  0.5549720000000  0.5569580000000  0.4677820000000 1.0
C      1  0.4629580000000  0.5806870000000  0.4653660000000 1.0
C      1  0.4131330000000  0.4873060000000  0.4696740000000 1.0
C      1  0.4760310000000  0.4188890000000  0.4651550000000 1.0
C      1  0.5853380000000  0.4999930000000  0.4669540000000 1.0
C      1  0.5445730000000  0.5568420000000  0.5001570000000 1.0
C      1  0.4511240000000  0.5496870000000  0.4708950000000 1.0
C      1  0.4272800000000  0.4782850000000  0.4992550000000 1.0
C      1  0.5062520000000  0.4259190000000  0.5010030000000 1.0
C      1  0.5343330000000  0.4615280000000  0.5490910000000 1.0
C      1  0.5342060000000  0.5133590000000  0.5511600000000 1.0
C      1  0.4877120000000  0.5393310000000  0.5479680000000 1.0
C      1  0.4482970000000  0.5054000000000  0.5422970000000 1.0
C      1  0.4838430000000  0.4767210000000  0.5509050000000 1.0
C      1  0.4571880000000  0.5428100000000  0.5812850000000 1.0
C      1  0.4448230000000  0.4808440000000  0.5923780000000 1.0
C      1  0.5037180000000  0.4466540000000  0.6118270000000 1.0
C      1  0.5664900000000  0.4838880000000  0.5895730000000 1.0
C      1  0.5188230000000  0.5484380000000  0.5866190000000 1.0
C      1  0.5650100000000  0.5038610000000  0.5620830000000 1.0
C      1  0.5085480000000  0.5647410000000  0.5586040000000 1.0
C      1  0.4394970000000  0.5360490000000  0.5541310000000 1.0
C      1  0.4574800000000  0.4622840000000  0.5668460000000 1.0
C      1  0.5305940000000  0.4336790000000  0.5682380000000 1.0
C      1  0.5723170000000  0.5401540000000  0.5472540000000 1.0
C      1  0.4796620000000  0.6037320000000  0.5528160000000 1.0
C      1  0.3942090000000  0.5155080000000  0.5408880000000 1.0
C      1  0.4649540000000  0.4130950000000  0.5486220000000 1.0
C      1  0.5769370000000  0.4209010000000  0.5470180000000 1.0
C      1  0.4249650000000  0.4992710000000  0.5866900000000 1.0
C      1  0.5018270000000  0.4387770000000  0.5856350000000 1.0
C      1  0.5704590000000  0.4567200000000  0.5892000000000 1.0
C      1  0.5455110000000  0.5439170000000  0.5910650000000 1.0
C      1  0.4685610000000  0.5665210000000  0.5885740000000 1.0
C      1  0.4518340000000  0.5003750000000  0.4911770000000 1.0
C      1  0.4902100000000  0.4535280000000  0.4992240000000 1.0
C      1  0.5401820000000  0.4655190000000  0.4908290000000 1.0
C      1  0.5352170000000  0.5273430000000  0.5035490000000 1.0
C      1  0.4883870000000  0.5466180000000  0.4908160000000 1.0
C      1  0.5013740000000  0.6160010000000  0.5297070000000 1.0
C      1  0.3908020000000  0.5454360000000  0.5238990000000 1.0
C      1  0.4402200000000  0.4155590000000  0.5264630000000 1.0
C      1  0.5620260000000  0.3966640000000  0.5240760000000 1.0
C      1  0.6088960000000  0.5229680000000  0.5192490000000 1.0
C      1  0.4145350000000  0.5653370000000  0.5098720000000 1.0
C      1  0.4127590000000  0.4320190000000  0.5215630000000 1.0
C      1  0.5294020000000  0.3926550000000  0.5151330000000 1.0
C      1  0.6047440000000  0.4901280000000  0.5112090000000 1.0
C      1  0.5291640000000  0.6035960000000  0.5166230000000 1.0
C      1  0.5483210000000  0.4073220000000  0.4748540000000 1.0
C      1  0.5885920000000  0.5397770000000  0.4796130000000 1.0
C      1  0.5086650000000  0.6067540000000  0.4783420000000 1.0
C      1  0.4003580000000  0.5383850000000  0.4731210000000 1.0
C      1  0.4327320000000  0.4247440000000  0.4770280000000 1.0
C      1  0.4091220000000  0.4351350000000  0.4886180000000 1.0
C      1  0.5213780000000  0.4056130000000  0.4782900000000 1.0
C      1  0.6061960000000  0.4835250000000  0.4623280000000 1.0
C      1  0.5340750000000  0.6058540000000  0.4708280000000 1.0
C      1  0.4186420000000  0.5598890000000  0.4704920000000 1.0
C      1  0.5070710000000  0.5067200000000  0.4793310000000 1.0
C      1  0.4974230000000  0.5062270000000  0.6072510000000 1.0
C      1  0.4999220000000  0.5069970000000  0.5469860000000 1.0
C      1  0.5018160000000  0.5058810000000  0.3827870000000 1.0
C      1  0.4965000000000  0.4958300000000  0.4148390000000 1.0
C      1  0.5048880000000  0.5082490000000  0.4453880000000 1.0
C      1  0.4976250000000  0.5077390000000  0.5809060000000 1.0
C      1  0.5027910000000  0.5061000000000  0.5131030000000 1.0
C      1  0.5042680000000  0.5152920000000  0.3591600000000 1.0
C      1  0.4979460000000  0.5071710000000  0.6334370000000 1.0
END
