TITL C-2622964-2985-704 0.00431744040343344 125000 -722.46677796563 0 0 127 (C1) n - 1
REM
REM in /nfs/bkarasulu/CARBON/AIRSS/Generating-Clusters/AIREBO/with-SteepDescent/Higher-Symm/SD-CG/HFTN-CG
REM
REM
REM
REM
REM
REM ./C.cell (b20cbc046b6831c77cfcea5457e17084)
REM
REM compiler GCC version 9.2.1 20190827 (Red Hat 9.2.1-1)
REM options -cpp -mtune=generic -march=x86-64 -g -O0 -fpre-include=/usr/include/finclude/math-vector-fortran.h
REM seed 349133766 -1664729645 1020276939 2135553319 -840313139 -1147186962 -1685335006 539997540 1149955915 -945223758 -441069798 -211732213 -1810156939 1751496217 637896735 2120309524 -2074710750 -2084194208 -387928890 -180237762 1015146049 812336313 1430145259 -923031905 1107933166 1980066278 603990517 218531870 1238796302 1534900667 347251690 1415852173 -1173641188
REM
CELL 1.54180   50.00000   50.00000   50.00000   90.00000   90.00000   90.00000
LATT -1
SFAC C  
C      1  0.4816530000000  0.5370020000000  0.4936650000000 1.0
C      1  0.4736650000000  0.5270720000000  0.5225430000000 1.0
C      1  0.5008780000000  0.5251370000000  0.5417130000000 1.0
C      1  0.5248700000000  0.5256670000000  0.5231680000000 1.0
C      1  0.5293020000000  0.5237540000000  0.4762300000000 1.0
C      1  0.4982010000000  0.5317780000000  0.4680010000000 1.0
C      1  0.4792900000000  0.4665710000000  0.4857940000000 1.0
C      1  0.4769850000000  0.4772620000000  0.5148050000000 1.0
C      1  0.5025850000000  0.4748060000000  0.5371460000000 1.0
C      1  0.5227220000000  0.4767440000000  0.5138630000000 1.0
C      1  0.5281930000000  0.4805070000000  0.4817600000000 1.0
C      1  0.5065890000000  0.4705650000000  0.4659240000000 1.0
C      1  0.5373160000000  0.4097810000000  0.4512520000000 1.0
C      1  0.4688700000000  0.4144810000000  0.4476880000000 1.0
C      1  0.4397730000000  0.4290960000000  0.5152200000000 1.0
C      1  0.4653070000000  0.4193290000000  0.5599440000000 1.0
C      1  0.5278350000000  0.4120330000000  0.5370170000000 1.0
C      1  0.5623530000000  0.4199300000000  0.4992620000000 1.0
C      1  0.5333640000000  0.5811090000000  0.4377910000000 1.0
C      1  0.4761370000000  0.5867270000000  0.4426920000000 1.0
C      1  0.4379170000000  0.5735420000000  0.5127490000000 1.0
C      1  0.4696020000000  0.5848390000000  0.5642530000000 1.0
C      1  0.5252580000000  0.5907720000000  0.5542040000000 1.0
C      1  0.5441270000000  0.5796380000000  0.4912000000000 1.0
C      1  0.4858990000000  0.4069310000000  0.4274610000000 1.0
C      1  0.4337900000000  0.4225780000000  0.4825410000000 1.0
C      1  0.4379690000000  0.4258660000000  0.5624550000000 1.0
C      1  0.5050660000000  0.4160330000000  0.5604120000000 1.0
C      1  0.5727850000000  0.4168150000000  0.5250140000000 1.0
C      1  0.5641100000000  0.4127180000000  0.4574710000000 1.0
C      1  0.4903550000000  0.5879320000000  0.4196990000000 1.0
C      1  0.4371500000000  0.5777210000000  0.4833800000000 1.0
C      1  0.4430850000000  0.5798770000000  0.5597670000000 1.0
C      1  0.5071710000000  0.5838800000000  0.5807090000000 1.0
C      1  0.5622000000000  0.5750990000000  0.5206950000000 1.0
C      1  0.5581030000000  0.5793550000000  0.4537400000000 1.0
C      1  0.5432100000000  0.4622960000000  0.5683090000000 1.0
C      1  0.5726290000000  0.4612780000000  0.4995110000000 1.0
C      1  0.5413730000000  0.4555500000000  0.4282440000000 1.0
C      1  0.4615570000000  0.4619900000000  0.4329020000000 1.0
C      1  0.4317000000000  0.4743050000000  0.4935610000000 1.0
C      1  0.4651710000000  0.4654640000000  0.5683970000000 1.0
C      1  0.5362310000000  0.5345590000000  0.5700440000000 1.0
C      1  0.5674990000000  0.5375450000000  0.5039690000000 1.0
C      1  0.5366420000000  0.5374540000000  0.4273910000000 1.0
C      1  0.4619420000000  0.5336230000000  0.4286070000000 1.0
C      1  0.4321250000000  0.5258340000000  0.4941850000000 1.0
C      1  0.4645920000000  0.5312060000000  0.5750570000000 1.0
C      1  0.5189070000000  0.4448020000000  0.4511850000000 1.0
C      1  0.4803490000000  0.4540960000000  0.4540290000000 1.0
C      1  0.4496020000000  0.4526080000000  0.4846050000000 1.0
C      1  0.4665470000000  0.4578410000000  0.5375380000000 1.0
C      1  0.5258500000000  0.4509830000000  0.5439820000000 1.0
C      1  0.5425010000000  0.4539870000000  0.5079090000000 1.0
C      1  0.5258730000000  0.5453250000000  0.4539710000000 1.0
C      1  0.4745310000000  0.5487180000000  0.4541310000000 1.0
C      1  0.4507170000000  0.5467620000000  0.4860890000000 1.0
C      1  0.4695480000000  0.5487760000000  0.5474580000000 1.0
C      1  0.5159880000000  0.5524760000000  0.5512450000000 1.0
C      1  0.5400310000000  0.5495670000000  0.5171140000000 1.0
C      1  0.5714000000000  0.4531630000000  0.5640010000000 1.0
C      1  0.5586270000000  0.4853180000000  0.4816820000000 1.0
C      1  0.5177470000000  0.4478180000000  0.4113440000000 1.0
C      1  0.4364380000000  0.4505080000000  0.4399300000000 1.0
C      1  0.4443000000000  0.4855190000000  0.5192970000000 1.0
C      1  0.4925550000000  0.4834980000000  0.5646320000000 1.0
C      1  0.5640140000000  0.5435280000000  0.5651830000000 1.0
C      1  0.5594350000000  0.5146820000000  0.4813450000000 1.0
C      1  0.5184960000000  0.5469910000000  0.4073990000000 1.0
C      1  0.4375450000000  0.5465290000000  0.4395950000000 1.0
C      1  0.4436640000000  0.5157760000000  0.5203400000000 1.0
C      1  0.4914660000000  0.5126330000000  0.5675430000000 1.0
C      1  0.4952040000000  0.5279140000000  0.5976880000000 1.0
C      1  0.5829120000000  0.5278860000000  0.5538840000000 1.0
C      1  0.5770290000000  0.5301610000000  0.4578650000000 1.0
C      1  0.5007000000000  0.5280500000000  0.3984570000000 1.0
C      1  0.4170700000000  0.5308490000000  0.4472400000000 1.0
C      1  0.4284590000000  0.5303090000000  0.5443030000000 1.0
C      1  0.4963240000000  0.4655410000000  0.5932580000000 1.0
C      1  0.5890700000000  0.4698370000000  0.5518760000000 1.0
C      1  0.5784940000000  0.4693900000000  0.4608770000000 1.0
C      1  0.5012170000000  0.4671290000000  0.4038050000000 1.0
C      1  0.4160500000000  0.4678150000000  0.4468190000000 1.0
C      1  0.4295400000000  0.4717750000000  0.5432610000000 1.0
C      1  0.5303910000000  0.5120330000000  0.5836320000000 1.0
C      1  0.5884980000000  0.5291180000000  0.5225190000000 1.0
C      1  0.5619750000000  0.5263690000000  0.4287410000000 1.0
C      1  0.4746850000000  0.5176190000000  0.4124030000000 1.0
C      1  0.4129370000000  0.5193640000000  0.4760180000000 1.0
C      1  0.4387700000000  0.5174780000000  0.5740540000000 1.0
C      1  0.5276610000000  0.4780550000000  0.5860660000000 1.0
C      1  0.5907290000000  0.4716230000000  0.5200100000000 1.0
C      1  0.5638520000000  0.4696250000000  0.4318490000000 1.0
C      1  0.4722450000000  0.4757730000000  0.4123420000000 1.0
C      1  0.4116250000000  0.4795410000000  0.4757900000000 1.0
C      1  0.4399190000000  0.4833080000000  0.5734420000000 1.0
C      1  0.5172880000000  0.4201030000000  0.4751540000000 1.0
C      1  0.4869520000000  0.4255680000000  0.4706630000000 1.0
C      1  0.4707650000000  0.4287080000000  0.4950640000000 1.0
C      1  0.4710110000000  0.4270140000000  0.5285400000000 1.0
C      1  0.5036420000000  0.4337950000000  0.5247970000000 1.0
C      1  0.5289420000000  0.4229590000000  0.5048170000000 1.0
C      1  0.5212720000000  0.5740680000000  0.4679880000000 1.0
C      1  0.4908310000000  0.5780280000000  0.4694550000000 1.0
C      1  0.4749910000000  0.5687570000000  0.4948080000000 1.0
C      1  0.4677960000000  0.5735250000000  0.5260650000000 1.0
C      1  0.4955990000000  0.5784970000000  0.5432440000000 1.0
C      1  0.5288950000000  0.5818940000000  0.5215190000000 1.0
C      1  0.5539810000000  0.4313120000000  0.5463720000000 1.0
C      1  0.5744250000000  0.4387830000000  0.4741460000000 1.0
C      1  0.5144010000000  0.4200280000000  0.4283100000000 1.0
C      1  0.4418520000000  0.4248360000000  0.4529080000000 1.0
C      1  0.4287950000000  0.4413930000000  0.5409920000000 1.0
C      1  0.4857400000000  0.4390300000000  0.5763880000000 1.0
C      1  0.5497650000000  0.5672140000000  0.5513800000000 1.0
C      1  0.5600680000000  0.5539690000000  0.4755550000000 1.0
C      1  0.5156190000000  0.5750430000000  0.4163470000000 1.0
C      1  0.4498220000000  0.5720720000000  0.4552020000000 1.0
C      1  0.4316350000000  0.5623590000000  0.5401620000000 1.0
C      1  0.4854410000000  0.5580350000000  0.5763250000000 1.0
C      1  0.4055220000000  0.4996710000000  0.4490650000000 1.0
C      1  0.5057080000000  0.4971570000000  0.6015360000000 1.0
C      1  0.4909660000000  0.4961300000000  0.3919250000000 1.0
C      1  0.5871670000000  0.4995460000000  0.5371900000000 1.0
C      1  0.5690680000000  0.4989730000000  0.4456730000000 1.0
C      1  0.4159360000000  0.5004280000000  0.5555080000000 1.0
C      1  0.5249210000000  0.5063380000000  0.5021660000000 1.0
END
