TITL C-2622956-4641-237 -0.00041144252425483 125000 -773.135604219263 0 0 139 (C1) n - 1
REM
REM in /nfs/bkarasulu/CARBON/AIRSS/Generating-Clusters/AIREBO/with-SteepDescent/Higher-Symm/SD-CG/HFTN-CG
REM
REM
REM
REM
REM
REM ./C.cell (b20cbc046b6831c77cfcea5457e17084)
REM
REM compiler GCC version 9.2.1 20190827 (Red Hat 9.2.1-1)
REM options -cpp -mtune=generic -march=x86-64 -g -O0 -fpre-include=/usr/include/finclude/math-vector-fortran.h
REM seed 408584136 1679281089 1836243330 1172939227 -482913879 -1658947413 -853613863 1152197676 -1026874362 -1148709795 1136958631 -407454258 1426454673 -241138942 -499483884 1196385765 1192082000 -1036615000 1898686114 279815900 -1593181323 -1716830622 224988630 990339075 -393321730 423827850 1724179507 1101825662 -384456156 -426340977 -1877680396 -2063009864 -904441651
REM
CELL 1.54180   50.00000   50.00000   50.00000   90.00000   90.00000   90.00000
LATT -1
SFAC C  
C      1  0.5896150000000  0.4859720000000  0.4704940000000 1.0
C      1  0.4843600000000  0.4812590000000  0.5905420000000 1.0
C      1  0.4374080000000  0.4861550000000  0.4463060000000 1.0
C      1  0.4586090000000  0.4975060000000  0.4642690000000 1.0
C      1  0.5643540000000  0.5020770000000  0.4811500000000 1.0
C      1  0.4828890000000  0.5001620000000  0.5651380000000 1.0
C      1  0.4966770000000  0.4440450000000  0.4316280000000 1.0
C      1  0.5581950000000  0.4412810000000  0.5325910000000 1.0
C      1  0.4376830000000  0.4447480000000  0.5412510000000 1.0
C      1  0.5174730000000  0.5696180000000  0.5589920000000 1.0
C      1  0.4373840000000  0.5713450000000  0.4862670000000 1.0
C      1  0.5426890000000  0.5704470000000  0.4498550000000 1.0
C      1  0.5212230000000  0.5825160000000  0.4884850000000 1.0
C      1  0.4942280000000  0.5824300000000  0.5182000000000 1.0
C      1  0.4887730000000  0.5859760000000  0.4885070000000 1.0
C      1  0.5319090000000  0.4351650000000  0.5372730000000 1.0
C      1  0.4527130000000  0.4330710000000  0.5156770000000 1.0
C      1  0.5191390000000  0.4328930000000  0.4501890000000 1.0
C      1  0.5658080000000  0.4935470000000  0.5772260000000 1.0
C      1  0.4004730000000  0.4990520000000  0.5047130000000 1.0
C      1  0.5509710000000  0.4938510000000  0.4112370000000 1.0
C      1  0.5083870000000  0.4858890000000  0.4533890000000 1.0
C      1  0.5365460000000  0.4849560000000  0.5274530000000 1.0
C      1  0.4535240000000  0.4876590000000  0.5231900000000 1.0
C      1  0.4559720000000  0.5448910000000  0.4459950000000 1.0
C      1  0.5627800000000  0.5415040000000  0.4875320000000 1.0
C      1  0.4740300000000  0.5412850000000  0.5657490000000 1.0
C      1  0.5811560000000  0.4628110000000  0.4514500000000 1.0
C      1  0.5040150000000  0.4567860000000  0.5861440000000 1.0
C      1  0.4248180000000  0.4622380000000  0.4622280000000 1.0
C      1  0.3813260000000  0.4902600000000  0.5218670000000 1.0
C      1  0.5446470000000  0.4837960000000  0.3868250000000 1.0
C      1  0.5901340000000  0.4913420000000  0.5842290000000 1.0
C      1  0.5610070000000  0.5486770000000  0.5658010000000 1.0
C      1  0.4036030000000  0.5521330000000  0.5161580000000 1.0
C      1  0.5266990000000  0.5471910000000  0.4112380000000 1.0
C      1  0.4628590000000  0.4285350000000  0.4660290000000 1.0
C      1  0.5566150000000  0.4259940000000  0.4810650000000 1.0
C      1  0.4838390000000  0.4280940000000  0.5538830000000 1.0
C      1  0.4134550000000  0.4334330000000  0.4935050000000 1.0
C      1  0.5589350000000  0.4348860000000  0.4253480000000 1.0
C      1  0.5021150000000  0.4265640000000  0.6264210000000 1.0
C      1  0.4430900000000  0.5302120000000  0.5569490000000 1.0
C      1  0.4802070000000  0.5343830000000  0.4255170000000 1.0
C      1  0.5709700000000  0.5356510000000  0.5180960000000 1.0
C      1  0.5184200000000  0.5272780000000  0.4340000000000 1.0
C      1  0.5439120000000  0.5298660000000  0.5469000000000 1.0
C      1  0.4333500000000  0.5369020000000  0.5167650000000 1.0
C      1  0.3983990000000  0.5050880000000  0.4773000000000 1.0
C      1  0.5752700000000  0.5047450000000  0.4204660000000 1.0
C      1  0.5328300000000  0.5010510000000  0.5912220000000 1.0
C      1  0.4290310000000  0.5049990000000  0.5113930000000 1.0
C      1  0.5326040000000  0.4976800000000  0.4341630000000 1.0
C      1  0.5383540000000  0.4983420000000  0.5577420000000 1.0
C      1  0.4862800000000  0.4140390000000  0.5814160000000 1.0
C      1  0.4367870000000  0.4153060000000  0.4547420000000 1.0
C      1  0.5806770000000  0.4151330000000  0.4637180000000 1.0
C      1  0.4160550000000  0.5300860000000  0.4709320000000 1.0
C      1  0.5693860000000  0.5315830000000  0.4363270000000 1.0
C      1  0.5192990000000  0.5313030000000  0.5896140000000 1.0
C      1  0.5341620000000  0.3825490000000  0.4899160000000 1.0
C      1  0.4709700000000  0.3807010000000  0.5265970000000 1.0
C      1  0.4928390000000  0.3872420000000  0.4621470000000 1.0
C      1  0.5108310000000  0.4386480000000  0.4825070000000 1.0
C      1  0.5174610000000  0.4251360000000  0.5124930000000 1.0
C      1  0.4864280000000  0.4371850000000  0.5140870000000 1.0
C      1  0.4836370000000  0.5547700000000  0.4760130000000 1.0
C      1  0.5249100000000  0.5498050000000  0.4970020000000 1.0
C      1  0.4826280000000  0.5520730000000  0.5282110000000 1.0
C      1  0.5100910000000  0.5688590000000  0.4594130000000 1.0
C      1  0.5241600000000  0.5681310000000  0.5256700000000 1.0
C      1  0.4566820000000  0.5692710000000  0.5142190000000 1.0
C      1  0.4922280000000  0.5887950000000  0.4402170000000 1.0
C      1  0.5489790000000  0.5877000000000  0.5199030000000 1.0
C      1  0.4500740000000  0.5877590000000  0.5390700000000 1.0
C      1  0.4441350000000  0.4482480000000  0.4864810000000 1.0
C      1  0.5494590000000  0.4473210000000  0.4555560000000 1.0
C      1  0.5094030000000  0.4496830000000  0.5533070000000 1.0
C      1  0.5049940000000  0.4756790000000  0.5317000000000 1.0
C      1  0.4654770000000  0.4734030000000  0.4951990000000 1.0
C      1  0.5323530000000  0.4707630000000  0.4722940000000 1.0
C      1  0.4279250000000  0.5799700000000  0.5522030000000 1.0
C      1  0.4903530000000  0.5800780000000  0.4139330000000 1.0
C      1  0.5728530000000  0.5814200000000  0.5327670000000 1.0
C      1  0.4907230000000  0.4843020000000  0.4051290000000 1.0
C      1  0.5791020000000  0.4729470000000  0.5200920000000 1.0
C      1  0.4190160000000  0.4851450000000  0.5602480000000 1.0
C      1  0.4975040000000  0.4307060000000  0.5999050000000 1.0
C      1  0.4162640000000  0.4313990000000  0.4633040000000 1.0
C      1  0.5840700000000  0.4322420000000  0.4425230000000 1.0
C      1  0.4890880000000  0.5704300000000  0.5630610000000 1.0
C      1  0.4512670000000  0.5730200000000  0.4614270000000 1.0
C      1  0.5573100000000  0.5707550000000  0.4742770000000 1.0
C      1  0.4735620000000  0.4773420000000  0.5445780000000 1.0
C      1  0.4812820000000  0.4759140000000  0.4651820000000 1.0
C      1  0.5528630000000  0.4767520000000  0.4987700000000 1.0
C      1  0.6011920000000  0.5124920000000  0.4697330000000 1.0
C      1  0.4786420000000  0.5064910000000  0.6043130000000 1.0
C      1  0.4275600000000  0.5061610000000  0.4306390000000 1.0
C      1  0.5837430000000  0.5330950000000  0.4650380000000 1.0
C      1  0.4872700000000  0.5295590000000  0.5918550000000 1.0
C      1  0.4284560000000  0.5310380000000  0.4425140000000 1.0
C      1  0.4771510000000  0.5205630000000  0.5389610000000 1.0
C      1  0.4767640000000  0.5251920000000  0.4643340000000 1.0
C      1  0.5387760000000  0.5187500000000  0.4955480000000 1.0
C      1  0.5638640000000  0.4447650000000  0.5022790000000 1.0
C      1  0.4635220000000  0.4510030000000  0.5533820000000 1.0
C      1  0.4758560000000  0.4509640000000  0.4494440000000 1.0
C      1  0.4968010000000  0.5526780000000  0.4111870000000 1.0
C      1  0.5747510000000  0.5542180000000  0.5394750000000 1.0
C      1  0.4213780000000  0.5507450000000  0.5452860000000 1.0
C      1  0.5918220000000  0.4857380000000  0.4306580000000 1.0
C      1  0.5222330000000  0.4773400000000  0.6027610000000 1.0
C      1  0.4004440000000  0.4834050000000  0.4612420000000 1.0
C      1  0.5170780000000  0.4928100000000  0.4914380000000 1.0
C      1  0.4900010000000  0.5032020000000  0.5185010000000 1.0
C      1  0.4881700000000  0.5071120000000  0.4893520000000 1.0
C      1  0.5499800000000  0.5546250000000  0.4280530000000 1.0
C      1  0.5338310000000  0.5549620000000  0.5763400000000 1.0
C      1  0.4138510000000  0.5558880000000  0.4875370000000 1.0
C      1  0.5610990000000  0.5085700000000  0.5267220000000 1.0
C      1  0.4387900000000  0.5027540000000  0.5498860000000 1.0
C      1  0.4937950000000  0.5044530000000  0.4286260000000 1.0
C      1  0.4162440000000  0.4587090000000  0.5520780000000 1.0
C      1  0.4963470000000  0.4574900000000  0.4072620000000 1.0
C      1  0.5799290000000  0.4572600000000  0.5462850000000 1.0
C      1  0.4430560000000  0.5169470000000  0.4839440000000 1.0
C      1  0.5486310000000  0.5160280000000  0.4570570000000 1.0
C      1  0.5095720000000  0.5160240000000  0.5616160000000 1.0
C      1  0.4608050000000  0.5409970000000  0.4970630000000 1.0
C      1  0.5241060000000  0.5383230000000  0.4646740000000 1.0
C      1  0.5127930000000  0.5376420000000  0.5355550000000 1.0
C      1  0.4731880000000  0.5905650000000  0.4618840000000 1.0
C      1  0.5503280000000  0.5934410000000  0.4918790000000 1.0
C      1  0.4779580000000  0.5883210000000  0.5443480000000 1.0
C      1  0.5354010000000  0.4084600000000  0.4925520000000 1.0
C      1  0.4738120000000  0.4099480000000  0.5290280000000 1.0
C      1  0.4920870000000  0.4174260000000  0.4649040000000 1.0
C      1  0.4982800000000  0.4657200000000  0.4998770000000 1.0
END
