TITL C-2622960-5345-108 0.000689601966217876 125000 -763.371871414172 0 0 143 (C1) n - 1
REM
REM in /nfs/bkarasulu/CARBON/AIRSS/Generating-Clusters/AIREBO/with-SteepDescent/Higher-Symm/SD-CG/HFTN-CG
REM
REM
REM
REM
REM
REM ./C.cell (b20cbc046b6831c77cfcea5457e17084)
REM
REM compiler GCC version 9.2.1 20190827 (Red Hat 9.2.1-1)
REM options -cpp -mtune=generic -march=x86-64 -g -O0 -fpre-include=/usr/include/finclude/math-vector-fortran.h
REM seed 1070078212 1414687287 920131597 -1395188825 237357323 -1959357847 1222871442 1953075828 659480688 -2131717630 -1912528295 -1015446235 -226317987 -1025324147 -728362001 -721355282 545483968 1743878437 979843043 755888821 1414122618 1417393026 1012893153 772757063 -1832752434 -353462312 1596369776 1211253291 -1709142359 -440067158 868256861 1655442389 1115550826
REM
CELL 1.54180   50.00000   50.00000   50.00000   90.00000   90.00000   90.00000
LATT -1
SFAC C  
C      1  0.5335390000000  0.4810560000000  0.4025290000000 1.0
C      1  0.4202010000000  0.4878690000000  0.4378630000000 1.0
C      1  0.4283920000000  0.4792640000000  0.5688250000000 1.0
C      1  0.5459870000000  0.4812860000000  0.6064660000000 1.0
C      1  0.6197440000000  0.4861270000000  0.4978050000000 1.0
C      1  0.5354180000000  0.5120270000000  0.4138880000000 1.0
C      1  0.4134700000000  0.5193720000000  0.4436180000000 1.0
C      1  0.4198620000000  0.5104310000000  0.5694390000000 1.0
C      1  0.5447380000000  0.5116940000000  0.5967240000000 1.0
C      1  0.6021660000000  0.5087780000000  0.5034990000000 1.0
C      1  0.5292870000000  0.4409640000000  0.4870690000000 1.0
C      1  0.4960490000000  0.4559110000000  0.4660730000000 1.0
C      1  0.4670480000000  0.4592620000000  0.4951100000000 1.0
C      1  0.4855660000000  0.4506850000000  0.5303210000000 1.0
C      1  0.5235420000000  0.4609360000000  0.5232940000000 1.0
C      1  0.5406490000000  0.5484620000000  0.4875080000000 1.0
C      1  0.5003700000000  0.5463430000000  0.4656620000000 1.0
C      1  0.4481700000000  0.5466010000000  0.4851790000000 1.0
C      1  0.4891120000000  0.5497420000000  0.5266970000000 1.0
C      1  0.5288670000000  0.5468120000000  0.5254780000000 1.0
C      1  0.3883520000000  0.5570110000000  0.4602210000000 1.0
C      1  0.4429940000000  0.5271650000000  0.5719280000000 1.0
C      1  0.5744610000000  0.5679690000000  0.5815060000000 1.0
C      1  0.5847250000000  0.5261290000000  0.4493410000000 1.0
C      1  0.4950990000000  0.5425320000000  0.4062870000000 1.0
C      1  0.4018320000000  0.4654620000000  0.4825770000000 1.0
C      1  0.4473230000000  0.4291310000000  0.5867720000000 1.0
C      1  0.5705430000000  0.4674230000000  0.5678560000000 1.0
C      1  0.5718170000000  0.4438710000000  0.4574030000000 1.0
C      1  0.4726890000000  0.4765100000000  0.4074390000000 1.0
C      1  0.5626290000000  0.4855340000000  0.4789620000000 1.0
C      1  0.5039550000000  0.4875850000000  0.4133120000000 1.0
C      1  0.4176450000000  0.4903500000000  0.4702720000000 1.0
C      1  0.4582150000000  0.4835940000000  0.5618850000000 1.0
C      1  0.5351220000000  0.4847750000000  0.5559690000000 1.0
C      1  0.5828100000000  0.5131800000000  0.4807270000000 1.0
C      1  0.5054370000000  0.5176110000000  0.4229870000000 1.0
C      1  0.4180380000000  0.5222750000000  0.4757170000000 1.0
C      1  0.4665230000000  0.5108930000000  0.5723990000000 1.0
C      1  0.5401670000000  0.5146400000000  0.5649560000000 1.0
C      1  0.5638190000000  0.5131640000000  0.4325540000000 1.0
C      1  0.4407880000000  0.5188980000000  0.4239170000000 1.0
C      1  0.4115780000000  0.5008890000000  0.5404820000000 1.0
C      1  0.5187260000000  0.5177220000000  0.6146030000000 1.0
C      1  0.5924020000000  0.5114900000000  0.5317050000000 1.0
C      1  0.5545050000000  0.4809330000000  0.4270260000000 1.0
C      1  0.4497990000000  0.4867450000000  0.4239110000000 1.0
C      1  0.4096170000000  0.4698250000000  0.5441040000000 1.0
C      1  0.5147380000000  0.4874810000000  0.6063900000000 1.0
C      1  0.5849840000000  0.4854000000000  0.5483840000000 1.0
C      1  0.5034200000000  0.4890470000000  0.4681660000000 1.0
C      1  0.4733800000000  0.4907990000000  0.4840730000000 1.0
C      1  0.4689610000000  0.4784240000000  0.5302770000000 1.0
C      1  0.5175400000000  0.4935310000000  0.5182470000000 1.0
C      1  0.5303510000000  0.4902030000000  0.4889140000000 1.0
C      1  0.4940420000000  0.5174350000000  0.4516020000000 1.0
C      1  0.4478140000000  0.5128340000000  0.4891610000000 1.0
C      1  0.4934700000000  0.5202220000000  0.5357930000000 1.0
C      1  0.5348030000000  0.5176560000000  0.5335610000000 1.0
C      1  0.5442160000000  0.5192200000000  0.4872870000000 1.0
C      1  0.4704250000000  0.5628760000000  0.5519030000000 1.0
C      1  0.5659190000000  0.5633280000000  0.5489000000000 1.0
C      1  0.5723210000000  0.5451320000000  0.4755740000000 1.0
C      1  0.4922900000000  0.5598190000000  0.4354300000000 1.0
C      1  0.4150000000000  0.5556750000000  0.4813150000000 1.0
C      1  0.4823980000000  0.4605580000000  0.5628890000000 1.0
C      1  0.5538910000000  0.4623860000000  0.5385720000000 1.0
C      1  0.5459710000000  0.4590590000000  0.4694610000000 1.0
C      1  0.4875380000000  0.4696420000000  0.4372460000000 1.0
C      1  0.4350580000000  0.4702630000000  0.4914740000000 1.0
C      1  0.4989880000000  0.5910300000000  0.5197310000000 1.0
C      1  0.5195430000000  0.5930180000000  0.5001860000000 1.0
C      1  0.5087060000000  0.5888320000000  0.4744960000000 1.0
C      1  0.4802660000000  0.5871810000000  0.4773540000000 1.0
C      1  0.4748720000000  0.5854720000000  0.5056830000000 1.0
C      1  0.5299590000000  0.4124980000000  0.5429500000000 1.0
C      1  0.5147210000000  0.3960930000000  0.4881540000000 1.0
C      1  0.4922250000000  0.4055730000000  0.4738280000000 1.0
C      1  0.4697090000000  0.4089860000000  0.4883850000000 1.0
C      1  0.4694580000000  0.4020170000000  0.5146460000000 1.0
C      1  0.5218520000000  0.5577540000000  0.4186930000000 1.0
C      1  0.4201030000000  0.5624250000000  0.4483730000000 1.0
C      1  0.4434510000000  0.5500420000000  0.5527780000000 1.0
C      1  0.5457230000000  0.5552890000000  0.5750500000000 1.0
C      1  0.5850590000000  0.5590260000000  0.5012290000000 1.0
C      1  0.4933890000000  0.4491440000000  0.4107560000000 1.0
C      1  0.4152540000000  0.4411260000000  0.4727000000000 1.0
C      1  0.4535820000000  0.4443760000000  0.5665610000000 1.0
C      1  0.5516200000000  0.4612530000000  0.5874570000000 1.0
C      1  0.5919180000000  0.4431180000000  0.4761520000000 1.0
C      1  0.4974440000000  0.5120310000000  0.5663800000000 1.0
C      1  0.5622700000000  0.5148220000000  0.5160760000000 1.0
C      1  0.5400160000000  0.5088350000000  0.4551570000000 1.0
C      1  0.4633830000000  0.5138140000000  0.4498310000000 1.0
C      1  0.4325750000000  0.5077740000000  0.5187480000000 1.0
C      1  0.5071210000000  0.4800770000000  0.5745710000000 1.0
C      1  0.5699870000000  0.4817700000000  0.5180860000000 1.0
C      1  0.5281990000000  0.4769660000000  0.4482090000000 1.0
C      1  0.4545650000000  0.4817780000000  0.4572090000000 1.0
C      1  0.4369940000000  0.4741620000000  0.5244000000000 1.0
C      1  0.5243550000000  0.4507930000000  0.5760870000000 1.0
C      1  0.5898490000000  0.4719100000000  0.4941370000000 1.0
C      1  0.5198160000000  0.4481320000000  0.4319160000000 1.0
C      1  0.4416840000000  0.4503090000000  0.4559400000000 1.0
C      1  0.4413940000000  0.4427770000000  0.5367540000000 1.0
C      1  0.5182400000000  0.5350320000000  0.5782120000000 1.0
C      1  0.5738820000000  0.5455820000000  0.5235490000000 1.0
C      1  0.5325940000000  0.5380250000000  0.4440650000000 1.0
C      1  0.4466000000000  0.5430430000000  0.4455780000000 1.0
C      1  0.4400630000000  0.5368780000000  0.5230580000000 1.0
C      1  0.4844130000000  0.4179250000000  0.5642740000000 1.0
C      1  0.5719160000000  0.4358970000000  0.5303850000000 1.0
C      1  0.5470540000000  0.4093030000000  0.4571610000000 1.0
C      1  0.4659320000000  0.4322770000000  0.4128470000000 1.0
C      1  0.4235410000000  0.4239020000000  0.4948810000000 1.0
C      1  0.4851110000000  0.5762650000000  0.5711610000000 1.0
C      1  0.5640120000000  0.5841890000000  0.5240720000000 1.0
C      1  0.5586370000000  0.5668380000000  0.4532590000000 1.0
C      1  0.4649660000000  0.5759630000000  0.4327270000000 1.0
C      1  0.4059840000000  0.5688650000000  0.5089900000000 1.0
C      1  0.5880980000000  0.5881220000000  0.5076250000000 1.0
C      1  0.5493580000000  0.5718000000000  0.4257820000000 1.0
C      1  0.4377750000000  0.5790850000000  0.4273210000000 1.0
C      1  0.4183490000000  0.5592690000000  0.5313890000000 1.0
C      1  0.5151410000000  0.5664480000000  0.5715630000000 1.0
C      1  0.5815960000000  0.4388020000000  0.5057340000000 1.0
C      1  0.5288000000000  0.4181010000000  0.4387710000000 1.0
C      1  0.4473070000000  0.4371380000000  0.4286460000000 1.0
C      1  0.4211600000000  0.4243650000000  0.5216340000000 1.0
C      1  0.5033440000000  0.4256310000000  0.5785530000000 1.0
C      1  0.4527400000000  0.4324490000000  0.4826620000000 1.0
C      1  0.4693900000000  0.4234670000000  0.5366490000000 1.0
C      1  0.5237890000000  0.4376780000000  0.5464640000000 1.0
C      1  0.5365630000000  0.4135710000000  0.4836260000000 1.0
C      1  0.5005600000000  0.4263300000000  0.4537080000000 1.0
C      1  0.4646030000000  0.5655490000000  0.4636430000000 1.0
C      1  0.4616030000000  0.5578010000000  0.5111480000000 1.0
C      1  0.5111390000000  0.5711300000000  0.5413050000000 1.0
C      1  0.5405310000000  0.5739480000000  0.5082810000000 1.0
C      1  0.5247180000000  0.5684590000000  0.4570390000000 1.0
C      1  0.5002250000000  0.4532990000000  0.4997340000000 1.0
C      1  0.5085050000000  0.5501900000000  0.4984590000000 1.0
C      1  0.4854780000000  0.4987100000000  0.5148640000000 1.0
END
