TITL C-2622958-629-753 0.00106057076099474 125000 -770.042791466478 0 0 146 (C1) n - 1
REM
REM in /nfs/bkarasulu/CARBON/AIRSS/Generating-Clusters/AIREBO/with-SteepDescent/Higher-Symm/SD-CG/HFTN-CG
REM
REM
REM
REM
REM
REM ./C.cell (b20cbc046b6831c77cfcea5457e17084)
REM
REM compiler GCC version 9.2.1 20190827 (Red Hat 9.2.1-1)
REM options -cpp -mtune=generic -march=x86-64 -g -O0 -fpre-include=/usr/include/finclude/math-vector-fortran.h
REM seed -2100131179 -331782918 -311850182 1282513599 733689969 -2070021859 -1915957386 -562715246 -658450146 -1310025047 -1832526037 -1328552743 -1225180274 -1928477464 694169552 -718980117 284135683 312565124 -76203991 976176977 239590222 1591835549 1591343892 -759225475 1175125614 -336287053 -605692075 1538824634 1253414812 563547149 -545631369 268643083 -891567104
REM
CELL 1.54180   50.00000   50.00000   50.00000   90.00000   90.00000   90.00000
LATT -1
SFAC C  
C      1  0.5656700000000  0.5296820000000  0.5120300000000 1.0
C      1  0.4360850000000  0.4649190000000  0.4997070000000 1.0
C      1  0.5381260000000  0.4424780000000  0.4386110000000 1.0
C      1  0.4647300000000  0.5564500000000  0.5730780000000 1.0
C      1  0.4291840000000  0.5077540000000  0.5689390000000 1.0
C      1  0.5706150000000  0.4987960000000  0.4224200000000 1.0
C      1  0.4305160000000  0.4605970000000  0.5388370000000 1.0
C      1  0.5637160000000  0.5355900000000  0.4568640000000 1.0
C      1  0.5686850000000  0.4889160000000  0.5127380000000 1.0
C      1  0.4267170000000  0.5100510000000  0.4889940000000 1.0
C      1  0.5254410000000  0.5091200000000  0.4016640000000 1.0
C      1  0.4746690000000  0.4954550000000  0.5944740000000 1.0
C      1  0.5149990000000  0.4551290000000  0.5442090000000 1.0
C      1  0.4827230000000  0.5411950000000  0.4632930000000 1.0
C      1  0.4950270000000  0.5078000000000  0.5134100000000 1.0
C      1  0.5088840000000  0.5090110000000  0.4676620000000 1.0
C      1  0.5034650000000  0.5147080000000  0.5645940000000 1.0
C      1  0.4957950000000  0.4735490000000  0.4342240000000 1.0
C      1  0.5395290000000  0.4939660000000  0.4470490000000 1.0
C      1  0.4627580000000  0.5141520000000  0.5488620000000 1.0
C      1  0.5570190000000  0.5785670000000  0.5184320000000 1.0
C      1  0.4436090000000  0.4177220000000  0.4840170000000 1.0
C      1  0.4747330000000  0.5779640000000  0.5001340000000 1.0
C      1  0.5233600000000  0.4289720000000  0.5010560000000 1.0
C      1  0.5610230000000  0.4412730000000  0.5991930000000 1.0
C      1  0.4472620000000  0.5518400000000  0.3957850000000 1.0
C      1  0.4041330000000  0.5263440000000  0.4603150000000 1.0
C      1  0.5948610000000  0.4707860000000  0.5366450000000 1.0
C      1  0.4321970000000  0.5085060000000  0.5350670000000 1.0
C      1  0.5713520000000  0.4964910000000  0.4565420000000 1.0
C      1  0.4246370000000  0.5609220000000  0.5010840000000 1.0
C      1  0.5729010000000  0.4404310000000  0.4963870000000 1.0
C      1  0.5307070000000  0.5880680000000  0.5177300000000 1.0
C      1  0.4695090000000  0.4053470000000  0.4822710000000 1.0
C      1  0.5155430000000  0.5572350000000  0.5586510000000 1.0
C      1  0.4836720000000  0.4423790000000  0.4366390000000 1.0
C      1  0.4440500000000  0.5390230000000  0.5585760000000 1.0
C      1  0.5550860000000  0.4708440000000  0.4305480000000 1.0
C      1  0.5197560000000  0.4860300000000  0.5563000000000 1.0
C      1  0.4808750000000  0.5102740000000  0.4509230000000 1.0
C      1  0.5302930000000  0.5005240000000  0.5302550000000 1.0
C      1  0.4620960000000  0.4812890000000  0.4719300000000 1.0
C      1  0.4480880000000  0.6030160000000  0.4810320000000 1.0
C      1  0.5534630000000  0.3989100000000  0.5190650000000 1.0
C      1  0.5766520000000  0.4113930000000  0.5074710000000 1.0
C      1  0.4251840000000  0.5902760000000  0.4920660000000 1.0
C      1  0.3899860000000  0.4744800000000  0.4783310000000 1.0
C      1  0.6117380000000  0.5134730000000  0.5301290000000 1.0
C      1  0.4848890000000  0.4511850000000  0.5325360000000 1.0
C      1  0.5147980000000  0.5503050000000  0.4699610000000 1.0
C      1  0.5407180000000  0.5160950000000  0.5040080000000 1.0
C      1  0.4644010000000  0.4827240000000  0.5058350000000 1.0
C      1  0.4098140000000  0.4837240000000  0.5285910000000 1.0
C      1  0.5896630000000  0.5211280000000  0.4711930000000 1.0
C      1  0.5717350000000  0.5718790000000  0.4939800000000 1.0
C      1  0.4273530000000  0.4246600000000  0.5062890000000 1.0
C      1  0.4880250000000  0.5244760000000  0.5377860000000 1.0
C      1  0.5158050000000  0.4785110000000  0.4588400000000 1.0
C      1  0.4631100000000  0.4587930000000  0.4157440000000 1.0
C      1  0.5379940000000  0.5340630000000  0.5692120000000 1.0
C      1  0.5167310000000  0.5603340000000  0.4375270000000 1.0
C      1  0.4841280000000  0.4432840000000  0.5659740000000 1.0
C      1  0.5434780000000  0.5732550000000  0.5635850000000 1.0
C      1  0.4570490000000  0.4213770000000  0.4391140000000 1.0
C      1  0.4847190000000  0.4728720000000  0.6130780000000 1.0
C      1  0.5102370000000  0.5325160000000  0.3875920000000 1.0
C      1  0.5057170000000  0.5043590000000  0.4282300000000 1.0
C      1  0.4859550000000  0.4856930000000  0.5645130000000 1.0
C      1  0.5124570000000  0.5263580000000  0.4939880000000 1.0
C      1  0.4969600000000  0.4739890000000  0.5103820000000 1.0
C      1  0.4952050000000  0.4531010000000  0.4858720000000 1.0
C      1  0.5097830000000  0.5512370000000  0.5168340000000 1.0
C      1  0.5530800000000  0.5190640000000  0.4112900000000 1.0
C      1  0.4462270000000  0.4868480000000  0.5819240000000 1.0
C      1  0.5311870000000  0.4772950000000  0.5051600000000 1.0
C      1  0.4712470000000  0.5337550000000  0.4950610000000 1.0
C      1  0.4960860000000  0.4530280000000  0.6028650000000 1.0
C      1  0.4993680000000  0.5508180000000  0.4009060000000 1.0
C      1  0.4417440000000  0.4681300000000  0.4319670000000 1.0
C      1  0.5632710000000  0.5153730000000  0.5684840000000 1.0
C      1  0.4858130000000  0.5666260000000  0.5523850000000 1.0
C      1  0.5091620000000  0.4253630000000  0.4438010000000 1.0
C      1  0.4193130000000  0.4802530000000  0.4743380000000 1.0
C      1  0.5828330000000  0.5115100000000  0.5338570000000 1.0
C      1  0.4565190000000  0.4470080000000  0.5216520000000 1.0
C      1  0.5450050000000  0.5574470000000  0.4680190000000 1.0
C      1  0.5170070000000  0.5241910000000  0.5929720000000 1.0
C      1  0.4805890000000  0.4835130000000  0.4053710000000 1.0
C      1  0.4373250000000  0.4295080000000  0.4585980000000 1.0
C      1  0.5633700000000  0.5654650000000  0.5441060000000 1.0
C      1  0.5793310000000  0.5445280000000  0.4924340000000 1.0
C      1  0.4087960000000  0.4518250000000  0.5151960000000 1.0
C      1  0.4630560000000  0.4835230000000  0.5398290000000 1.0
C      1  0.5283010000000  0.5226720000000  0.4436740000000 1.0
C      1  0.4584420000000  0.5914440000000  0.4553200000000 1.0
C      1  0.5418380000000  0.4124790000000  0.5422470000000 1.0
C      1  0.4427320000000  0.5528370000000  0.5282200000000 1.0
C      1  0.5568740000000  0.4463260000000  0.4668280000000 1.0
C      1  0.5736200000000  0.5401200000000  0.5497670000000 1.0
C      1  0.4275470000000  0.4553620000000  0.4527640000000 1.0
C      1  0.4624760000000  0.5086240000000  0.4145060000000 1.0
C      1  0.5374520000000  0.5017000000000  0.6026780000000 1.0
C      1  0.5483120000000  0.4854840000000  0.5748360000000 1.0
C      1  0.4504060000000  0.4968480000000  0.4440360000000 1.0
C      1  0.4186960000000  0.5045420000000  0.4505280000000 1.0
C      1  0.5764360000000  0.4862420000000  0.5557020000000 1.0
C      1  0.5562900000000  0.4578220000000  0.5187240000000 1.0
C      1  0.4419350000000  0.5403730000000  0.4811120000000 1.0
C      1  0.4846990000000  0.5511570000000  0.4307460000000 1.0
C      1  0.5153290000000  0.4504660000000  0.5774510000000 1.0
C      1  0.4393550000000  0.4295390000000  0.5622610000000 1.0
C      1  0.5625200000000  0.5763310000000  0.4374930000000 1.0
C      1  0.5015800000000  0.4050050000000  0.4920310000000 1.0
C      1  0.4996050000000  0.5983450000000  0.5084420000000 1.0
C      1  0.4394500000000  0.4218250000000  0.5350320000000 1.0
C      1  0.5614390000000  0.5837010000000  0.4676660000000 1.0
C      1  0.4026270000000  0.5163790000000  0.5202150000000 1.0
C      1  0.5953650000000  0.4875840000000  0.4789220000000 1.0
C      1  0.4124060000000  0.5431090000000  0.5346420000000 1.0
C      1  0.5850190000000  0.4599400000000  0.4639190000000 1.0
C      1  0.5272700000000  0.4551160000000  0.4796690000000 1.0
C      1  0.4763410000000  0.5527010000000  0.5228340000000 1.0
C      1  0.4625810000000  0.5664350000000  0.4739460000000 1.0
C      1  0.5339190000000  0.4392840000000  0.5287860000000 1.0
C      1  0.5244480000000  0.4059760000000  0.5632220000000 1.0
C      1  0.4755510000000  0.5944710000000  0.4340840000000 1.0
C      1  0.4994640000000  0.4144840000000  0.5705590000000 1.0
C      1  0.5013700000000  0.5874540000000  0.4294830000000 1.0
C      1  0.4728960000000  0.5463370000000  0.5968910000000 1.0
C      1  0.5258650000000  0.4564340000000  0.4100500000000 1.0
C      1  0.5319450000000  0.3961320000000  0.4998420000000 1.0
C      1  0.4700630000000  0.6115430000000  0.4998540000000 1.0
C      1  0.5470380000000  0.5471130000000  0.4295520000000 1.0
C      1  0.4545980000000  0.4599440000000  0.5628400000000 1.0
C      1  0.4044960000000  0.5352000000000  0.4928730000000 1.0
C      1  0.5926320000000  0.4662630000000  0.5052720000000 1.0
C      1  0.5271240000000  0.5324100000000  0.5378670000000 1.0
C      1  0.4773800000000  0.4582100000000  0.4660650000000 1.0
C      1  0.5054330000000  0.5902680000000  0.5394790000000 1.0
C      1  0.4955210000000  0.4049470000000  0.4601700000000 1.0
C      1  0.5444540000000  0.4557500000000  0.5855890000000 1.0
C      1  0.4635370000000  0.5367930000000  0.4118300000000 1.0
C      1  0.5125870000000  0.4786990000000  0.3984880000000 1.0
C      1  0.4864480000000  0.5231190000000  0.5997940000000 1.0
C      1  0.4515890000000  0.5118120000000  0.5073280000000 1.0
C      1  0.5525270000000  0.4941690000000  0.4847600000000 1.0
END
