TITL C-2622954-8726-165 -0.00217773178675084 125000 -1048.28253643356 0 0 193 (C1) n - 1
REM
REM in /nfs/bkarasulu/CARBON/AIRSS/Generating-Clusters/AIREBO/with-SteepDescent/Higher-Symm/SD-CG/HFTN-CG
REM
REM
REM
REM
REM
REM ./C.cell (b20cbc046b6831c77cfcea5457e17084)
REM
REM compiler GCC version 9.2.1 20190827 (Red Hat 9.2.1-1)
REM options -cpp -mtune=generic -march=x86-64 -g -O0 -fpre-include=/usr/include/finclude/math-vector-fortran.h
REM seed 1942481973 44939164 770690933 -593134348 -715600143 636923781 -1658930448 -1459712572 2042596352 1383856766 -996504931 80931054 -875592043 245294650 -262002770 -1011662205 199493807 226763170 690523458 1784212312 1496292274 -1867442266 1107040154 1496333644 997802803 -1794360385 -881706451 -1647307126 1868297441 1495168456 -512875133 552842771 -1268223747
REM
CELL 1.54180   50.00000   50.00000   50.00000   90.00000   90.00000   90.00000
LATT -1
SFAC C  
C      1  0.5400760000000  0.5167160000000  0.4145110000000 1.0
C      1  0.5152620000000  0.5887680000000  0.5447880000000 1.0
C      1  0.5234550000000  0.3615830000000  0.5189440000000 1.0
C      1  0.5116250000000  0.4586800000000  0.6189960000000 1.0
C      1  0.5579380000000  0.5266550000000  0.5682230000000 1.0
C      1  0.4004670000000  0.4556890000000  0.4518950000000 1.0
C      1  0.4501090000000  0.5531910000000  0.5898290000000 1.0
C      1  0.4916830000000  0.4523170000000  0.5961850000000 1.0
C      1  0.4919660000000  0.5236220000000  0.4593290000000 1.0
C      1  0.5017110000000  0.4453490000000  0.5200590000000 1.0
C      1  0.5987790000000  0.4531600000000  0.5011840000000 1.0
C      1  0.4679710000000  0.4832350000000  0.5040480000000 1.0
C      1  0.4472310000000  0.4241660000000  0.5447590000000 1.0
C      1  0.4711100000000  0.6278830000000  0.5432130000000 1.0
C      1  0.5323530000000  0.4681190000000  0.4783610000000 1.0
C      1  0.4437400000000  0.5704110000000  0.5343410000000 1.0
C      1  0.4124490000000  0.5071530000000  0.5299900000000 1.0
C      1  0.5385700000000  0.6026980000000  0.5652730000000 1.0
C      1  0.3935480000000  0.4761250000000  0.5093590000000 1.0
C      1  0.3811120000000  0.4955050000000  0.5281240000000 1.0
C      1  0.4213810000000  0.4398450000000  0.4616430000000 1.0
C      1  0.4871940000000  0.5717770000000  0.4964280000000 1.0
C      1  0.4966610000000  0.5456580000000  0.5418210000000 1.0
C      1  0.5740400000000  0.5828750000000  0.4516070000000 1.0
C      1  0.4364920000000  0.4869470000000  0.4709330000000 1.0
C      1  0.4583920000000  0.4740190000000  0.4327360000000 1.0
C      1  0.5045720000000  0.4489910000000  0.4552660000000 1.0
C      1  0.5839670000000  0.5576530000000  0.4465070000000 1.0
C      1  0.5624580000000  0.5368410000000  0.4303450000000 1.0
C      1  0.4855700000000  0.4585700000000  0.4287420000000 1.0
C      1  0.5118350000000  0.4691570000000  0.4215020000000 1.0
C      1  0.5661890000000  0.4528100000000  0.5108680000000 1.0
C      1  0.5840710000000  0.5010620000000  0.4938750000000 1.0
C      1  0.6079420000000  0.5196680000000  0.4783520000000 1.0
C      1  0.5358220000000  0.4470560000000  0.4445940000000 1.0
C      1  0.4110850000000  0.5290970000000  0.4275590000000 1.0
C      1  0.4372210000000  0.4406190000000  0.4028550000000 1.0
C      1  0.4735330000000  0.5381560000000  0.6002530000000 1.0
C      1  0.5342700000000  0.4264290000000  0.5830380000000 1.0
C      1  0.5049780000000  0.4313310000000  0.5782510000000 1.0
C      1  0.5340240000000  0.5860100000000  0.4376940000000 1.0
C      1  0.3942230000000  0.5494200000000  0.5094270000000 1.0
C      1  0.5068480000000  0.4746290000000  0.5575920000000 1.0
C      1  0.4845590000000  0.5385770000000  0.4889710000000 1.0
C      1  0.5731910000000  0.4238360000000  0.5287650000000 1.0
C      1  0.4497390000000  0.4450300000000  0.4483050000000 1.0
C      1  0.5270980000000  0.5461440000000  0.6074780000000 1.0
C      1  0.5304820000000  0.5764520000000  0.4879930000000 1.0
C      1  0.5864100000000  0.5147550000000  0.5707010000000 1.0
C      1  0.4311630000000  0.4664360000000  0.4138210000000 1.0
C      1  0.5341900000000  0.4788250000000  0.5769460000000 1.0
C      1  0.5000800000000  0.4374320000000  0.4869510000000 1.0
C      1  0.5700040000000  0.4607780000000  0.5726190000000 1.0
C      1  0.4635880000000  0.4169020000000  0.4960290000000 1.0
C      1  0.5087820000000  0.5687100000000  0.4629880000000 1.0
C      1  0.4500290000000  0.5161800000000  0.4606460000000 1.0
C      1  0.4428540000000  0.5304690000000  0.4347750000000 1.0
C      1  0.5110440000000  0.4237670000000  0.4110490000000 1.0
C      1  0.5846050000000  0.5115080000000  0.4309160000000 1.0
C      1  0.5280010000000  0.4966000000000  0.4933460000000 1.0
C      1  0.5150530000000  0.5530980000000  0.4012030000000 1.0
C      1  0.5063040000000  0.5682980000000  0.4290770000000 1.0
C      1  0.5359160000000  0.5009040000000  0.6321780000000 1.0
C      1  0.5186740000000  0.4116880000000  0.4949710000000 1.0
C      1  0.4407950000000  0.5070580000000  0.5580020000000 1.0
C      1  0.5433990000000  0.5615540000000  0.4168080000000 1.0
C      1  0.4253410000000  0.5244070000000  0.5031440000000 1.0
C      1  0.4489360000000  0.4612730000000  0.4896300000000 1.0
C      1  0.4513250000000  0.5061110000000  0.5117890000000 1.0
C      1  0.5689690000000  0.5834530000000  0.4961810000000 1.0
C      1  0.5424840000000  0.4993940000000  0.5200550000000 1.0
C      1  0.5476360000000  0.4174810000000  0.5112530000000 1.0
C      1  0.5219830000000  0.5223110000000  0.4752770000000 1.0
C      1  0.5009270000000  0.5215360000000  0.5089880000000 1.0
C      1  0.5356460000000  0.4464450000000  0.5244210000000 1.0
C      1  0.4717470000000  0.4124210000000  0.5347590000000 1.0
C      1  0.5227020000000  0.5454810000000  0.4985270000000 1.0
C      1  0.5571000000000  0.5850890000000  0.5759110000000 1.0
C      1  0.4676270000000  0.5942410000000  0.5385890000000 1.0
C      1  0.5423230000000  0.4197810000000  0.5544730000000 1.0
C      1  0.4069460000000  0.4713920000000  0.4259050000000 1.0
C      1  0.4992530000000  0.6009690000000  0.4845280000000 1.0
C      1  0.5879730000000  0.4879460000000  0.5691440000000 1.0
C      1  0.5397620000000  0.4929010000000  0.3934540000000 1.0
C      1  0.4864760000000  0.4727680000000  0.5305970000000 1.0
C      1  0.5831110000000  0.5612370000000  0.4894560000000 1.0
C      1  0.5538170000000  0.5537010000000  0.5887050000000 1.0
C      1  0.5500620000000  0.4982790000000  0.4488000000000 1.0
C      1  0.4602740000000  0.4961980000000  0.4070120000000 1.0
C      1  0.4611380000000  0.4560570000000  0.5926380000000 1.0
C      1  0.5039970000000  0.3954790000000  0.4615250000000 1.0
C      1  0.4549800000000  0.4827090000000  0.6023420000000 1.0
C      1  0.5209160000000  0.5003400000000  0.5423440000000 1.0
C      1  0.4247410000000  0.4378360000000  0.4943760000000 1.0
C      1  0.5188540000000  0.5974590000000  0.5120930000000 1.0
C      1  0.4548390000000  0.4276600000000  0.4214360000000 1.0
C      1  0.5355190000000  0.4664920000000  0.6085060000000 1.0
C      1  0.5122510000000  0.5217360000000  0.4321050000000 1.0
C      1  0.3806190000000  0.4232200000000  0.5564550000000 1.0
C      1  0.4874880000000  0.5080980000000  0.4207240000000 1.0
C      1  0.5021280000000  0.5549600000000  0.5977120000000 1.0
C      1  0.5417010000000  0.5608070000000  0.4597940000000 1.0
C      1  0.4479170000000  0.5783070000000  0.4483730000000 1.0
C      1  0.4065670000000  0.4882510000000  0.4547480000000 1.0
C      1  0.4902640000000  0.5739130000000  0.5271410000000 1.0
C      1  0.4970910000000  0.4257090000000  0.5475720000000 1.0
C      1  0.5807050000000  0.4725230000000  0.5424290000000 1.0
C      1  0.4203360000000  0.5463390000000  0.5286520000000 1.0
C      1  0.5422190000000  0.4538240000000  0.5552420000000 1.0
C      1  0.4697100000000  0.4403710000000  0.4726670000000 1.0
C      1  0.5206300000000  0.4067040000000  0.5423080000000 1.0
C      1  0.3879730000000  0.5519310000000  0.4835660000000 1.0
C      1  0.5324250000000  0.3938890000000  0.4705140000000 1.0
C      1  0.4618150000000  0.5011840000000  0.5770300000000 1.0
C      1  0.4222050000000  0.5862740000000  0.4507160000000 1.0
C      1  0.4642080000000  0.4439890000000  0.5147240000000 1.0
C      1  0.4814680000000  0.5543360000000  0.4491460000000 1.0
C      1  0.5311680000000  0.5179550000000  0.6116220000000 1.0
C      1  0.5544360000000  0.4693040000000  0.4346020000000 1.0
C      1  0.5476150000000  0.4684680000000  0.4039500000000 1.0
C      1  0.5737900000000  0.5664820000000  0.5564990000000 1.0
C      1  0.5435140000000  0.5701350000000  0.5414660000000 1.0
C      1  0.4834920000000  0.3948000000000  0.5081480000000 1.0
C      1  0.5571820000000  0.4516120000000  0.4787250000000 1.0
C      1  0.5047870000000  0.5757600000000  0.5746940000000 1.0
C      1  0.5808660000000  0.4251980000000  0.4500180000000 1.0
C      1  0.5505100000000  0.5298530000000  0.4614170000000 1.0
C      1  0.5241190000000  0.6056160000000  0.4614050000000 1.0
C      1  0.5136130000000  0.3900220000000  0.5187730000000 1.0
C      1  0.5295740000000  0.5553120000000  0.5686470000000 1.0
C      1  0.4057780000000  0.5701470000000  0.4655190000000 1.0
C      1  0.4620230000000  0.5670850000000  0.4740470000000 1.0
C      1  0.5550930000000  0.4176790000000  0.4795980000000 1.0
C      1  0.4665220000000  0.3649570000000  0.4703350000000 1.0
C      1  0.5795020000000  0.4975790000000  0.4617600000000 1.0
C      1  0.6175310000000  0.4907670000000  0.4747920000000 1.0
C      1  0.4080160000000  0.5153280000000  0.4752700000000 1.0
C      1  0.4205200000000  0.5481860000000  0.5779900000000 1.0
C      1  0.4526730000000  0.4448220000000  0.5681760000000 1.0
C      1  0.5169190000000  0.4964750000000  0.3732070000000 1.0
C      1  0.4115940000000  0.4881420000000  0.4936500000000 1.0
C      1  0.5037910000000  0.4814410000000  0.4654680000000 1.0
C      1  0.4799030000000  0.4187510000000  0.4170680000000 1.0
C      1  0.4355380000000  0.4057020000000  0.4917320000000 1.0
C      1  0.4014460000000  0.4395860000000  0.5498660000000 1.0
C      1  0.4644760000000  0.5091510000000  0.6158300000000 1.0
C      1  0.4844520000000  0.3841710000000  0.4780800000000 1.0
C      1  0.5151700000000  0.5243700000000  0.3924320000000 1.0
C      1  0.5532370000000  0.5966810000000  0.4728130000000 1.0
C      1  0.5972200000000  0.4821270000000  0.4371970000000 1.0
C      1  0.5501740000000  0.5268350000000  0.5361560000000 1.0
C      1  0.5501330000000  0.4228590000000  0.4463640000000 1.0
C      1  0.5749750000000  0.5375080000000  0.5203880000000 1.0
C      1  0.5359540000000  0.5085900000000  0.5831180000000 1.0
C      1  0.5262570000000  0.5450660000000  0.5287620000000 1.0
C      1  0.5798970000000  0.4584000000000  0.4543380000000 1.0
C      1  0.5249300000000  0.4476880000000  0.4059320000000 1.0
C      1  0.5876000000000  0.4079280000000  0.4736690000000 1.0
C      1  0.4661450000000  0.5649960000000  0.4003060000000 1.0
C      1  0.4566420000000  0.5562930000000  0.4277950000000 1.0
C      1  0.6033450000000  0.4663180000000  0.4776550000000 1.0
C      1  0.4222390000000  0.4307450000000  0.5275510000000 1.0
C      1  0.4997790000000  0.4176940000000  0.4428570000000 1.0
C      1  0.4293590000000  0.4812560000000  0.5452550000000 1.0
C      1  0.4178780000000  0.5282330000000  0.5561160000000 1.0
C      1  0.4372020000000  0.5729810000000  0.5676090000000 1.0
C      1  0.4916540000000  0.6133660000000  0.5239830000000 1.0
C      1  0.4738130000000  0.4941030000000  0.4555140000000 1.0
C      1  0.5157640000000  0.5267980000000  0.5626930000000 1.0
C      1  0.4345650000000  0.5136610000000  0.4084060000000 1.0
C      1  0.5584770000000  0.5893150000000  0.5200250000000 1.0
C      1  0.4274650000000  0.5903100000000  0.5168410000000 1.0
C      1  0.4509230000000  0.5366190000000  0.4843510000000 1.0
C      1  0.4014060000000  0.5386240000000  0.4552940000000 1.0
C      1  0.5213250000000  0.4917600000000  0.4397300000000 1.0
C      1  0.3975490000000  0.4491170000000  0.5113880000000 1.0
C      1  0.5907500000000  0.5503580000000  0.5411370000000 1.0
C      1  0.6012230000000  0.5453800000000  0.4685920000000 1.0
C      1  0.4891430000000  0.5683830000000  0.3912500000000 1.0
C      1  0.4655220000000  0.5458980000000  0.5403630000000 1.0
C      1  0.4894630000000  0.4822700000000  0.5822220000000 1.0
C      1  0.4958390000000  0.4919500000000  0.4968100000000 1.0
C      1  0.5021260000000  0.6286270000000  0.4678020000000 1.0
C      1  0.6048400000000  0.5318950000000  0.5576900000000 1.0
C      1  0.4887950000000  0.5064900000000  0.5338040000000 1.0
C      1  0.5695500000000  0.4861530000000  0.5163540000000 1.0
C      1  0.4557610000000  0.4629660000000  0.5414180000000 1.0
C      1  0.4875500000000  0.5049960000000  0.3881220000000 1.0
C      1  0.4086450000000  0.4634440000000  0.5605950000000 1.0
C      1  0.5511050000000  0.4467580000000  0.5935850000000 1.0
C      1  0.4605510000000  0.5171490000000  0.5380930000000 1.0
C      1  0.4906520000000  0.5164390000000  0.5819130000000 1.0
C      1  0.5699620000000  0.5302560000000  0.4880370000000 1.0
END
