TITL C-2622968-4806-194 0.000375626408368428 125000 -490.131488261019 0 0 89 (C1) n - 1
REM
REM in /nfs/bkarasulu/CARBON/AIRSS/Generating-Clusters/AIREBO/with-SteepDescent/Higher-Symm/SD-CG/HFTN-CG
REM
REM
REM
REM
REM
REM ./C.cell (b20cbc046b6831c77cfcea5457e17084)
REM
REM compiler GCC version 9.2.1 20190827 (Red Hat 9.2.1-1)
REM options -cpp -mtune=generic -march=x86-64 -g -O0 -fpre-include=/usr/include/finclude/math-vector-fortran.h
REM seed 937176142 1859454036 1771966624 974263282 637992903 -71827510 -1698830748 -1554956393 1314323360 -1799455692 -1466090820 1070169862 441630181 -1656383166 -1618480709 -1055939669 1643077320 -176019169 -863307203 -229293125 -804280448 794878591 -981004472 -901252949 1815575992 1203176526 -1775807981 1542620717 1171976197 227219688 -1742539419 -1188334852 707433254
REM
CELL 1.54180   50.00000   50.00000   50.00000   90.00000   90.00000   90.00000
LATT -1
SFAC C  
C      1  0.4948640000000  0.5128630000000  0.5646630000000 1.0
C      1  0.4787530000000  0.4867030000000  0.4579940000000 1.0
C      1  0.4656300000000  0.4253820000000  0.4854260000000 1.0
C      1  0.4673040000000  0.5808220000000  0.4861570000000 1.0
C      1  0.5592210000000  0.5673230000000  0.4878790000000 1.0
C      1  0.4985450000000  0.4235850000000  0.5627250000000 1.0
C      1  0.5129190000000  0.5699520000000  0.4743720000000 1.0
C      1  0.5491130000000  0.5103650000000  0.5308450000000 1.0
C      1  0.4656120000000  0.5228180000000  0.5226500000000 1.0
C      1  0.4571170000000  0.5432980000000  0.4234620000000 1.0
C      1  0.5013020000000  0.4235770000000  0.5290200000000 1.0
C      1  0.4197670000000  0.5052690000000  0.5189440000000 1.0
C      1  0.4671880000000  0.5032930000000  0.5504450000000 1.0
C      1  0.5228070000000  0.4103080000000  0.4577070000000 1.0
C      1  0.5107950000000  0.5434010000000  0.5236700000000 1.0
C      1  0.5035340000000  0.5018830000000  0.4452240000000 1.0
C      1  0.5572750000000  0.5008210000000  0.5797330000000 1.0
C      1  0.5447410000000  0.5444750000000  0.5589950000000 1.0
C      1  0.5621920000000  0.5203800000000  0.5606090000000 1.0
C      1  0.4711820000000  0.5646700000000  0.5223290000000 1.0
C      1  0.4728200000000  0.5281320000000  0.4055670000000 1.0
C      1  0.4437490000000  0.4774930000000  0.4247600000000 1.0
C      1  0.4248790000000  0.5426700000000  0.4869580000000 1.0
C      1  0.4928660000000  0.5794110000000  0.5296960000000 1.0
C      1  0.5767890000000  0.4943520000000  0.5260560000000 1.0
C      1  0.5873530000000  0.5017150000000  0.5012580000000 1.0
C      1  0.4471030000000  0.5562580000000  0.5336620000000 1.0
C      1  0.4815430000000  0.4580180000000  0.5253340000000 1.0
C      1  0.5419780000000  0.5392740000000  0.5158770000000 1.0
C      1  0.5145870000000  0.5360320000000  0.5534250000000 1.0
C      1  0.4626350000000  0.4972990000000  0.4923090000000 1.0
C      1  0.4659810000000  0.4831390000000  0.5230640000000 1.0
C      1  0.4438050000000  0.5496730000000  0.5608830000000 1.0
C      1  0.4883370000000  0.4768160000000  0.4890960000000 1.0
C      1  0.4197700000000  0.4842810000000  0.4980680000000 1.0
C      1  0.4345020000000  0.4864040000000  0.5351330000000 1.0
C      1  0.5147070000000  0.5332930000000  0.4399750000000 1.0
C      1  0.5348200000000  0.4266150000000  0.5349800000000 1.0
C      1  0.4699550000000  0.4282400000000  0.5164970000000 1.0
C      1  0.5161680000000  0.4733190000000  0.4323570000000 1.0
C      1  0.4947020000000  0.4527930000000  0.5554430000000 1.0
C      1  0.4730850000000  0.5636890000000  0.4398100000000 1.0
C      1  0.4872890000000  0.5745190000000  0.4647470000000 1.0
C      1  0.4371870000000  0.5284540000000  0.4377650000000 1.0
C      1  0.5823550000000  0.4819860000000  0.4782230000000 1.0
C      1  0.5464270000000  0.4568160000000  0.5098380000000 1.0
C      1  0.5524730000000  0.5645140000000  0.5362400000000 1.0
C      1  0.5734060000000  0.5665850000000  0.5114900000000 1.0
C      1  0.5657120000000  0.5113580000000  0.4762710000000 1.0
C      1  0.5041060000000  0.4905820000000  0.5135400000000 1.0
C      1  0.4321410000000  0.5019710000000  0.4285410000000 1.0
C      1  0.4991170000000  0.4540800000000  0.4662290000000 1.0
C      1  0.5693070000000  0.4668320000000  0.5329110000000 1.0
C      1  0.4764400000000  0.5492450000000  0.4948480000000 1.0
C      1  0.4960270000000  0.4522080000000  0.4267070000000 1.0
C      1  0.5295710000000  0.4683970000000  0.4608330000000 1.0
C      1  0.5340450000000  0.5801660000000  0.4921580000000 1.0
C      1  0.5355500000000  0.4889880000000  0.5080550000000 1.0
C      1  0.5168470000000  0.4707990000000  0.5380950000000 1.0
C      1  0.5688150000000  0.4593310000000  0.4843630000000 1.0
C      1  0.4995800000000  0.4806140000000  0.5725560000000 1.0
C      1  0.5239810000000  0.5746080000000  0.5207740000000 1.0
C      1  0.4473130000000  0.4692130000000  0.4847400000000 1.0
C      1  0.4385950000000  0.5325870000000  0.4657800000000 1.0
C      1  0.5114190000000  0.5152460000000  0.4755070000000 1.0
C      1  0.5504580000000  0.4472460000000  0.4662970000000 1.0
C      1  0.5585560000000  0.5403370000000  0.4693880000000 1.0
C      1  0.5289300000000  0.5414550000000  0.4845210000000 1.0
C      1  0.4857930000000  0.5371440000000  0.4506460000000 1.0
C      1  0.4941270000000  0.5217210000000  0.5041370000000 1.0
C      1  0.4661130000000  0.4746830000000  0.5713440000000 1.0
C      1  0.4654020000000  0.4507520000000  0.4693450000000 1.0
C      1  0.4339080000000  0.5330230000000  0.5155450000000 1.0
C      1  0.5455180000000  0.4231120000000  0.5053430000000 1.0
C      1  0.5337080000000  0.4779590000000  0.5734030000000 1.0
C      1  0.4682680000000  0.4631920000000  0.4381480000000 1.0
C      1  0.4464120000000  0.5230910000000  0.5677830000000 1.0
C      1  0.4443550000000  0.4442460000000  0.5295870000000 1.0
C      1  0.4664960000000  0.5243310000000  0.4755290000000 1.0
C      1  0.4466640000000  0.4636750000000  0.5521060000000 1.0
C      1  0.5436910000000  0.4557600000000  0.5496610000000 1.0
C      1  0.5130230000000  0.4512120000000  0.5130410000000 1.0
C      1  0.4289630000000  0.4551390000000  0.5085920000000 1.0
C      1  0.5413110000000  0.4219390000000  0.4761320000000 1.0
C      1  0.5370240000000  0.4945290000000  0.4771410000000 1.0
C      1  0.5053000000000  0.4288600000000  0.4457570000000 1.0
C      1  0.4909470000000  0.5101010000000  0.4147220000000 1.0
C      1  0.5259160000000  0.5049160000000  0.5551170000000 1.0
C      1  0.5394190000000  0.5423770000000  0.4434470000000 1.0
END
