TITL C-2622953-3516-4 0.000419495845902563 125000 -677.938189970616 0 0 133 (C1) n - 1
REM
REM in /nfs/bkarasulu/CARBON/AIRSS/Generating-Clusters/AIREBO/with-SteepDescent/Higher-Symm/SD-CG/HFTN-CG
REM
REM
REM
REM
REM
REM ./C.cell (b20cbc046b6831c77cfcea5457e17084)
REM
REM compiler GCC version 9.2.1 20190827 (Red Hat 9.2.1-1)
REM options -cpp -mtune=generic -march=x86-64 -g -O0 -fpre-include=/usr/include/finclude/math-vector-fortran.h
REM seed -1694746601 -888286247 -1961051187 -1340447011 -1755322037 -664066962 192721538 -1667804305 -783462340 1207270528 1399437374 226472611 -1285170599 -2050315256 -823216646 -603351053 1689563791 -231461643 1221465896 369362302 -1950537579 859114226 -2082015887 1414612310 1578312779 -1714075821 -384777677 -723587333 -1101567613 793494145 953160554 -185416539 -2134839647
REM
CELL 1.54180   50.00000   50.00000   50.00000   90.00000   90.00000   90.00000
LATT -1
SFAC C  
C      1  0.4524860000000  0.4563600000000  0.4679870000000 1.0
C      1  0.5527050000000  0.4498510000000  0.4739220000000 1.0
C      1  0.4975350000000  0.4533420000000  0.5558370000000 1.0
C      1  0.4423700000000  0.5403140000000  0.4761870000000 1.0
C      1  0.5417400000000  0.5410330000000  0.4692800000000 1.0
C      1  0.5029560000000  0.5445880000000  0.5524530000000 1.0
C      1  0.4625510000000  0.5372150000000  0.4247160000000 1.0
C      1  0.5868330000000  0.5372940000000  0.4968700000000 1.0
C      1  0.4544150000000  0.5358230000000  0.5730130000000 1.0
C      1  0.4725640000000  0.4659130000000  0.4218790000000 1.0
C      1  0.5868970000000  0.4640350000000  0.5102960000000 1.0
C      1  0.4474230000000  0.4675520000000  0.5643790000000 1.0
C      1  0.4624320000000  0.5232590000000  0.5299010000000 1.0
C      1  0.4791710000000  0.5274030000000  0.4693750000000 1.0
C      1  0.5472000000000  0.5189580000000  0.5120140000000 1.0
C      1  0.4654600000000  0.4796830000000  0.5309410000000 1.0
C      1  0.4952960000000  0.4812050000000  0.4541940000000 1.0
C      1  0.5397490000000  0.4767800000000  0.5046760000000 1.0
C      1  0.4286760000000  0.5191640000000  0.5303770000000 1.0
C      1  0.5135550000000  0.5109950000000  0.4149600000000 1.0
C      1  0.5694260000000  0.5149680000000  0.5374410000000 1.0
C      1  0.4360160000000  0.4870840000000  0.5389920000000 1.0
C      1  0.5028390000000  0.4812860000000  0.4236510000000 1.0
C      1  0.5662940000000  0.4859400000000  0.5238480000000 1.0
C      1  0.4741460000000  0.5606810000000  0.5607550000000 1.0
C      1  0.4591440000000  0.5573880000000  0.4520230000000 1.0
C      1  0.5615130000000  0.5590620000000  0.4902970000000 1.0
C      1  0.4664220000000  0.4398860000000  0.5587050000000 1.0
C      1  0.4702450000000  0.4401330000000  0.4439530000000 1.0
C      1  0.5666730000000  0.4378090000000  0.5024890000000 1.0
C      1  0.5796630000000  0.5284900000000  0.4531020000000 1.0
C      1  0.4954250000000  0.5288720000000  0.5950160000000 1.0
C      1  0.4166570000000  0.5317250000000  0.4457920000000 1.0
C      1  0.6081400000000  0.4490640000000  0.4762630000000 1.0
C      1  0.4729320000000  0.4557400000000  0.6046190000000 1.0
C      1  0.4324820000000  0.4596380000000  0.4181160000000 1.0
C      1  0.5645820000000  0.4807300000000  0.4817750000000 1.0
C      1  0.4830970000000  0.4841010000000  0.5572700000000 1.0
C      1  0.4655300000000  0.4838420000000  0.4568910000000 1.0
C      1  0.5568540000000  0.5138030000000  0.4833560000000 1.0
C      1  0.4828420000000  0.5171540000000  0.5520660000000 1.0
C      1  0.4534200000000  0.5149020000000  0.4564160000000 1.0
C      1  0.4792970000000  0.4113680000000  0.4598320000000 1.0
C      1  0.5473460000000  0.4100420000000  0.5059650000000 1.0
C      1  0.4724450000000  0.4096970000000  0.5442470000000 1.0
C      1  0.4654210000000  0.5864130000000  0.4686110000000 1.0
C      1  0.5418200000000  0.5871140000000  0.4950030000000 1.0
C      1  0.4822270000000  0.5912920000000  0.5477710000000 1.0
C      1  0.4127400000000  0.4933730000000  0.4850720000000 1.0
C      1  0.5577820000000  0.4881210000000  0.4323200000000 1.0
C      1  0.5311330000000  0.4926160000000  0.5836290000000 1.0
C      1  0.4100070000000  0.5183180000000  0.4690830000000 1.0
C      1  0.5603810000000  0.5154450000000  0.4381010000000 1.0
C      1  0.5195210000000  0.5189810000000  0.5864110000000 1.0
C      1  0.5071420000000  0.5423420000000  0.5188540000000 1.0
C      1  0.4782410000000  0.5550590000000  0.5115480000000 1.0
C      1  0.5119240000000  0.5435630000000  0.4854280000000 1.0
C      1  0.5075500000000  0.4423140000000  0.5252730000000 1.0
C      1  0.4840160000000  0.4446850000000  0.5031840000000 1.0
C      1  0.5078390000000  0.4424320000000  0.4803460000000 1.0
C      1  0.5185460000000  0.4746930000000  0.4781460000000 1.0
C      1  0.5249970000000  0.4891140000000  0.5327290000000 1.0
C      1  0.4725380000000  0.4770640000000  0.4979840000000 1.0
C      1  0.5096950000000  0.5171620000000  0.4641140000000 1.0
C      1  0.5166800000000  0.5123580000000  0.5137230000000 1.0
C      1  0.4760650000000  0.5231480000000  0.5009400000000 1.0
C      1  0.4353910000000  0.5684060000000  0.4871890000000 1.0
C      1  0.5447180000000  0.5702340000000  0.4520960000000 1.0
C      1  0.5175840000000  0.5719420000000  0.5664270000000 1.0
C      1  0.4380740000000  0.4284700000000  0.4807550000000 1.0
C      1  0.5470710000000  0.4212850000000  0.4563150000000 1.0
C      1  0.5172680000000  0.4277270000000  0.5687310000000 1.0
C      1  0.5535160000000  0.4836710000000  0.4046380000000 1.0
C      1  0.5591710000000  0.4992520000000  0.5822350000000 1.0
C      1  0.3939160000000  0.4906480000000  0.5060170000000 1.0
C      1  0.5338730000000  0.4996760000000  0.3934130000000 1.0
C      1  0.5609570000000  0.5202790000000  0.5644700000000 1.0
C      1  0.3973190000000  0.5061340000000  0.5286170000000 1.0
C      1  0.4816480000000  0.4008150000000  0.5127420000000 1.0
C      1  0.5003480000000  0.3990140000000  0.4835070000000 1.0
C      1  0.5161630000000  0.3994140000000  0.5143740000000 1.0
C      1  0.4861270000000  0.5936200000000  0.5182820000000 1.0
C      1  0.4898780000000  0.5996130000000  0.4824050000000 1.0
C      1  0.5158760000000  0.5952260000000  0.5015580000000 1.0
C      1  0.4917260000000  0.5572670000000  0.4617560000000 1.0
C      1  0.5546660000000  0.5485740000000  0.5216820000000 1.0
C      1  0.4531320000000  0.5556370000000  0.5345020000000 1.0
C      1  0.5024950000000  0.4499140000000  0.4484610000000 1.0
C      1  0.5408160000000  0.4476900000000  0.5222580000000 1.0
C      1  0.4592250000000  0.4473280000000  0.5263100000000 1.0
C      1  0.4258690000000  0.4933220000000  0.5708400000000 1.0
C      1  0.4787420000000  0.4948790000000  0.4044590000000 1.0
C      1  0.5994080000000  0.4935620000000  0.5225600000000 1.0
C      1  0.4301710000000  0.5240670000000  0.5639890000000 1.0
C      1  0.4830630000000  0.5250660000000  0.4101590000000 1.0
C      1  0.5951340000000  0.5253330000000  0.5216560000000 1.0
C      1  0.5800700000000  0.5552790000000  0.4620320000000 1.0
C      1  0.4876410000000  0.5558130000000  0.5915940000000 1.0
C      1  0.4259080000000  0.5591280000000  0.4450120000000 1.0
C      1  0.5937400000000  0.4291900000000  0.4838670000000 1.0
C      1  0.4718620000000  0.4339090000000  0.5909370000000 1.0
C      1  0.4427880000000  0.4371580000000  0.4245150000000 1.0
C      1  0.5045620000000  0.4143820000000  0.5421900000000 1.0
C      1  0.4666810000000  0.4189990000000  0.4891900000000 1.0
C      1  0.5275670000000  0.4174680000000  0.4808990000000 1.0
C      1  0.5052170000000  0.5958850000000  0.5626420000000 1.0
C      1  0.4613910000000  0.5798440000000  0.5017280000000 1.0
C      1  0.5503680000000  0.5920180000000  0.4674800000000 1.0
C      1  0.4673720000000  0.4814520000000  0.5875480000000 1.0
C      1  0.4467860000000  0.4870450000000  0.4286150000000 1.0
C      1  0.5974480000000  0.4793410000000  0.4818240000000 1.0
C      1  0.4726850000000  0.5117640000000  0.5840620000000 1.0
C      1  0.4372840000000  0.5167350000000  0.4269800000000 1.0
C      1  0.5901010000000  0.5107080000000  0.4767400000000 1.0
C      1  0.4398790000000  0.4794960000000  0.4885090000000 1.0
C      1  0.5399980000000  0.4723700000000  0.4518400000000 1.0
C      1  0.5224260000000  0.4761680000000  0.5598970000000 1.0
C      1  0.4221300000000  0.5297690000000  0.4987140000000 1.0
C      1  0.5305270000000  0.5275830000000  0.4393460000000 1.0
C      1  0.5338280000000  0.5374960000000  0.5648490000000 1.0
C      1  0.4289990000000  0.5783860000000  0.5439250000000 1.0
C      1  0.5067930000000  0.5706860000000  0.4386550000000 1.0
C      1  0.5642380000000  0.5777960000000  0.5596030000000 1.0
C      1  0.4274710000000  0.4377450000000  0.5338140000000 1.0
C      1  0.5089840000000  0.4411480000000  0.4162500000000 1.0
C      1  0.5660120000000  0.4366500000000  0.5433220000000 1.0
C      1  0.5531170000000  0.5557530000000  0.5478020000000 1.0
C      1  0.4216730000000  0.5536870000000  0.5217350000000 1.0
C      1  0.5207910000000  0.5552610000000  0.4241740000000 1.0
C      1  0.5372430000000  0.4491280000000  0.5560530000000 1.0
C      1  0.4346390000000  0.4509560000000  0.5031010000000 1.0
C      1  0.5344980000000  0.4434690000000  0.4389350000000 1.0
C      1  0.4976180000000  0.4987380000000  0.4900230000000 1.0
END
