TITL C-2622954-8726-839 4.36844986499109e-05 125000 -107.158753651453 0 0 24 (C1) n - 1
REM
REM in /nfs/bkarasulu/CARBON/AIRSS/Generating-Clusters/AIREBO/with-SteepDescent/Higher-Symm/SD-CG/HFTN-CG
REM
REM
REM
REM
REM
REM ./C.cell (b20cbc046b6831c77cfcea5457e17084)
REM
REM compiler GCC version 9.2.1 20190827 (Red Hat 9.2.1-1)
REM options -cpp -mtune=generic -march=x86-64 -g -O0 -fpre-include=/usr/include/finclude/math-vector-fortran.h
REM seed 1876640289 502181638 -433055980 1328279661 -1397964663 79712472 -1875468076 823396760 -105238529 -1554399143 1284127846 -1607153700 583145744 1907381454 -909095874 583722511 1611250636 -1134371673 -1520530172 -1512082909 -93159143 1739335559 1933378673 982565984 1869335096 137669122 -909945874 1561179601 1082151890 -880285967 -434234648 -779537141 -1827126489
REM
CELL 1.54180   50.00000   50.00000   50.00000   90.00000   90.00000   90.00000
LATT -1
SFAC C  
C      1  0.5240660000000  0.4571000000000  0.4831840000000 1.0
C      1  0.5514150000000  0.4871230000000  0.5363420000000 1.0
C      1  0.5456070000000  0.4838770000000  0.4397010000000 1.0
C      1  0.5361400000000  0.5403130000000  0.5335250000000 1.0
C      1  0.5386400000000  0.5403500000000  0.4714920000000 1.0
C      1  0.4827370000000  0.5573450000000  0.5325170000000 1.0
C      1  0.4569420000000  0.5279990000000  0.4783050000000 1.0
C      1  0.4453990000000  0.4858140000000  0.5278470000000 1.0
C      1  0.4603190000000  0.4669280000000  0.4516720000000 1.0
C      1  0.4791870000000  0.4509740000000  0.5311110000000 1.0
C      1  0.4835070000000  0.5339490000000  0.5223910000000 1.0
C      1  0.4773110000000  0.5167080000000  0.4943370000000 1.0
C      1  0.4657470000000  0.4988890000000  0.5197560000000 1.0
C      1  0.4780890000000  0.4822620000000  0.4616870000000 1.0
C      1  0.4933280000000  0.4702130000000  0.5221460000000 1.0
C      1  0.5127700000000  0.4791030000000  0.4968180000000 1.0
C      1  0.5285650000000  0.4875930000000  0.5250010000000 1.0
C      1  0.5267350000000  0.4920050000000  0.4548310000000 1.0
C      1  0.5218350000000  0.5256630000000  0.5154270000000 1.0
C      1  0.5230000000000  0.5256610000000  0.4883960000000 1.0
C      1  0.4945790000000  0.5262810000000  0.4529440000000 1.0
C      1  0.4981330000000  0.5051470000000  0.5584650000000 1.0
C      1  0.5016490000000  0.5027850000000  0.4750970000000 1.0
C      1  0.4986390000000  0.5036390000000  0.5270070000000 1.0
END
