TITL C-2622964-2985-360 -0.000237755368898435 125000 -349.051327301876 0 0 68 (C1) n - 1
REM
REM in /nfs/bkarasulu/CARBON/AIRSS/Generating-Clusters/AIREBO/with-SteepDescent/Higher-Symm/SD-CG/HFTN-CG
REM
REM
REM
REM
REM
REM ./C.cell (b20cbc046b6831c77cfcea5457e17084)
REM
REM compiler GCC version 9.2.1 20190827 (Red Hat 9.2.1-1)
REM options -cpp -mtune=generic -march=x86-64 -g -O0 -fpre-include=/usr/include/finclude/math-vector-fortran.h
REM seed -94462866 878928347 548217698 633518651 -1520061479 -1047692467 948684738 -62086001 2095676086 -1516011879 -1453779742 -794691962 -1171703892 -122365345 1686809861 259459704 -570432787 -73854383 1478492822 1671427831 -1237184401 -972862831 -1614467233 724269914 -1545022434 -615794301 -992608253 -264341371 722846928 789074747 -1242813253 2091391552 -812953495
REM
CELL 1.54180   50.00000   50.00000   50.00000   90.00000   90.00000   90.00000
LATT -1
SFAC C  
C      1  0.5250200000000  0.4770210000000  0.5537970000000 1.0
C      1  0.4977050000000  0.4614230000000  0.5408730000000 1.0
C      1  0.4740610000000  0.4800370000000  0.5454280000000 1.0
C      1  0.4703110000000  0.5105380000000  0.5579970000000 1.0
C      1  0.4820280000000  0.5422440000000  0.5542890000000 1.0
C      1  0.5110410000000  0.5292970000000  0.5423520000000 1.0
C      1  0.5342460000000  0.5050400000000  0.5368890000000 1.0
C      1  0.4224210000000  0.4952820000000  0.5427150000000 1.0
C      1  0.4422960000000  0.5450100000000  0.5100200000000 1.0
C      1  0.5215630000000  0.5773550000000  0.5380670000000 1.0
C      1  0.5583230000000  0.5335860000000  0.5227100000000 1.0
C      1  0.5657390000000  0.4681740000000  0.5175090000000 1.0
C      1  0.5127560000000  0.4291850000000  0.5208240000000 1.0
C      1  0.4618980000000  0.4420980000000  0.5295700000000 1.0
C      1  0.5342540000000  0.5009040000000  0.5032570000000 1.0
C      1  0.5219220000000  0.4726640000000  0.4932330000000 1.0
C      1  0.4950520000000  0.4662090000000  0.5082530000000 1.0
C      1  0.4619310000000  0.4871780000000  0.5149100000000 1.0
C      1  0.4755760000000  0.5147890000000  0.5260050000000 1.0
C      1  0.4866760000000  0.5375590000000  0.5086630000000 1.0
C      1  0.5171960000000  0.5277510000000  0.5088980000000 1.0
C      1  0.4831600000000  0.4145120000000  0.5289170000000 1.0
C      1  0.4379640000000  0.4649530000000  0.5375220000000 1.0
C      1  0.4241790000000  0.5238100000000  0.5294820000000 1.0
C      1  0.4956390000000  0.5870670000000  0.5204330000000 1.0
C      1  0.5442930000000  0.5618590000000  0.5363470000000 1.0
C      1  0.5720520000000  0.5017180000000  0.5221000000000 1.0
C      1  0.5455700000000  0.4410040000000  0.5209850000000 1.0
C      1  0.4394260000000  0.4673660000000  0.5038270000000 1.0
C      1  0.4177610000000  0.5134900000000  0.4990790000000 1.0
C      1  0.4890790000000  0.5692400000000  0.4972280000000 1.0
C      1  0.5441690000000  0.5652230000000  0.4868490000000 1.0
C      1  0.5875050000000  0.5187800000000  0.5008640000000 1.0
C      1  0.5383290000000  0.4390170000000  0.4791390000000 1.0
C      1  0.4782700000000  0.4309300000000  0.5008270000000 1.0
C      1  0.4634630000000  0.5489780000000  0.4874750000000 1.0
C      1  0.5168510000000  0.5556050000000  0.4898360000000 1.0
C      1  0.5635520000000  0.5393760000000  0.4895970000000 1.0
C      1  0.5528270000000  0.4640580000000  0.4891820000000 1.0
C      1  0.5100990000000  0.4346950000000  0.4890730000000 1.0
C      1  0.4518660000000  0.4438290000000  0.4865070000000 1.0
C      1  0.4335520000000  0.4940990000000  0.4877410000000 1.0
C      1  0.5452530000000  0.5241940000000  0.4680690000000 1.0
C      1  0.5501020000000  0.4931030000000  0.4740060000000 1.0
C      1  0.5025690000000  0.4598860000000  0.4695630000000 1.0
C      1  0.4737420000000  0.4684890000000  0.4817020000000 1.0
C      1  0.4603660000000  0.4987110000000  0.4736200000000 1.0
C      1  0.4613300000000  0.5308090000000  0.4624190000000 1.0
C      1  0.5134200000000  0.5328720000000  0.4694160000000 1.0
C      1  0.5038820000000  0.5425090000000  0.4398430000000 1.0
C      1  0.5332060000000  0.5257130000000  0.4360470000000 1.0
C      1  0.5341020000000  0.4930580000000  0.4456280000000 1.0
C      1  0.5141630000000  0.4656450000000  0.4423130000000 1.0
C      1  0.4939720000000  0.4731600000000  0.4205350000000 1.0
C      1  0.4772560000000  0.5027270000000  0.4222770000000 1.0
C      1  0.4760980000000  0.5321350000000  0.4377350000000 1.0
C      1  0.4825640000000  0.4347500000000  0.5555500000000 1.0
C      1  0.4465150000000  0.4865040000000  0.5624100000000 1.0
C      1  0.4509090000000  0.5425320000000  0.5404780000000 1.0
C      1  0.4906510000000  0.5731490000000  0.5484530000000 1.0
C      1  0.5429940000000  0.5338790000000  0.5530590000000 1.0
C      1  0.5582670000000  0.4830790000000  0.5467440000000 1.0
C      1  0.5264850000000  0.4436950000000  0.5472210000000 1.0
C      1  0.4909990000000  0.4985220000000  0.5012750000000 1.0
C      1  0.5123960000000  0.4995770000000  0.4126990000000 1.0
C      1  0.5023480000000  0.5031150000000  0.4452200000000 1.0
C      1  0.4926520000000  0.5089810000000  0.4732560000000 1.0
C      1  0.4826710000000  0.5453660000000  0.5851210000000 1.0
END
