TITL C-2622965-4321-437 261.852164839694 125000 -973.622945663138 0 0 175 (C1) n - 1
REM
REM in /nfs/bkarasulu/CARBON/AIRSS/Generating-Clusters/AIREBO/with-SteepDescent/Higher-Symm/SD-CG/HFTN-CG
REM
REM
REM
REM
REM
REM ./C.cell (b20cbc046b6831c77cfcea5457e17084)
REM
REM compiler GCC version 9.2.1 20190827 (Red Hat 9.2.1-1)
REM options -cpp -mtune=generic -march=x86-64 -g -O0 -fpre-include=/usr/include/finclude/math-vector-fortran.h
REM seed 1519487612 755381015 2096830956 -883244128 1407143201 -2140282532 169532425 1998373947 1136866908 -819039531 -742844493 537595215 836515297 -1612066550 -646362570 30221537 217246767 1387545200 -784002343 -394138698 983896213 386133156 88372561 916320671 1854129674 -213423375 1661254131 -1646854467 1336512028 1703656322 474880653 1884921286 473758339
REM
CELL 1.54180   50.00000   50.00000   50.00000   90.00000   90.00000   90.00000
LATT -1
SFAC C  
C      1  0.4893750000000  0.4788650000000  0.4193310000000 1.0
C      1  0.4469080000000  0.4841060000000  0.5603020000000 1.0
C      1  0.5708060000000  0.4874190000000  0.5259200000000 1.0
C      1  0.4726870000000  0.5075080000000  0.4159590000000 1.0
C      1  0.4335400000000  0.5135710000000  0.5537510000000 1.0
C      1  0.5778560000000  0.5162700000000  0.5179590000000 1.0
C      1  0.5206280000000  0.4915140000000  0.4194780000000 1.0
C      1  0.5477190000000  0.4849310000000  0.5477730000000 1.0
C      1  0.4242800000000  0.4765400000000  0.5089860000000 1.0
C      1  0.5032670000000  0.5144670000000  0.4290090000000 1.0
C      1  0.5510100000000  0.5155790000000  0.5602390000000 1.0
C      1  0.4298560000000  0.5190880000000  0.5204040000000 1.0
C      1  0.4437250000000  0.5008770000000  0.5897110000000 1.0
C      1  0.6122840000000  0.4812150000000  0.5034650000000 1.0
C      1  0.4533010000000  0.4695280000000  0.4042190000000 1.0
C      1  0.4477660000000  0.5321330000000  0.5784980000000 1.0
C      1  0.6025470000000  0.5110990000000  0.4994070000000 1.0
C      1  0.4420080000000  0.4943190000000  0.4223800000000 1.0
C      1  0.5605710000000  0.4769600000000  0.5998900000000 1.0
C      1  0.3975620000000  0.4816230000000  0.4919170000000 1.0
C      1  0.5485680000000  0.4838460000000  0.4052090000000 1.0
C      1  0.5574660000000  0.5070970000000  0.5925260000000 1.0
C      1  0.4098230000000  0.5106990000000  0.4942410000000 1.0
C      1  0.5554460000000  0.5092930000000  0.3901110000000 1.0
C      1  0.4112920000000  0.5603040000000  0.4878920000000 1.0
C      1  0.5472940000000  0.5586630000000  0.5838280000000 1.0
C      1  0.5418110000000  0.5539390000000  0.4383780000000 1.0
C      1  0.4091870000000  0.4416760000000  0.4965070000000 1.0
C      1  0.5305150000000  0.4431080000000  0.5797450000000 1.0
C      1  0.5515850000000  0.4446530000000  0.4236410000000 1.0
C      1  0.5905520000000  0.5583690000000  0.4838420000000 1.0
C      1  0.4655960000000  0.5594400000000  0.5820070000000 1.0
C      1  0.4470740000000  0.5627960000000  0.4344730000000 1.0
C      1  0.5918420000000  0.4429060000000  0.4971980000000 1.0
C      1  0.4627360000000  0.4434320000000  0.5774370000000 1.0
C      1  0.4479830000000  0.4416990000000  0.4217480000000 1.0
C      1  0.5404400000000  0.5777960000000  0.4611490000000 1.0
C      1  0.4344570000000  0.5804080000000  0.4877200000000 1.0
C      1  0.5500560000000  0.5833190000000  0.5630580000000 1.0
C      1  0.5381490000000  0.4234040000000  0.4372030000000 1.0
C      1  0.4325500000000  0.4250330000000  0.5053130000000 1.0
C      1  0.5169200000000  0.4287930000000  0.5541830000000 1.0
C      1  0.4601000000000  0.5779790000000  0.4614170000000 1.0
C      1  0.5665780000000  0.5801910000000  0.4835960000000 1.0
C      1  0.4600200000000  0.5777200000000  0.5591390000000 1.0
C      1  0.4695620000000  0.4235620000000  0.4351720000000 1.0
C      1  0.5723230000000  0.4242940000000  0.5058800000000 1.0
C      1  0.4829020000000  0.4260510000000  0.5562200000000 1.0
C      1  0.4912460000000  0.5662440000000  0.5520960000000 1.0
C      1  0.5415450000000  0.5662870000000  0.4992420000000 1.0
C      1  0.4850930000000  0.5635270000000  0.4794040000000 1.0
C      1  0.4726870000000  0.4360300000000  0.5253560000000 1.0
C      1  0.5443230000000  0.4336070000000  0.4964700000000 1.0
C      1  0.4773290000000  0.4333860000000  0.4638490000000 1.0
C      1  0.5253790000000  0.5646030000000  0.5510440000000 1.0
C      1  0.4625320000000  0.5718410000000  0.5008180000000 1.0
C      1  0.5134930000000  0.5735730000000  0.4814610000000 1.0
C      1  0.5253220000000  0.4381300000000  0.5235130000000 1.0
C      1  0.4629980000000  0.4269480000000  0.4940460000000 1.0
C      1  0.5327400000000  0.4283750000000  0.4681700000000 1.0
C      1  0.5636510000000  0.4770920000000  0.4773660000000 1.0
C      1  0.4515190000000  0.4741660000000  0.4668510000000 1.0
C      1  0.4864610000000  0.4819820000000  0.5641750000000 1.0
C      1  0.5626480000000  0.5171360000000  0.4682570000000 1.0
C      1  0.4520280000000  0.5103330000000  0.4497980000000 1.0
C      1  0.4858700000000  0.5285760000000  0.5669190000000 1.0
C      1  0.4472670000000  0.4789460000000  0.4923990000000 1.0
C      1  0.5506080000000  0.4713280000000  0.4533640000000 1.0
C      1  0.5121960000000  0.4754300000000  0.5652930000000 1.0
C      1  0.4401190000000  0.5237850000000  0.4719470000000 1.0
C      1  0.5492920000000  0.5152450000000  0.4451330000000 1.0
C      1  0.5117040000000  0.5224170000000  0.5649370000000 1.0
C      1  0.4881870000000  0.6162950000000  0.4950570000000 1.0
C      1  0.4879340000000  0.5952510000000  0.5365330000000 1.0
C      1  0.5294450000000  0.5942630000000  0.5111450000000 1.0
C      1  0.4894840000000  0.4053550000000  0.4732740000000 1.0
C      1  0.4860450000000  0.4072420000000  0.5201050000000 1.0
C      1  0.5252600000000  0.3924420000000  0.4999790000000 1.0
C      1  0.5139820000000  0.6068170000000  0.4888110000000 1.0
C      1  0.5170460000000  0.5912600000000  0.5351950000000 1.0
C      1  0.4751610000000  0.5983550000000  0.5124350000000 1.0
C      1  0.5169510000000  0.4033050000000  0.4752790000000 1.0
C      1  0.5135970000000  0.4075500000000  0.5207410000000 1.0
C      1  0.4749170000000  0.3934730000000  0.4961130000000 1.0
C      1  0.4036120000000  0.5476770000000  0.5122030000000 1.0
C      1  0.5713230000000  0.5495840000000  0.5647100000000 1.0
C      1  0.5197140000000  0.5470780000000  0.4133420000000 1.0
C      1  0.3947020000000  0.4536180000000  0.5217690000000 1.0
C      1  0.5607960000000  0.4571980000000  0.5733450000000 1.0
C      1  0.5290940000000  0.4577960000000  0.4011550000000 1.0
C      1  0.5993720000000  0.5490580000000  0.5117280000000 1.0
C      1  0.4071400000000  0.5422340000000  0.5619280000000 1.0
C      1  0.4672480000000  0.5554220000000  0.4148310000000 1.0
C      1  0.6001300000000  0.4605950000000  0.5252240000000 1.0
C      1  0.4305720000000  0.4506080000000  0.5721620000000 1.0
C      1  0.4744710000000  0.4426690000000  0.4004470000000 1.0
C      1  0.4607420000000  0.5244450000000  0.4955960000000 1.0
C      1  0.5199080000000  0.5156690000000  0.5351860000000 1.0
C      1  0.5203630000000  0.5098780000000  0.4751700000000 1.0
C      1  0.4679990000000  0.4952610000000  0.5044790000000 1.0
C      1  0.5193320000000  0.4892740000000  0.5196580000000 1.0
C      1  0.5071800000000  0.4809020000000  0.4723550000000 1.0
C      1  0.5457200000000  0.5181320000000  0.4930520000000 1.0
C      1  0.4901630000000  0.5170800000000  0.5290020000000 1.0
C      1  0.4788170000000  0.5152450000000  0.4681440000000 1.0
C      1  0.5417990000000  0.4868580000000  0.4994390000000 1.0
C      1  0.4771970000000  0.4899700000000  0.5355580000000 1.0
C      1  0.4783630000000  0.4823090000000  0.4596150000000 1.0
C      1  0.5075810000000  0.4539270000000  0.5985880000000 1.0
C      1  0.5804000000000  0.4502320000000  0.4377090000000 1.0
C      1  0.4071180000000  0.4503570000000  0.4688960000000 1.0
C      1  0.5230980000000  0.5463560000000  0.5947640000000 1.0
C      1  0.5743130000000  0.5444030000000  0.4351930000000 1.0
C      1  0.4046890000000  0.5501800000000  0.4629320000000 1.0
C      1  0.4793410000000  0.4588650000000  0.5958570000000 1.0
C      1  0.4209880000000  0.4407180000000  0.4393860000000 1.0
C      1  0.5907600000000  0.4505320000000  0.4648170000000 1.0
C      1  0.4944230000000  0.5520810000000  0.5978930000000 1.0
C      1  0.4239420000000  0.5465980000000  0.4392300000000 1.0
C      1  0.5919040000000  0.5429110000000  0.4599480000000 1.0
C      1  0.5277700000000  0.4805740000000  0.5931770000000 1.0
C      1  0.5685610000000  0.4804910000000  0.4284900000000 1.0
C      1  0.4026130000000  0.4827340000000  0.4593200000000 1.0
C      1  0.5258360000000  0.5143830000000  0.5912460000000 1.0
C      1  0.5700230000000  0.5137010000000  0.4205170000000 1.0
C      1  0.4088510000000  0.5165040000000  0.4607510000000 1.0
C      1  0.4741830000000  0.4904770000000  0.5916800000000 1.0
C      1  0.4306950000000  0.4719360000000  0.4453490000000 1.0
C      1  0.5964160000000  0.4803890000000  0.4753680000000 1.0
C      1  0.4749780000000  0.5240970000000  0.5972360000000 1.0
C      1  0.4191920000000  0.5190470000000  0.4272850000000 1.0
C      1  0.5930200000000  0.5125130000000  0.4686510000000 1.0
C      1  0.4355520000000  0.5956220000000  0.5180370000000 1.0
C      1  0.5681760000000  0.5956830000000  0.5449810000000 1.0
C      1  0.5144860000000  0.5958620000000  0.4485750000000 1.0
C      1  0.4323370000000  0.4193960000000  0.5332710000000 1.0
C      1  0.5507890000000  0.4256200000000  0.5513110000000 1.0
C      1  0.5157320000000  0.4141030000000  0.4226400000000 1.0
C      1  0.5715260000000  0.5854920000000  0.5169240000000 1.0
C      1  0.4383450000000  0.5804220000000  0.5415980000000 1.0
C      1  0.4896940000000  0.5827340000000  0.4447790000000 1.0
C      1  0.5692030000000  0.4122440000000  0.5317080000000 1.0
C      1  0.4532360000000  0.4108870000000  0.5492130000000 1.0
C      1  0.4872090000000  0.4060290000000  0.4243230000000 1.0
C      1  0.4320930000000  0.4593370000000  0.5332180000000 1.0
C      1  0.5236180000000  0.4661320000000  0.5388420000000 1.0
C      1  0.5241610000000  0.4580410000000  0.4582230000000 1.0
C      1  0.4505430000000  0.5460770000000  0.5197690000000 1.0
C      1  0.5386780000000  0.5390670000000  0.5409350000000 1.0
C      1  0.5201500000000  0.5301700000000  0.4494570000000 1.0
C      1  0.5565610000000  0.4603560000000  0.5126350000000 1.0
C      1  0.4622110000000  0.4616440000000  0.5398220000000 1.0
C      1  0.4935510000000  0.4560280000000  0.4441800000000 1.0
C      1  0.5556710000000  0.5417890000000  0.5143780000000 1.0
C      1  0.4737840000000  0.5412880000000  0.5400560000000 1.0
C      1  0.4914470000000  0.5415980000000  0.4598800000000 1.0
C      1  0.4834380000000  0.5321300000000  0.3994690000000 1.0
C      1  0.4010030000000  0.5104500000000  0.5631150000000 1.0
C      1  0.6032940000000  0.5257720000000  0.5364870000000 1.0
C      1  0.4821260000000  0.4731610000000  0.3865510000000 1.0
C      1  0.4144550000000  0.4791850000000  0.5628610000000 1.0
C      1  0.5997920000000  0.4911980000000  0.5400990000000 1.0
C      1  0.5135950000000  0.5218380000000  0.3912890000000 1.0
C      1  0.5845940000000  0.5190700000000  0.5642800000000 1.0
C      1  0.3973820000000  0.5194640000000  0.5305310000000 1.0
C      1  0.5126440000000  0.4877950000000  0.3881580000000 1.0
C      1  0.5770730000000  0.4858600000000  0.5649110000000 1.0
C      1  0.4012570000000  0.4853940000000  0.5321360000000 1.0
C      1  0.5715370000000  0.4508270000000  0.5416980000000 1.0
C      1  0.4226000000000  0.5544840000000  0.5372610000000 1.0
C      1  0.4108380000000  0.4382770000000  0.5474780000000 1.0
C      1  0.5770270000000  0.5579580000000  0.5353200000000 1.0
C      1  0.4949490000000  0.5546030000000  0.4302770000000 1.0
C      1  0.5028320000000  0.4415950000000  0.4148140000000 1.0
C      1  0.4969480000000  0.4863100000000  0.5010090000000 1.0
END
