TITL C-2622966-9038-580 -0.000269315337472071 125000 -463.38152264678 0 0 81 (C1) n - 1
REM
REM in /nfs/bkarasulu/CARBON/AIRSS/Generating-Clusters/AIREBO/with-SteepDescent/Higher-Symm/SD-CG/HFTN-CG
REM
REM
REM
REM
REM
REM ./C.cell (b20cbc046b6831c77cfcea5457e17084)
REM
REM compiler GCC version 9.2.1 20190827 (Red Hat 9.2.1-1)
REM options -cpp -mtune=generic -march=x86-64 -g -O0 -fpre-include=/usr/include/finclude/math-vector-fortran.h
REM seed -1545712647 -1297055847 221380539 2079317842 1431837667 -1489725285 712540515 -662512274 845546126 1198889334 -557170261 -309501741 826274652 -578106644 -1115460359 -1998400422 -953363441 2088968786 1823999854 1050193385 1706544444 862064493 273729367 616248891 1993824334 731211526 1869665737 158120805 2110025913 -786862171 -124219055 -108140445 2102082488
REM
CELL 1.54180   50.00000   50.00000   50.00000   90.00000   90.00000   90.00000
LATT -1
SFAC C  
C      1  0.5171740000000  0.5287250000000  0.4917130000000 1.0
C      1  0.5151610000000  0.4737230000000  0.4927070000000 1.0
C      1  0.4688280000000  0.5024530000000  0.4909470000000 1.0
C      1  0.4861950000000  0.5288990000000  0.4945920000000 1.0
C      1  0.4836160000000  0.4751050000000  0.4888160000000 1.0
C      1  0.5315770000000  0.5007560000000  0.4911750000000 1.0
C      1  0.5278070000000  0.4607030000000  0.4653880000000 1.0
C      1  0.4508920000000  0.5054880000000  0.4631410000000 1.0
C      1  0.5221260000000  0.5426650000000  0.4628740000000 1.0
C      1  0.4742870000000  0.4630250000000  0.4607540000000 1.0
C      1  0.5488310000000  0.4972880000000  0.4640740000000 1.0
C      1  0.4724980000000  0.5319100000000  0.4637210000000 1.0
C      1  0.4894280000000  0.5218400000000  0.5714430000000 1.0
C      1  0.5323540000000  0.4900870000000  0.5690650000000 1.0
C      1  0.4832290000000  0.4705310000000  0.5757700000000 1.0
C      1  0.5233330000000  0.5193460000000  0.5677490000000 1.0
C      1  0.4721270000000  0.4983150000000  0.5826800000000 1.0
C      1  0.5093810000000  0.4715060000000  0.5666310000000 1.0
C      1  0.5294680000000  0.4995340000000  0.4407630000000 1.0
C      1  0.4890370000000  0.4741620000000  0.4373050000000 1.0
C      1  0.4872190000000  0.5211150000000  0.4375240000000 1.0
C      1  0.4782710000000  0.4973630000000  0.4256400000000 1.0
C      1  0.5164730000000  0.4745960000000  0.4407330000000 1.0
C      1  0.5147200000000  0.5230150000000  0.4404060000000 1.0
C      1  0.4724770000000  0.5284980000000  0.5429840000000 1.0
C      1  0.5319650000000  0.5019910000000  0.5309370000000 1.0
C      1  0.4853990000000  0.4814620000000  0.5278180000000 1.0
C      1  0.5270110000000  0.5320000000000  0.5364550000000 1.0
C      1  0.4636770000000  0.5007290000000  0.5353630000000 1.0
C      1  0.5141870000000  0.4777890000000  0.5356300000000 1.0
C      1  0.5855570000000  0.4790000000000  0.4856230000000 1.0
C      1  0.4326190000000  0.4414040000000  0.4717750000000 1.0
C      1  0.4761350000000  0.5870910000000  0.4730720000000 1.0
C      1  0.4165510000000  0.4796690000000  0.4801280000000 1.0
C      1  0.5647710000000  0.4382560000000  0.4843430000000 1.0
C      1  0.5156460000000  0.5797580000000  0.4760400000000 1.0
C      1  0.4502380000000  0.4859240000000  0.5597790000000 1.0
C      1  0.5126370000000  0.5514780000000  0.5587770000000 1.0
C      1  0.5548490000000  0.4496120000000  0.5567570000000 1.0
C      1  0.5563720000000  0.4783170000000  0.5588110000000 1.0
C      1  0.4804180000000  0.5542170000000  0.5637570000000 1.0
C      1  0.4602630000000  0.4532860000000  0.5635080000000 1.0
C      1  0.5420600000000  0.5768010000000  0.4688970000000 1.0
C      1  0.5441550000000  0.4199590000000  0.4806260000000 1.0
C      1  0.4018080000000  0.5042990000000  0.4722760000000 1.0
C      1  0.4478440000000  0.5816870000000  0.4798390000000 1.0
C      1  0.4543040000000  0.4216360000000  0.4723470000000 1.0
C      1  0.5972660000000  0.5035420000000  0.4729410000000 1.0
C      1  0.4812990000000  0.5794690000000  0.5016420000000 1.0
C      1  0.5830060000000  0.4705540000000  0.5129010000000 1.0
C      1  0.4376180000000  0.4463850000000  0.5005940000000 1.0
C      1  0.5107820000000  0.5817840000000  0.5040850000000 1.0
C      1  0.4205150000000  0.4695910000000  0.5061310000000 1.0
C      1  0.5711610000000  0.4443480000000  0.5115510000000 1.0
C      1  0.4733840000000  0.4552790000000  0.5144920000000 1.0
C      1  0.4708310000000  0.5444180000000  0.5163350000000 1.0
C      1  0.5579820000000  0.5017290000000  0.5115980000000 1.0
C      1  0.5234300000000  0.4528490000000  0.5180160000000 1.0
C      1  0.5341980000000  0.5491410000000  0.5106850000000 1.0
C      1  0.4417980000000  0.5028440000000  0.5115730000000 1.0
C      1  0.4361340000000  0.5533980000000  0.4734790000000 1.0
C      1  0.5696900000000  0.5210540000000  0.4644600000000 1.0
C      1  0.4850530000000  0.4333950000000  0.4679110000000 1.0
C      1  0.5558300000000  0.5469120000000  0.4613810000000 1.0
C      1  0.4262440000000  0.5269400000000  0.4680660000000 1.0
C      1  0.5144430000000  0.4318160000000  0.4700760000000 1.0
C      1  0.5499950000000  0.4414740000000  0.5300220000000 1.0
C      1  0.4282110000000  0.4824960000000  0.5352040000000 1.0
C      1  0.5209510000000  0.5712080000000  0.5328250000000 1.0
C      1  0.4450120000000  0.4531200000000  0.5331190000000 1.0
C      1  0.5718280000000  0.4872960000000  0.5365990000000 1.0
C      1  0.4870920000000  0.5688760000000  0.5334770000000 1.0
C      1  0.5213180000000  0.4252710000000  0.5022430000000 1.0
C      1  0.4186450000000  0.5153030000000  0.4980240000000 1.0
C      1  0.5555370000000  0.5607610000000  0.4924720000000 1.0
C      1  0.4732520000000  0.4284870000000  0.4982560000000 1.0
C      1  0.5787710000000  0.5168680000000  0.4963200000000 1.0
C      1  0.4472300000000  0.5586050000000  0.5029090000000 1.0
C      1  0.4926450000000  0.5597000000000  0.4610500000000 1.0
C      1  0.5614360000000  0.4657350000000  0.4674010000000 1.0
C      1  0.4424340000000  0.4723400000000  0.4603060000000 1.0
END
