TITL C-2622967-6265-708 2.90816716139268e-06 125000 -152.730911117648 0 0 33 (C1) n - 1
REM
REM in /nfs/bkarasulu/CARBON/AIRSS/Generating-Clusters/AIREBO/with-SteepDescent/Higher-Symm/SD-CG/HFTN-CG
REM
REM
REM
REM
REM
REM ./C.cell (b20cbc046b6831c77cfcea5457e17084)
REM
REM compiler GCC version 9.2.1 20190827 (Red Hat 9.2.1-1)
REM options -cpp -mtune=generic -march=x86-64 -g -O0 -fpre-include=/usr/include/finclude/math-vector-fortran.h
REM seed -725166459 -656081028 -1373023214 1042815123 -449410370 -138610604 302778817 -737715145 902012271 -900598583 -850218145 -1381489945 -1388520866 604534211 1320834963 36001034 38726298 -987811085 1830293777 1651142895 490130136 -1191982713 -185402160 1251381867 1571911488 -1249811278 -1195289750 895862288 1455380367 -829937932 1412684698 1480610722 1817041685
REM
CELL 1.54180   50.00000   50.00000   50.00000   90.00000   90.00000   90.00000
LATT -1
SFAC C  
C      1  0.4990060000000  0.5239300000000  0.4762660000000 1.0
C      1  0.4779770000000  0.4807060000000  0.4850550000000 1.0
C      1  0.5236710000000  0.4874620000000  0.4784120000000 1.0
C      1  0.5249190000000  0.5480460000000  0.5069630000000 1.0
C      1  0.4469030000000  0.5100500000000  0.4661660000000 1.0
C      1  0.5207200000000  0.4413790000000  0.4779340000000 1.0
C      1  0.4856750000000  0.4427330000000  0.5097620000000 1.0
C      1  0.5569290000000  0.5204720000000  0.4833020000000 1.0
C      1  0.4639130000000  0.5464260000000  0.4909290000000 1.0
C      1  0.4596100000000  0.4497660000000  0.5145570000000 1.0
C      1  0.5737690000000  0.4990050000000  0.4861760000000 1.0
C      1  0.4833770000000  0.5628750000000  0.5010830000000 1.0
C      1  0.5213610000000  0.4568720000000  0.5508940000000 1.0
C      1  0.5408260000000  0.5211320000000  0.5475070000000 1.0
C      1  0.4460540000000  0.5139910000000  0.5480240000000 1.0
C      1  0.5018450000000  0.4824980000000  0.5500650000000 1.0
C      1  0.5090210000000  0.5157950000000  0.5501340000000 1.0
C      1  0.4785130000000  0.5046330000000  0.5467070000000 1.0
C      1  0.5056320000000  0.4651800000000  0.4954020000000 1.0
C      1  0.5265450000000  0.5172600000000  0.4937710000000 1.0
C      1  0.4704860000000  0.5130980000000  0.4895540000000 1.0
C      1  0.4607880000000  0.5112020000000  0.5197910000000 1.0
C      1  0.5195220000000  0.4734600000000  0.5226890000000 1.0
C      1  0.5264620000000  0.5040890000000  0.5234400000000 1.0
C      1  0.5327610000000  0.4829290000000  0.4543440000000 1.0
C      1  0.4995520000000  0.5384790000000  0.4545300000000 1.0
C      1  0.4590080000000  0.4654990000000  0.4746960000000 1.0
C      1  0.4384160000000  0.5544000000000  0.4846230000000 1.0
C      1  0.4971230000000  0.4191050000000  0.5177900000000 1.0
C      1  0.5640070000000  0.5444220000000  0.4719390000000 1.0
C      1  0.5243520000000  0.5723460000000  0.5147630000000 1.0
C      1  0.4288840000000  0.5076610000000  0.4482590000000 1.0
C      1  0.5323720000000  0.4231000000000  0.4644730000000 1.0
END
