TITL C-2622958-629-510 -0.000886676149501427 125000 -914.795148320756 0 0 162 (C1) n - 1
REM
REM in /nfs/bkarasulu/CARBON/AIRSS/Generating-Clusters/AIREBO/with-SteepDescent/Higher-Symm/SD-CG/HFTN-CG
REM
REM
REM
REM
REM
REM ./C.cell (b20cbc046b6831c77cfcea5457e17084)
REM
REM compiler GCC version 9.2.1 20190827 (Red Hat 9.2.1-1)
REM options -cpp -mtune=generic -march=x86-64 -g -O0 -fpre-include=/usr/include/finclude/math-vector-fortran.h
REM seed 591828317 -691503018 -84381344 -1163578386 -205129609 758564057 715116916 -246382036 -262155363 1232675896 968831893 2088852553 1587889558 -2032674391 537021776 -630077283 -538711699 -1818258807 -1700306962 -963571794 1807187556 1406946525 -1466305474 -1951539751 1787653720 1027839100 -780273806 1053679015 -125073303 766247203 1099813386 733971826 -861755071
REM
CELL 1.54180   50.00000   50.00000   50.00000   90.00000   90.00000   90.00000
LATT -1
SFAC C  
C      1  0.5781080000000  0.4824570000000  0.4822340000000 1.0
C      1  0.5578360000000  0.4763810000000  0.5018700000000 1.0
C      1  0.5525240000000  0.4901640000000  0.5285260000000 1.0
C      1  0.5584530000000  0.5205840000000  0.5162440000000 1.0
C      1  0.5756110000000  0.5204960000000  0.4930250000000 1.0
C      1  0.5564190000000  0.5053010000000  0.4694280000000 1.0
C      1  0.5320740000000  0.4431630000000  0.4638070000000 1.0
C      1  0.5333890000000  0.4402790000000  0.5214330000000 1.0
C      1  0.5274660000000  0.4908770000000  0.5718450000000 1.0
C      1  0.5293700000000  0.5638950000000  0.5388910000000 1.0
C      1  0.5328840000000  0.5560790000000  0.4807100000000 1.0
C      1  0.5303590000000  0.5087910000000  0.4257780000000 1.0
C      1  0.5720240000000  0.5143500000000  0.4337550000000 1.0
C      1  0.5768440000000  0.4420230000000  0.4644840000000 1.0
C      1  0.5788670000000  0.4401080000000  0.5252590000000 1.0
C      1  0.5827900000000  0.4936820000000  0.5596470000000 1.0
C      1  0.5769290000000  0.5539530000000  0.5368120000000 1.0
C      1  0.5802040000000  0.5564830000000  0.4763390000000 1.0
C      1  0.5307930000000  0.4982490000000  0.4821380000000 1.0
C      1  0.5163160000000  0.4745280000000  0.4923400000000 1.0
C      1  0.5058300000000  0.4859480000000  0.5187660000000 1.0
C      1  0.5249300000000  0.5048890000000  0.5310720000000 1.0
C      1  0.5167890000000  0.5280680000000  0.5145840000000 1.0
C      1  0.5141470000000  0.5211350000000  0.4848360000000 1.0
C      1  0.5727630000000  0.5585070000000  0.5045130000000 1.0
C      1  0.5828390000000  0.5319500000000  0.4559300000000 1.0
C      1  0.5805650000000  0.4707510000000  0.4518120000000 1.0
C      1  0.5711840000000  0.4391200000000  0.4961620000000 1.0
C      1  0.5813310000000  0.4668000000000  0.5420270000000 1.0
C      1  0.5732810000000  0.5215470000000  0.5454650000000 1.0
C      1  0.5252730000000  0.4119980000000  0.5043610000000 1.0
C      1  0.5330200000000  0.4586170000000  0.5714700000000 1.0
C      1  0.5212250000000  0.5425550000000  0.5640930000000 1.0
C      1  0.5342780000000  0.5869350000000  0.4949350000000 1.0
C      1  0.5317340000000  0.5407480000000  0.4308860000000 1.0
C      1  0.5270340000000  0.4648310000000  0.4384510000000 1.0
C      1  0.4846760000000  0.5282880000000  0.5105170000000 1.0
C      1  0.4833750000000  0.5156320000000  0.4818610000000 1.0
C      1  0.4668520000000  0.4866980000000  0.4597970000000 1.0
C      1  0.4835580000000  0.4760270000000  0.4874370000000 1.0
C      1  0.4735680000000  0.4850650000000  0.5270960000000 1.0
C      1  0.4670090000000  0.5148650000000  0.5345890000000 1.0
C      1  0.4977010000000  0.4928850000000  0.5575970000000 1.0
C      1  0.4982600000000  0.5570140000000  0.5347520000000 1.0
C      1  0.5011110000000  0.5595970000000  0.4761960000000 1.0
C      1  0.5006770000000  0.5105060000000  0.4412860000000 1.0
C      1  0.5015270000000  0.4488090000000  0.4647080000000 1.0
C      1  0.5026190000000  0.4409610000000  0.5249180000000 1.0
C      1  0.5644230000000  0.5270030000000  0.5874390000000 1.0
C      1  0.5583590000000  0.5844010000000  0.5179570000000 1.0
C      1  0.5592870000000  0.5600040000000  0.4288580000000 1.0
C      1  0.5625790000000  0.4697630000000  0.4032020000000 1.0
C      1  0.5519220000000  0.4148500000000  0.4834300000000 1.0
C      1  0.5580180000000  0.4355570000000  0.5708140000000 1.0
C      1  0.6034750000000  0.4843320000000  0.5258530000000 1.0
C      1  0.6007980000000  0.5121290000000  0.5278250000000 1.0
C      1  0.6129380000000  0.5246300000000  0.5065380000000 1.0
C      1  0.6036060000000  0.5155950000000  0.4758740000000 1.0
C      1  0.6076920000000  0.4839660000000  0.4685470000000 1.0
C      1  0.6130690000000  0.4762140000000  0.5012380000000 1.0
C      1  0.4946040000000  0.5499460000000  0.5840890000000 1.0
C      1  0.5115290000000  0.6042460000000  0.4877330000000 1.0
C      1  0.5036940000000  0.5514640000000  0.4182470000000 1.0
C      1  0.5051740000000  0.4484840000000  0.4179330000000 1.0
C      1  0.4990590000000  0.3996360000000  0.4958560000000 1.0
C      1  0.5034060000000  0.4498740000000  0.5858270000000 1.0
C      1  0.4447920000000  0.4700270000000  0.5265340000000 1.0
C      1  0.4395160000000  0.5173950000000  0.5194100000000 1.0
C      1  0.4404610000000  0.5297430000000  0.4908410000000 1.0
C      1  0.4568420000000  0.5185960000000  0.4660020000000 1.0
C      1  0.4389440000000  0.4797330000000  0.4770310000000 1.0
C      1  0.4558820000000  0.4632680000000  0.4986910000000 1.0
C      1  0.5522990000000  0.4875330000000  0.4407340000000 1.0
C      1  0.5398940000000  0.4519030000000  0.4923910000000 1.0
C      1  0.5479690000000  0.4600090000000  0.5409520000000 1.0
C      1  0.5414330000000  0.5162600000000  0.5565230000000 1.0
C      1  0.5411890000000  0.5487360000000  0.5125510000000 1.0
C      1  0.5494090000000  0.5371370000000  0.4597360000000 1.0
C      1  0.4936310000000  0.3869330000000  0.4710540000000 1.0
C      1  0.4985530000000  0.4216460000000  0.5883930000000 1.0
C      1  0.4928140000000  0.5377170000000  0.6097200000000 1.0
C      1  0.4963220000000  0.6150610000000  0.5075420000000 1.0
C      1  0.4989150000000  0.5793900000000  0.4178850000000 1.0
C      1  0.4936460000000  0.4598340000000  0.3938510000000 1.0
C      1  0.3969750000000  0.4342330000000  0.5162050000000 1.0
C      1  0.4034030000000  0.4857990000000  0.5526760000000 1.0
C      1  0.3950040000000  0.5361180000000  0.5284300000000 1.0
C      1  0.3922300000000  0.5683990000000  0.4897850000000 1.0
C      1  0.4038310000000  0.5189120000000  0.4533110000000 1.0
C      1  0.4019360000000  0.4649600000000  0.4783660000000 1.0
C      1  0.4959810000000  0.5257900000000  0.5486480000000 1.0
C      1  0.4848090000000  0.5585940000000  0.5035350000000 1.0
C      1  0.4910350000000  0.5367060000000  0.4564510000000 1.0
C      1  0.4986240000000  0.4794880000000  0.4500570000000 1.0
C      1  0.4908400000000  0.4441000000000  0.4966550000000 1.0
C      1  0.4912450000000  0.4620380000000  0.5447440000000 1.0
C      1  0.4600430000000  0.4329510000000  0.4940590000000 1.0
C      1  0.4596210000000  0.4551550000000  0.5534670000000 1.0
C      1  0.4565120000000  0.5238930000000  0.5648860000000 1.0
C      1  0.4521170000000  0.5573620000000  0.4971890000000 1.0
C      1  0.4606840000000  0.5406240000000  0.4437100000000 1.0
C      1  0.4575930000000  0.4734390000000  0.4308760000000 1.0
C      1  0.4752560000000  0.4091260000000  0.5081090000000 1.0
C      1  0.4765180000000  0.4632670000000  0.5818530000000 1.0
C      1  0.4688840000000  0.5509890000000  0.5710880000000 1.0
C      1  0.4609270000000  0.5884390000000  0.4924000000000 1.0
C      1  0.4791680000000  0.5361090000000  0.4184330000000 1.0
C      1  0.4719050000000  0.4475090000000  0.4250740000000 1.0
C      1  0.4312220000000  0.5682090000000  0.5422800000000 1.0
C      1  0.4341830000000  0.5781020000000  0.4616030000000 1.0
C      1  0.4392700000000  0.5013880000000  0.4242840000000 1.0
C      1  0.4301850000000  0.4278770000000  0.4613870000000 1.0
C      1  0.4423650000000  0.4277980000000  0.5428870000000 1.0
C      1  0.4396890000000  0.4993680000000  0.5813710000000 1.0
C      1  0.4838360000000  0.4133980000000  0.5667250000000 1.0
C      1  0.4853560000000  0.5116570000000  0.6109040000000 1.0
C      1  0.4744580000000  0.5986870000000  0.5147590000000 1.0
C      1  0.4858200000000  0.5927560000000  0.4367780000000 1.0
C      1  0.4815440000000  0.4830800000000  0.3985170000000 1.0
C      1  0.4788480000000  0.3994750000000  0.4523620000000 1.0
C      1  0.5577040000000  0.5754760000000  0.5514000000000 1.0
C      1  0.5668570000000  0.5742990000000  0.4551710000000 1.0
C      1  0.5660450000000  0.4989800000000  0.4050970000000 1.0
C      1  0.5551250000000  0.4270980000000  0.4485580000000 1.0
C      1  0.5627810000000  0.4230460000000  0.5443130000000 1.0
C      1  0.5698930000000  0.4934780000000  0.5854780000000 1.0
C      1  0.4106500000000  0.4940330000000  0.4731830000000 1.0
C      1  0.3993000000000  0.4601500000000  0.5056250000000 1.0
C      1  0.4153700000000  0.4777440000000  0.5236440000000 1.0
C      1  0.4121240000000  0.5102450000000  0.5316640000000 1.0
C      1  0.3925750000000  0.5424480000000  0.5012380000000 1.0
C      1  0.4099520000000  0.5248360000000  0.4849210000000 1.0
C      1  0.5019540000000  0.5054070000000  0.4081850000000 1.0
C      1  0.4862790000000  0.4305350000000  0.4481360000000 1.0
C      1  0.4981770000000  0.4148270000000  0.5395020000000 1.0
C      1  0.5006230000000  0.4939020000000  0.5901400000000 1.0
C      1  0.4769780000000  0.5806100000000  0.5364340000000 1.0
C      1  0.4951110000000  0.5889700000000  0.4676050000000 1.0
C      1  0.4253270000000  0.4724150000000  0.4354090000000 1.0
C      1  0.4333540000000  0.4205870000000  0.4904280000000 1.0
C      1  0.4297290000000  0.4486290000000  0.5677940000000 1.0
C      1  0.4245600000000  0.5269920000000  0.5680070000000 1.0
C      1  0.4311600000000  0.5746900000000  0.5147440000000 1.0
C      1  0.4342470000000  0.5560400000000  0.4434310000000 1.0
C      1  0.4574440000000  0.5711500000000  0.5544220000000 1.0
C      1  0.4619950000000  0.5949290000000  0.4609380000000 1.0
C      1  0.4660500000000  0.5104240000000  0.4055890000000 1.0
C      1  0.4543800000000  0.4219810000000  0.4443550000000 1.0
C      1  0.4654820000000  0.4050530000000  0.5396780000000 1.0
C      1  0.4651330000000  0.4888940000000  0.5957740000000 1.0
C      1  0.4189230000000  0.5792430000000  0.4866410000000 1.0
C      1  0.4240140000000  0.5271960000000  0.4355030000000 1.0
C      1  0.4169230000000  0.4531560000000  0.4559590000000 1.0
C      1  0.4217840000000  0.4209840000000  0.5166490000000 1.0
C      1  0.4202330000000  0.4761380000000  0.5732640000000 1.0
C      1  0.4142580000000  0.5458510000000  0.5497570000000 1.0
C      1  0.5528560000000  0.5501450000000  0.5740250000000 1.0
C      1  0.5646440000000  0.5918880000000  0.4842220000000 1.0
C      1  0.5639210000000  0.5330800000000  0.4085220000000 1.0
C      1  0.5534710000000  0.4499800000000  0.4230600000000 1.0
C      1  0.5566070000000  0.4081380000000  0.5169830000000 1.0
C      1  0.5615280000000  0.4649360000000  0.5889030000000 1.0
END
