TITL C-2622955-8511-15 -0.000211281888397705 125000 -502.307515552586 0 0 94 (C1) n - 1
REM
REM in /nfs/bkarasulu/CARBON/AIRSS/Generating-Clusters/AIREBO/with-SteepDescent/Higher-Symm/SD-CG/HFTN-CG
REM
REM
REM
REM
REM
REM ./C.cell (b20cbc046b6831c77cfcea5457e17084)
REM
REM compiler GCC version 9.2.1 20190827 (Red Hat 9.2.1-1)
REM options -cpp -mtune=generic -march=x86-64 -g -O0 -fpre-include=/usr/include/finclude/math-vector-fortran.h
REM seed -1153607281 -1446728524 -1274244310 1914580286 279289675 2126334707 -2029341806 62704057 -1177476846 -558822968 1725495016 -1391732843 -1185319883 185710109 1554639064 -411165274 -1646180093 -1153993321 -753364141 -621736602 -399607586 -358299891 -1251082247 -2023022817 -1381507570 -854971514 1998009590 253869937 696245251 1377628534 160326732 -1998023207 1129961256
REM
CELL 1.54180   50.00000   50.00000   50.00000   90.00000   90.00000   90.00000
LATT -1
SFAC C  
C      1  0.5278030000000  0.5794010000000  0.5146020000000 1.0
C      1  0.4914100000000  0.5695480000000  0.5304390000000 1.0
C      1  0.4689580000000  0.5705800000000  0.4822370000000 1.0
C      1  0.5227220000000  0.5696120000000  0.4762300000000 1.0
C      1  0.4678870000000  0.4290050000000  0.4999780000000 1.0
C      1  0.5140650000000  0.4259560000000  0.5296710000000 1.0
C      1  0.5358530000000  0.4284710000000  0.4963770000000 1.0
C      1  0.4894160000000  0.4314910000000  0.4663790000000 1.0
C      1  0.5208610000000  0.5402600000000  0.5134430000000 1.0
C      1  0.4934440000000  0.5280120000000  0.5166350000000 1.0
C      1  0.4826810000000  0.5232060000000  0.4887830000000 1.0
C      1  0.5066240000000  0.5192090000000  0.4710360000000 1.0
C      1  0.4748850000000  0.4694360000000  0.5018970000000 1.0
C      1  0.5179190000000  0.4649950000000  0.5225100000000 1.0
C      1  0.5210730000000  0.4739380000000  0.4947240000000 1.0
C      1  0.4919820000000  0.4830390000000  0.4796500000000 1.0
C      1  0.4929580000000  0.4700260000000  0.5370300000000 1.0
C      1  0.4511050000000  0.4679130000000  0.4819700000000 1.0
C      1  0.5094330000000  0.4666700000000  0.4574290000000 1.0
C      1  0.5610600000000  0.4760940000000  0.5272040000000 1.0
C      1  0.5216570000000  0.5319960000000  0.5644400000000 1.0
C      1  0.5383890000000  0.5345290000000  0.4897120000000 1.0
C      1  0.4667460000000  0.5280000000000  0.4384160000000 1.0
C      1  0.4399620000000  0.5316160000000  0.5244620000000 1.0
C      1  0.5884400000000  0.5347250000000  0.4959100000000 1.0
C      1  0.4986700000000  0.5392950000000  0.5867800000000 1.0
C      1  0.4173020000000  0.5347830000000  0.5006050000000 1.0
C      1  0.4904570000000  0.5318990000000  0.4187250000000 1.0
C      1  0.4158810000000  0.4665100000000  0.5000320000000 1.0
C      1  0.4995690000000  0.4725420000000  0.5877240000000 1.0
C      1  0.5858480000000  0.4698170000000  0.5053180000000 1.0
C      1  0.4937260000000  0.4685740000000  0.4147500000000 1.0
C      1  0.4568110000000  0.4310270000000  0.4678940000000 1.0
C      1  0.5206370000000  0.4285590000000  0.4532380000000 1.0
C      1  0.5477710000000  0.4208410000000  0.5269590000000 1.0
C      1  0.4899600000000  0.4317040000000  0.5480510000000 1.0
C      1  0.5503600000000  0.5749620000000  0.4913020000000 1.0
C      1  0.4941620000000  0.5671750000000  0.4596110000000 1.0
C      1  0.4580280000000  0.5671060000000  0.5275620000000 1.0
C      1  0.5241420000000  0.5835880000000  0.5474420000000 1.0
C      1  0.4446400000000  0.5553280000000  0.5005410000000 1.0
C      1  0.4933630000000  0.5574570000000  0.4339700000000 1.0
C      1  0.5664820000000  0.5497550000000  0.4926860000000 1.0
C      1  0.5048210000000  0.5597320000000  0.5601100000000 1.0
C      1  0.5605590000000  0.4475070000000  0.5099270000000 1.0
C      1  0.4974790000000  0.4467280000000  0.4362190000000 1.0
C      1  0.4358610000000  0.4407020000000  0.4928700000000 1.0
C      1  0.4938050000000  0.4565400000000  0.5672840000000 1.0
C      1  0.5385210000000  0.5024100000000  0.4883310000000 1.0
C      1  0.5178760000000  0.5066350000000  0.5438100000000 1.0
C      1  0.4552530000000  0.5041730000000  0.5197940000000 1.0
C      1  0.4742690000000  0.5008460000000  0.4567140000000 1.0
C      1  0.4569350000000  0.5011630000000  0.4859670000000 1.0
C      1  0.4851420000000  0.5014460000000  0.5361850000000 1.0
C      1  0.5396670000000  0.5004810000000  0.5222590000000 1.0
C      1  0.5234690000000  0.4956290000000  0.4585940000000 1.0
C      1  0.5516140000000  0.4716980000000  0.5595690000000 1.0
C      1  0.4444910000000  0.4619390000000  0.5454330000000 1.0
C      1  0.4449260000000  0.4804930000000  0.4339690000000 1.0
C      1  0.5601480000000  0.4677820000000  0.4597770000000 1.0
C      1  0.4605810000000  0.5245930000000  0.5578840000000 1.0
C      1  0.5578660000000  0.5360200000000  0.5482280000000 1.0
C      1  0.5446040000000  0.5281820000000  0.4400670000000 1.0
C      1  0.4348320000000  0.5359170000000  0.4601440000000 1.0
C      1  0.5684970000000  0.4937200000000  0.4784400000000 1.0
C      1  0.5300460000000  0.4941870000000  0.5730170000000 1.0
C      1  0.4327710000000  0.4811260000000  0.5240150000000 1.0
C      1  0.4730250000000  0.4905800000000  0.4258820000000 1.0
C      1  0.4267230000000  0.5081980000000  0.4727350000000 1.0
C      1  0.4764920000000  0.4992700000000  0.5690020000000 1.0
C      1  0.5701990000000  0.5148890000000  0.5254680000000 1.0
C      1  0.5301300000000  0.5003710000000  0.4273200000000 1.0
C      1  0.5272110000000  0.5415710000000  0.4606090000000 1.0
C      1  0.5379700000000  0.5547460000000  0.5359100000000 1.0
C      1  0.4753020000000  0.5416470000000  0.5401330000000 1.0
C      1  0.4653660000000  0.5413510000000  0.4694850000000 1.0
C      1  0.4469540000000  0.4594310000000  0.4519470000000 1.0
C      1  0.4682960000000  0.4484900000000  0.5278560000000 1.0
C      1  0.5361980000000  0.4488400000000  0.5416180000000 1.0
C      1  0.5362430000000  0.4524080000000  0.4727200000000 1.0
C      1  0.4320050000000  0.5134860000000  0.5510170000000 1.0
C      1  0.4350500000000  0.5293040000000  0.4282320000000 1.0
C      1  0.5639690000000  0.5054300000000  0.4476490000000 1.0
C      1  0.5496230000000  0.5222640000000  0.5782240000000 1.0
C      1  0.5653160000000  0.5027020000000  0.5565360000000 1.0
C      1  0.5565260000000  0.4792270000000  0.4309790000000 1.0
C      1  0.4278880000000  0.5017460000000  0.4409710000000 1.0
C      1  0.4463820000000  0.4877880000000  0.5609650000000 1.0
C      1  0.5028290000000  0.5016430000000  0.4138170000000 1.0
C      1  0.5872790000000  0.5027890000000  0.5021600000000 1.0
C      1  0.4168220000000  0.5007790000000  0.5019520000000 1.0
C      1  0.5012070000000  0.5058960000000  0.5867380000000 1.0
C      1  0.4982550000000  0.5733740000000  0.4988210000000 1.0
C      1  0.5019130000000  0.4303860000000  0.4981570000000 1.0
END
