TITL C-2622954-8726-739 0.00248328397951722 125000 -616.364026291129 0 0 116 (C1) n - 1
REM
REM in /nfs/bkarasulu/CARBON/AIRSS/Generating-Clusters/AIREBO/with-SteepDescent/Higher-Symm/SD-CG/HFTN-CG
REM
REM
REM
REM
REM
REM ./C.cell (b20cbc046b6831c77cfcea5457e17084)
REM
REM compiler GCC version 9.2.1 20190827 (Red Hat 9.2.1-1)
REM options -cpp -mtune=generic -march=x86-64 -g -O0 -fpre-include=/usr/include/finclude/math-vector-fortran.h
REM seed 78758947 -1732665294 1373663643 -1681265442 -699666838 1781404447 94759865 2066534668 -1743300143 1463489759 -1164857853 696849462 915792746 1793927682 1864934067 -117610811 -2086137579 -421799326 905207626 1815266861 597729945 -301938110 602332616 595776112 -1608028122 1999706658 1766950715 -1818939763 -930805115 1124600438 1534632224 -423680381 716864999
REM
CELL 1.54180   50.00000   50.00000   50.00000   90.00000   90.00000   90.00000
LATT -1
SFAC C  
C      1  0.5834950000000  0.4910000000000  0.4525500000000 1.0
C      1  0.4499320000000  0.4375530000000  0.4440660000000 1.0
C      1  0.4628760000000  0.5770460000000  0.4421890000000 1.0
C      1  0.5317580000000  0.4426080000000  0.4919580000000 1.0
C      1  0.4379750000000  0.4987110000000  0.4845500000000 1.0
C      1  0.5258140000000  0.5532070000000  0.4889080000000 1.0
C      1  0.5171010000000  0.4819920000000  0.4802980000000 1.0
C      1  0.4855850000000  0.4707330000000  0.4740300000000 1.0
C      1  0.4951100000000  0.5319390000000  0.4748330000000 1.0
C      1  0.4651470000000  0.4230350000000  0.5357090000000 1.0
C      1  0.4525580000000  0.5678410000000  0.5359170000000 1.0
C      1  0.5811590000000  0.5082430000000  0.5362270000000 1.0
C      1  0.4581220000000  0.5207270000000  0.5022630000000 1.0
C      1  0.5256830000000  0.5239610000000  0.5066260000000 1.0
C      1  0.5125970000000  0.4569170000000  0.5110370000000 1.0
C      1  0.5158910000000  0.4490940000000  0.5687400000000 1.0
C      1  0.4476710000000  0.5111710000000  0.5637900000000 1.0
C      1  0.5361670000000  0.5373400000000  0.5660130000000 1.0
C      1  0.4556430000000  0.5280610000000  0.5353760000000 1.0
C      1  0.5416480000000  0.5242480000000  0.5351080000000 1.0
C      1  0.4976920000000  0.4478450000000  0.5400410000000 1.0
C      1  0.4762520000000  0.4935030000000  0.4505630000000 1.0
C      1  0.5223740000000  0.5272200000000  0.4550220000000 1.0
C      1  0.5341860000000  0.4795050000000  0.4518920000000 1.0
C      1  0.5149800000000  0.5947820000000  0.4294290000000 1.0
C      1  0.5644270000000  0.4484570000000  0.4320680000000 1.0
C      1  0.4210080000000  0.4858300000000  0.4580220000000 1.0
C      1  0.4527030000000  0.4681210000000  0.4822940000000 1.0
C      1  0.4973200000000  0.5636860000000  0.4735250000000 1.0
C      1  0.5609660000000  0.4600300000000  0.4868780000000 1.0
C      1  0.4900620000000  0.4174760000000  0.4758320000000 1.0
C      1  0.4322650000000  0.5526260000000  0.4776390000000 1.0
C      1  0.5695770000000  0.5325610000000  0.4780220000000 1.0
C      1  0.4488800000000  0.5533100000000  0.5053860000000 1.0
C      1  0.5725440000000  0.5193560000000  0.5052430000000 1.0
C      1  0.4778940000000  0.4216680000000  0.5041730000000 1.0
C      1  0.5369720000000  0.4481260000000  0.5460080000000 1.0
C      1  0.4364410000000  0.4936230000000  0.5393610000000 1.0
C      1  0.5247840000000  0.5582350000000  0.5470800000000 1.0
C      1  0.4837170000000  0.5255860000000  0.5544010000000 1.0
C      1  0.5318590000000  0.4991510000000  0.5558580000000 1.0
C      1  0.4896230000000  0.4763580000000  0.5560510000000 1.0
C      1  0.5293120000000  0.5111980000000  0.4258430000000 1.0
C      1  0.5118130000000  0.4680040000000  0.4317690000000 1.0
C      1  0.4724670000000  0.5176990000000  0.4278860000000 1.0
C      1  0.5045720000000  0.4199450000000  0.5236960000000 1.0
C      1  0.4250370000000  0.5365890000000  0.5232560000000 1.0
C      1  0.5666860000000  0.5448420000000  0.5264190000000 1.0
C      1  0.5791310000000  0.4869340000000  0.4970400000000 1.0
C      1  0.4498180000000  0.4388970000000  0.4950370000000 1.0
C      1  0.4729590000000  0.5740410000000  0.4926610000000 1.0
C      1  0.5176340000000  0.4238380000000  0.4719360000000 1.0
C      1  0.4210610000000  0.5260180000000  0.4733570000000 1.0
C      1  0.5501050000000  0.5513300000000  0.4712210000000 1.0
C      1  0.5410920000000  0.4759860000000  0.5327430000000 1.0
C      1  0.4555060000000  0.4741310000000  0.5275450000000 1.0
C      1  0.4985050000000  0.5454870000000  0.5311160000000 1.0
C      1  0.5581930000000  0.5216220000000  0.5805670000000 1.0
C      1  0.4891760000000  0.4401510000000  0.5818140000000 1.0
C      1  0.4551730000000  0.5384900000000  0.5790780000000 1.0
C      1  0.4828000000000  0.4729800000000  0.5078520000000 1.0
C      1  0.4917270000000  0.5221970000000  0.5072800000000 1.0
C      1  0.5191770000000  0.4904030000000  0.5111040000000 1.0
C      1  0.4605140000000  0.4631650000000  0.5677290000000 1.0
C      1  0.4900090000000  0.5551360000000  0.5700490000000 1.0
C      1  0.5562200000000  0.4827140000000  0.5730040000000 1.0
C      1  0.5781810000000  0.4460780000000  0.5126730000000 1.0
C      1  0.4133450000000  0.4613050000000  0.5146560000000 1.0
C      1  0.5102810000000  0.5924310000000  0.5136740000000 1.0
C      1  0.5529400000000  0.5266830000000  0.4399210000000 1.0
C      1  0.4946670000000  0.4483190000000  0.4504840000000 1.0
C      1  0.4689180000000  0.5322140000000  0.4566470000000 1.0
C      1  0.5758710000000  0.4700620000000  0.5601350000000 1.0
C      1  0.4393130000000  0.4500900000000  0.5587320000000 1.0
C      1  0.4900540000000  0.5786170000000  0.5575020000000 1.0
C      1  0.4748700000000  0.4995720000000  0.5750780000000 1.0
C      1  0.5110310000000  0.5197440000000  0.5737970000000 1.0
C      1  0.5161390000000  0.4789730000000  0.5779180000000 1.0
C      1  0.4731000000000  0.4261910000000  0.4527480000000 1.0
C      1  0.4502520000000  0.5578120000000  0.4564270000000 1.0
C      1  0.5759440000000  0.5163290000000  0.4557820000000 1.0
C      1  0.5336110000000  0.4265290000000  0.5284690000000 1.0
C      1  0.4155640000000  0.5092360000000  0.5257270000000 1.0
C      1  0.5453790000000  0.5662840000000  0.5294460000000 1.0
C      1  0.5802810000000  0.5166930000000  0.5622350000000 1.0
C      1  0.4739190000000  0.4241940000000  0.5618400000000 1.0
C      1  0.4473060000000  0.5613190000000  0.5620430000000 1.0
C      1  0.5318350000000  0.5768240000000  0.5073480000000 1.0
C      1  0.5553960000000  0.4268210000000  0.5082040000000 1.0
C      1  0.4151590000000  0.4872880000000  0.5061260000000 1.0
C      1  0.4741830000000  0.4951370000000  0.4083180000000 1.0
C      1  0.5081480000000  0.5215570000000  0.4080120000000 1.0
C      1  0.5044600000000  0.4878070000000  0.4053690000000 1.0
C      1  0.5389620000000  0.4403480000000  0.4223630000000 1.0
C      1  0.4298110000000  0.4988280000000  0.4303330000000 1.0
C      1  0.5287940000000  0.5677550000000  0.4238820000000 1.0
C      1  0.4935140000000  0.5714500000000  0.4417320000000 1.0
C      1  0.5624420000000  0.4685480000000  0.4563170000000 1.0
C      1  0.4507670000000  0.4701110000000  0.4484040000000 1.0
C      1  0.4837070000000  0.5753900000000  0.5245640000000 1.0
C      1  0.5736270000000  0.4761050000000  0.5280570000000 1.0
C      1  0.4406770000000  0.4445710000000  0.5260200000000 1.0
C      1  0.5390840000000  0.4980830000000  0.5950160000000 1.0
C      1  0.4780650000000  0.4701190000000  0.5935080000000 1.0
C      1  0.4857160000000  0.5334140000000  0.5931610000000 1.0
C      1  0.5235750000000  0.4595980000000  0.4018450000000 1.0
C      1  0.4505070000000  0.4813260000000  0.4163000000000 1.0
C      1  0.5043930000000  0.5489640000000  0.4172230000000 1.0
C      1  0.5467150000000  0.5578230000000  0.4425170000000 1.0
C      1  0.5227670000000  0.4313890000000  0.4432930000000 1.0
C      1  0.4389280000000  0.5202260000000  0.4492140000000 1.0
C      1  0.6083300000000  0.4834390000000  0.4878770000000 1.0
C      1  0.4278210000000  0.4214670000000  0.4822130000000 1.0
C      1  0.4635870000000  0.6024400000000  0.4848400000000 1.0
C      1  0.5067420000000  0.4992230000000  0.4557830000000 1.0
C      1  0.4911410000000  0.4958790000000  0.5288070000000 1.0
END
