TITL C-2622966-9038-463 0.00184276364595153 125000 -291.527416518664 0 0 54 (C1) n - 1
REM
REM in /nfs/bkarasulu/CARBON/AIRSS/Generating-Clusters/AIREBO/with-SteepDescent/Higher-Symm/SD-CG/HFTN-CG
REM
REM
REM
REM
REM
REM ./C.cell (b20cbc046b6831c77cfcea5457e17084)
REM
REM compiler GCC version 9.2.1 20190827 (Red Hat 9.2.1-1)
REM options -cpp -mtune=generic -march=x86-64 -g -O0 -fpre-include=/usr/include/finclude/math-vector-fortran.h
REM seed -1775704646 -1652295400 -386533142 -1940131696 -1308050860 1799206020 -1603560754 -526215773 12197902 -1781662623 -466224522 -1152858660 1599604707 -812112209 -547783025 1975255081 -1720677175 -2134400348 117302972 -411625543 -702689701 -1563404618 1594432380 -1998161405 -604422387 1728635420 -1957253747 -1921240088 1609465948 -1503227692 2017606817 -1598152738 1383108836
REM
CELL 1.54180   50.00000   50.00000   50.00000   90.00000   90.00000   90.00000
LATT -1
SFAC C  
C      1  0.5561990000000  0.5371760000000  0.4727380000000 1.0
C      1  0.5660410000000  0.4654230000000  0.4832710000000 1.0
C      1  0.5636440000000  0.5070830000000  0.5362920000000 1.0
C      1  0.4519010000000  0.5327170000000  0.4803350000000 1.0
C      1  0.4513910000000  0.4662300000000  0.4724940000000 1.0
C      1  0.4557130000000  0.4962030000000  0.5400570000000 1.0
C      1  0.4969340000000  0.5331330000000  0.4950560000000 1.0
C      1  0.4957080000000  0.4728030000000  0.4875000000000 1.0
C      1  0.4944160000000  0.5042260000000  0.5340370000000 1.0
C      1  0.5218830000000  0.5180140000000  0.4780040000000 1.0
C      1  0.5267170000000  0.4589230000000  0.4842170000000 1.0
C      1  0.5252510000000  0.5154550000000  0.5429560000000 1.0
C      1  0.4676130000000  0.4928890000000  0.4470400000000 1.0
C      1  0.4688360000000  0.4557910000000  0.5329330000000 1.0
C      1  0.4711370000000  0.5546210000000  0.5161920000000 1.0
C      1  0.5225400000000  0.4927520000000  0.4470220000000 1.0
C      1  0.5266510000000  0.4594360000000  0.5325690000000 1.0
C      1  0.5279320000000  0.5579540000000  0.5268130000000 1.0
C      1  0.4879820000000  0.5814340000000  0.5070170000000 1.0
C      1  0.4832480000000  0.4762480000000  0.4218470000000 1.0
C      1  0.4881190000000  0.4343100000000  0.5498690000000 1.0
C      1  0.5200110000000  0.5791700000000  0.5090550000000 1.0
C      1  0.5131030000000  0.4722030000000  0.4285070000000 1.0
C      1  0.5105310000000  0.4523050000000  0.5572040000000 1.0
C      1  0.5468450000000  0.4635670000000  0.5088630000000 1.0
C      1  0.5484430000000  0.5342230000000  0.5266410000000 1.0
C      1  0.5474230000000  0.5067580000000  0.4602830000000 1.0
C      1  0.4649240000000  0.4662720000000  0.5004790000000 1.0
C      1  0.4666780000000  0.5233000000000  0.5286930000000 1.0
C      1  0.4473660000000  0.5130960000000  0.4616580000000 1.0
C      1  0.4433400000000  0.5279700000000  0.5059010000000 1.0
C      1  0.4339930000000  0.4868910000000  0.4677350000000 1.0
C      1  0.4431550000000  0.4828110000000  0.5193890000000 1.0
C      1  0.5629050000000  0.5384780000000  0.4983820000000 1.0
C      1  0.5677960000000  0.4852430000000  0.4681810000000 1.0
C      1  0.5584010000000  0.4835510000000  0.5308380000000 1.0
C      1  0.5223920000000  0.5495470000000  0.4646890000000 1.0
C      1  0.5149060000000  0.4370070000000  0.4650650000000 1.0
C      1  0.5139980000000  0.4998730000000  0.5710610000000 1.0
C      1  0.4748660000000  0.5547450000000  0.4808360000000 1.0
C      1  0.4687130000000  0.4588930000000  0.4475000000000 1.0
C      1  0.4715310000000  0.4788560000000  0.5577740000000 1.0
C      1  0.5061450000000  0.4255810000000  0.4919970000000 1.0
C      1  0.5018860000000  0.5227120000000  0.5867830000000 1.0
C      1  0.5055170000000  0.5410900000000  0.4389100000000 1.0
C      1  0.4952810000000  0.4914440000000  0.4644780000000 1.0
C      1  0.5014920000000  0.5425290000000  0.5255930000000 1.0
C      1  0.4966260000000  0.4745060000000  0.5271190000000 1.0
C      1  0.4985190000000  0.4766160000000  0.5679440000000 1.0
C      1  0.5056700000000  0.5691570000000  0.4803420000000 1.0
C      1  0.5002000000000  0.4479020000000  0.4438180000000 1.0
C      1  0.4921190000000  0.5237410000000  0.4626400000000 1.0
C      1  0.4980460000000  0.4461140000000  0.5084430000000 1.0
C      1  0.4955240000000  0.5310340000000  0.5549380000000 1.0
END
