TITL C-2622960-5345-1 7.5562420210842e-05 125000 -192.834675283463 0 0 40 (C1) n - 1
REM
REM in /nfs/bkarasulu/CARBON/AIRSS/Generating-Clusters/AIREBO/with-SteepDescent/Higher-Symm/SD-CG/HFTN-CG
REM
REM
REM
REM
REM
REM ./C.cell (b20cbc046b6831c77cfcea5457e17084)
REM
REM compiler GCC version 9.2.1 20190827 (Red Hat 9.2.1-1)
REM options -cpp -mtune=generic -march=x86-64 -g -O0 -fpre-include=/usr/include/finclude/math-vector-fortran.h
REM seed 1430003554 -1251049258 -411807505 -710276192 -1883667390 -1334068304 -121068893 -141168480 -612388333 614336862 -375729608 -1669411599 651339816 1427117784 801789649 1934671385 493673131 -162570575 2120254061 52619214 -245018737 587729901 175325405 -543300858 2136030706 -813831627 905806929 -231748534 2024686545 1559941336 1325835346 1499231002 -1324057236
REM
CELL 1.54180   50.00000   50.00000   50.00000   90.00000   90.00000   90.00000
LATT -1
SFAC C  
C      1  0.5530090000000  0.5372710000000  0.5179140000000 1.0
C      1  0.4976970000000  0.5508880000000  0.5216030000000 1.0
C      1  0.4505460000000  0.5354680000000  0.5090790000000 1.0
C      1  0.4467310000000  0.4908180000000  0.5172500000000 1.0
C      1  0.4812180000000  0.4461280000000  0.5183750000000 1.0
C      1  0.5210100000000  0.4453360000000  0.5153420000000 1.0
C      1  0.5631630000000  0.4839950000000  0.5097720000000 1.0
C      1  0.4774800000000  0.5500950000000  0.4940510000000 1.0
C      1  0.4430600000000  0.5090030000000  0.4890740000000 1.0
C      1  0.4518550000000  0.4595080000000  0.5085340000000 1.0
C      1  0.4990930000000  0.4428620000000  0.4896960000000 1.0
C      1  0.5492130000000  0.4564460000000  0.4999070000000 1.0
C      1  0.5508210000000  0.5111900000000  0.4957420000000 1.0
C      1  0.5285770000000  0.5574760000000  0.5089900000000 1.0
C      1  0.4577080000000  0.5347690000000  0.5421550000000 1.0
C      1  0.4687070000000  0.5064070000000  0.5356540000000 1.0
C      1  0.4762070000000  0.4733140000000  0.5378260000000 1.0
C      1  0.5082630000000  0.4653720000000  0.5405920000000 1.0
C      1  0.5391950000000  0.4759080000000  0.5332510000000 1.0
C      1  0.5465460000000  0.5090220000000  0.5355960000000 1.0
C      1  0.5180370000000  0.5274890000000  0.5340300000000 1.0
C      1  0.5361740000000  0.4848530000000  0.4805580000000 1.0
C      1  0.5372980000000  0.5390810000000  0.4817500000000 1.0
C      1  0.5072490000000  0.5550100000000  0.4831720000000 1.0
C      1  0.4588530000000  0.5331590000000  0.4710790000000 1.0
C      1  0.4615140000000  0.4820310000000  0.4815290000000 1.0
C      1  0.4695290000000  0.4512540000000  0.4807210000000 1.0
C      1  0.5256140000000  0.4547750000000  0.4769810000000 1.0
C      1  0.5421260000000  0.4445220000000  0.5411400000000 1.0
C      1  0.5745910000000  0.4914130000000  0.5401520000000 1.0
C      1  0.5430860000000  0.5451950000000  0.5494550000000 1.0
C      1  0.4792260000000  0.5551050000000  0.5441600000000 1.0
C      1  0.4264100000000  0.5460790000000  0.5278680000000 1.0
C      1  0.4452570000000  0.4761110000000  0.5467200000000 1.0
C      1  0.4954940000000  0.4346690000000  0.5442110000000 1.0
C      1  0.4958280000000  0.5004580000000  0.4686340000000 1.0
C      1  0.4962440000000  0.5009380000000  0.4158420000000 1.0
C      1  0.4962010000000  0.5088570000000  0.5211280000000 1.0
C      1  0.4967260000000  0.4996110000000  0.4420130000000 1.0
C      1  0.4975600000000  0.5009770000000  0.4954650000000 1.0
END
