TITL C-2622959-7779-484 0.000553905441430643 125000 -799.045358493485 0 0 148 (C1) n - 1
REM
REM in /nfs/bkarasulu/CARBON/AIRSS/Generating-Clusters/AIREBO/with-SteepDescent/Higher-Symm/SD-CG/HFTN-CG
REM
REM
REM
REM
REM
REM ./C.cell (b20cbc046b6831c77cfcea5457e17084)
REM
REM compiler GCC version 9.2.1 20190827 (Red Hat 9.2.1-1)
REM options -cpp -mtune=generic -march=x86-64 -g -O0 -fpre-include=/usr/include/finclude/math-vector-fortran.h
REM seed -1784653316 1691449792 2128016895 -287029866 -1705620506 906804078 -1734165875 -1115506919 631631583 1177421080 -337383681 -1942235563 484964884 1214497829 -588742093 1313292164 1640329139 -286082948 255067112 483419485 -1343223120 -966535975 537308027 -1782275258 473820474 1734564866 698532132 -1503728942 -2042707313 220701866 -992027918 1848499951 1294076699
REM
CELL 1.54180   50.00000   50.00000   50.00000   90.00000   90.00000   90.00000
LATT -1
SFAC C  
C      1  0.5257840000000  0.5287320000000  0.5601910000000 1.0
C      1  0.5904210000000  0.4649020000000  0.4489760000000 1.0
C      1  0.4057510000000  0.5301790000000  0.4678890000000 1.0
C      1  0.5963580000000  0.4656750000000  0.5457620000000 1.0
C      1  0.5069550000000  0.5021310000000  0.5660780000000 1.0
C      1  0.4593560000000  0.5676810000000  0.4610330000000 1.0
C      1  0.4728680000000  0.4417620000000  0.4328920000000 1.0
C      1  0.5022860000000  0.4978020000000  0.4017610000000 1.0
C      1  0.5029170000000  0.5202990000000  0.4446360000000 1.0
C      1  0.4049330000000  0.4762880000000  0.5146400000000 1.0
C      1  0.5990610000000  0.4861690000000  0.5285810000000 1.0
C      1  0.5154480000000  0.4475940000000  0.5286680000000 1.0
C      1  0.4713460000000  0.5733320000000  0.5660420000000 1.0
C      1  0.4199230000000  0.4134050000000  0.5133650000000 1.0
C      1  0.5578890000000  0.4842480000000  0.5702970000000 1.0
C      1  0.5600750000000  0.4282080000000  0.5160370000000 1.0
C      1  0.4202810000000  0.5021170000000  0.5204910000000 1.0
C      1  0.4756350000000  0.4199830000000  0.5586350000000 1.0
C      1  0.4277480000000  0.5735580000000  0.4505440000000 1.0
C      1  0.5815730000000  0.5151010000000  0.4642060000000 1.0
C      1  0.5300810000000  0.5501560000000  0.4705650000000 1.0
C      1  0.6043490000000  0.4846980000000  0.4764260000000 1.0
C      1  0.4328050000000  0.5119310000000  0.4929050000000 1.0
C      1  0.4757690000000  0.5010790000000  0.5910090000000 1.0
C      1  0.4762790000000  0.4696460000000  0.5780550000000 1.0
C      1  0.4863500000000  0.5111110000000  0.5045680000000 1.0
C      1  0.5546070000000  0.4991450000000  0.5021860000000 1.0
C      1  0.4971880000000  0.5813760000000  0.4321740000000 1.0
C      1  0.5266130000000  0.5834080000000  0.5631980000000 1.0
C      1  0.5765270000000  0.5462650000000  0.4277560000000 1.0
C      1  0.4931760000000  0.4058870000000  0.5411270000000 1.0
C      1  0.4325590000000  0.5359630000000  0.5662630000000 1.0
C      1  0.5734570000000  0.4562370000000  0.5588690000000 1.0
C      1  0.5669990000000  0.4573600000000  0.4999660000000 1.0
C      1  0.5827500000000  0.5663830000000  0.4969830000000 1.0
C      1  0.5856570000000  0.4857840000000  0.4999860000000 1.0
C      1  0.4018780000000  0.5246190000000  0.5281370000000 1.0
C      1  0.4946960000000  0.4574080000000  0.4537680000000 1.0
C      1  0.5058800000000  0.4835800000000  0.5087130000000 1.0
C      1  0.4361990000000  0.5096430000000  0.4271520000000 1.0
C      1  0.4737620000000  0.5500720000000  0.5886400000000 1.0
C      1  0.4386030000000  0.5765470000000  0.5342570000000 1.0
C      1  0.5360720000000  0.5156330000000  0.5335360000000 1.0
C      1  0.4237660000000  0.4530270000000  0.5099610000000 1.0
C      1  0.5139270000000  0.4221300000000  0.4493430000000 1.0
C      1  0.4090610000000  0.4980210000000  0.4729190000000 1.0
C      1  0.5089030000000  0.5508130000000  0.4953440000000 1.0
C      1  0.4814020000000  0.4677500000000  0.5262360000000 1.0
C      1  0.3952080000000  0.5403720000000  0.5051530000000 1.0
C      1  0.4942050000000  0.4312600000000  0.4754990000000 1.0
C      1  0.4830360000000  0.5244050000000  0.4007390000000 1.0
C      1  0.4425920000000  0.4973920000000  0.5393390000000 1.0
C      1  0.5048660000000  0.4902800000000  0.4334860000000 1.0
C      1  0.4938570000000  0.4660970000000  0.4122630000000 1.0
C      1  0.5243510000000  0.5359380000000  0.6015470000000 1.0
C      1  0.4312140000000  0.4778450000000  0.4666060000000 1.0
C      1  0.5259250000000  0.5380660000000  0.4326560000000 1.0
C      1  0.4928750000000  0.5411470000000  0.5412040000000 1.0
C      1  0.4409200000000  0.5668550000000  0.5732530000000 1.0
C      1  0.5325850000000  0.4456760000000  0.4797100000000 1.0
C      1  0.5345390000000  0.4575330000000  0.5518870000000 1.0
C      1  0.5335060000000  0.5551110000000  0.5789790000000 1.0
C      1  0.4765300000000  0.5604960000000  0.4903280000000 1.0
C      1  0.5269990000000  0.4103490000000  0.5392440000000 1.0
C      1  0.5306740000000  0.5128340000000  0.4129620000000 1.0
C      1  0.3760050000000  0.5348160000000  0.4819410000000 1.0
C      1  0.4382760000000  0.5493270000000  0.4803990000000 1.0
C      1  0.4514790000000  0.4202530000000  0.5137720000000 1.0
C      1  0.4754750000000  0.5650340000000  0.4350100000000 1.0
C      1  0.5662810000000  0.5151990000000  0.5591560000000 1.0
C      1  0.4687870000000  0.5967100000000  0.5414850000000 1.0
C      1  0.5821040000000  0.5180600000000  0.4308590000000 1.0
C      1  0.6013590000000  0.5181610000000  0.5172410000000 1.0
C      1  0.5384580000000  0.4736940000000  0.5093030000000 1.0
C      1  0.4720360000000  0.4649470000000  0.4869890000000 1.0
C      1  0.4969990000000  0.5414960000000  0.5730230000000 1.0
C      1  0.4814700000000  0.4047840000000  0.5092190000000 1.0
C      1  0.4980070000000  0.5729880000000  0.5480600000000 1.0
C      1  0.5365530000000  0.5899920000000  0.4797030000000 1.0
C      1  0.4411050000000  0.4428410000000  0.4347130000000 1.0
C      1  0.5219910000000  0.5786890000000  0.4539290000000 1.0
C      1  0.4616010000000  0.5300110000000  0.4924950000000 1.0
C      1  0.4461620000000  0.4647990000000  0.4912270000000 1.0
C      1  0.5285770000000  0.4589010000000  0.5797250000000 1.0
C      1  0.5343220000000  0.5603830000000  0.5158610000000 1.0
C      1  0.5520200000000  0.4324830000000  0.5459270000000 1.0
C      1  0.4746650000000  0.4109640000000  0.4471880000000 1.0
C      1  0.4186480000000  0.5799870000000  0.5145990000000 1.0
C      1  0.4935710000000  0.4463900000000  0.5026630000000 1.0
C      1  0.6030090000000  0.4963130000000  0.4456380000000 1.0
C      1  0.5239040000000  0.5685740000000  0.4217460000000 1.0
C      1  0.4952210000000  0.4544000000000  0.5542880000000 1.0
C      1  0.5273330000000  0.4997660000000  0.4687060000000 1.0
C      1  0.5613380000000  0.5748760000000  0.4719730000000 1.0
C      1  0.5026740000000  0.4346340000000  0.4219400000000 1.0
C      1  0.4514310000000  0.5457530000000  0.5409510000000 1.0
C      1  0.4689460000000  0.5208810000000  0.4468990000000 1.0
C      1  0.4436760000000  0.4906650000000  0.5867990000000 1.0
C      1  0.4153960000000  0.5589690000000  0.4979770000000 1.0
C      1  0.5691930000000  0.5125120000000  0.5262430000000 1.0
C      1  0.4422510000000  0.4222300000000  0.4819660000000 1.0
C      1  0.5567470000000  0.5471770000000  0.4999940000000 1.0
C      1  0.5978490000000  0.4451710000000  0.5074670000000 1.0
C      1  0.5422690000000  0.5219360000000  0.4851000000000 1.0
C      1  0.5469280000000  0.4674320000000  0.4561720000000 1.0
C      1  0.5564560000000  0.4997590000000  0.4203250000000 1.0
C      1  0.5223400000000  0.5870070000000  0.5299770000000 1.0
C      1  0.5729650000000  0.5456100000000  0.5479250000000 1.0
C      1  0.5177050000000  0.5932930000000  0.4997600000000 1.0
C      1  0.5239800000000  0.4642000000000  0.4378600000000 1.0
C      1  0.5308800000000  0.4326300000000  0.5063050000000 1.0
C      1  0.4364750000000  0.5287410000000  0.4533680000000 1.0
C      1  0.4564120000000  0.4486450000000  0.5601160000000 1.0
C      1  0.5432510000000  0.4854370000000  0.5396300000000 1.0
C      1  0.5113950000000  0.5281120000000  0.5189510000000 1.0
C      1  0.5373180000000  0.3976250000000  0.4464370000000 1.0
C      1  0.4693350000000  0.5176970000000  0.5339720000000 1.0
C      1  0.4043110000000  0.5312000000000  0.5544850000000 1.0
C      1  0.5464820000000  0.5605660000000  0.5477230000000 1.0
C      1  0.4089900000000  0.5568580000000  0.4470380000000 1.0
C      1  0.4952990000000  0.5061400000000  0.4729870000000 1.0
C      1  0.4865060000000  0.4941600000000  0.5470390000000 1.0
C      1  0.4679640000000  0.5687560000000  0.5221390000000 1.0
C      1  0.5884580000000  0.5474870000000  0.5241070000000 1.0
C      1  0.5701450000000  0.4487550000000  0.4672140000000 1.0
C      1  0.4756680000000  0.5394200000000  0.4226250000000 1.0
C      1  0.5073530000000  0.5113520000000  0.5984180000000 1.0
C      1  0.5815640000000  0.5264280000000  0.4909270000000 1.0
C      1  0.4106050000000  0.4318100000000  0.4868710000000 1.0
C      1  0.4549520000000  0.5278520000000  0.5885250000000 1.0
C      1  0.5790500000000  0.4749650000000  0.4218610000000 1.0
C      1  0.5527360000000  0.5548930000000  0.4456490000000 1.0
C      1  0.4287140000000  0.4453820000000  0.4610630000000 1.0
C      1  0.5564950000000  0.4969290000000  0.4530250000000 1.0
C      1  0.4779570000000  0.4838880000000  0.4629530000000 1.0
C      1  0.4870150000000  0.4377450000000  0.5828660000000 1.0
C      1  0.5138950000000  0.4711770000000  0.4782260000000 1.0
C      1  0.5287890000000  0.4874920000000  0.5878540000000 1.0
C      1  0.4413430000000  0.4791200000000  0.5614210000000 1.0
C      1  0.5520640000000  0.4220470000000  0.4649340000000 1.0
C      1  0.5280960000000  0.4504580000000  0.4089330000000 1.0
C      1  0.4526140000000  0.4497010000000  0.5276470000000 1.0
C      1  0.5140980000000  0.4055590000000  0.5074080000000 1.0
C      1  0.4912170000000  0.5911420000000  0.4916640000000 1.0
C      1  0.5248350000000  0.4058490000000  0.4772880000000 1.0
C      1  0.3889170000000  0.4828890000000  0.4918700000000 1.0
C      1  0.4701680000000  0.4106170000000  0.4776120000000 1.0
C      1  0.4512710000000  0.4919140000000  0.4490370000000 1.0
END
