TITL C-2622953-3516-390 -0.000461638621566925 125000 -275.983908480658 0 0 54 (C1) n - 1
REM
REM in /nfs/bkarasulu/CARBON/AIRSS/Generating-Clusters/AIREBO/with-SteepDescent/Higher-Symm/SD-CG/HFTN-CG
REM
REM
REM
REM
REM
REM ./C.cell (b20cbc046b6831c77cfcea5457e17084)
REM
REM compiler GCC version 9.2.1 20190827 (Red Hat 9.2.1-1)
REM options -cpp -mtune=generic -march=x86-64 -g -O0 -fpre-include=/usr/include/finclude/math-vector-fortran.h
REM seed -492990579 -146958084 598895532 230205856 -163231599 457744776 -1909192850 426645668 593535443 -876890867 -1255513538 -1219427210 -521539087 -491377469 1802030414 1972253343 -860031859 1962837705 169801860 -762034709 -1647516176 -552763820 -735281567 1890727017 337635592 -1648905118 -1187926909 1545275994 788431547 2127708714 1912908633 785097663 240983285
REM
CELL 1.54180   50.00000   50.00000   50.00000   90.00000   90.00000   90.00000
LATT -1
SFAC C  
C      1  0.4714790000000  0.4335960000000  0.5215330000000 1.0
C      1  0.4666080000000  0.4330530000000  0.4790920000000 1.0
C      1  0.5098310000000  0.4348210000000  0.4668520000000 1.0
C      1  0.5450330000000  0.4375500000000  0.5060560000000 1.0
C      1  0.5204930000000  0.4321060000000  0.5200770000000 1.0
C      1  0.5194120000000  0.4914730000000  0.5312600000000 1.0
C      1  0.4765250000000  0.4938090000000  0.5231940000000 1.0
C      1  0.4612570000000  0.4944240000000  0.4820390000000 1.0
C      1  0.5027120000000  0.4947870000000  0.4674310000000 1.0
C      1  0.5343440000000  0.4980530000000  0.4916190000000 1.0
C      1  0.5444630000000  0.5302520000000  0.4949430000000 1.0
C      1  0.5101730000000  0.5238960000000  0.5272130000000 1.0
C      1  0.4704270000000  0.5270830000000  0.5267520000000 1.0
C      1  0.4665300000000  0.5278380000000  0.4783330000000 1.0
C      1  0.5087720000000  0.5272180000000  0.4591040000000 1.0
C      1  0.4781590000000  0.5577180000000  0.4839760000000 1.0
C      1  0.5069770000000  0.5536610000000  0.4718930000000 1.0
C      1  0.5277890000000  0.5547800000000  0.4950110000000 1.0
C      1  0.5113310000000  0.5548440000000  0.5212430000000 1.0
C      1  0.4798580000000  0.5580150000000  0.5160640000000 1.0
C      1  0.5445100000000  0.5804420000000  0.4928000000000 1.0
C      1  0.5228910000000  0.5719090000000  0.5435080000000 1.0
C      1  0.4667200000000  0.5815240000000  0.5299230000000 1.0
C      1  0.4616400000000  0.5803460000000  0.4723170000000 1.0
C      1  0.5129220000000  0.5761570000000  0.4517000000000 1.0
C      1  0.4990530000000  0.5116430000000  0.4313710000000 1.0
C      1  0.5672270000000  0.5138640000000  0.4760620000000 1.0
C      1  0.5374170000000  0.5104450000000  0.5529940000000 1.0
C      1  0.4552910000000  0.5074460000000  0.5580440000000 1.0
C      1  0.4314400000000  0.5102070000000  0.4748700000000 1.0
C      1  0.5418140000000  0.4731310000000  0.4674230000000 1.0
C      1  0.5512900000000  0.4676840000000  0.5313760000000 1.0
C      1  0.4882420000000  0.4720900000000  0.5465900000000 1.0
C      1  0.4468860000000  0.4729240000000  0.5030050000000 1.0
C      1  0.4806640000000  0.4741250000000  0.4537300000000 1.0
C      1  0.5317510000000  0.5120290000000  0.4408820000000 1.0
C      1  0.5674940000000  0.5103130000000  0.5100420000000 1.0
C      1  0.5046700000000  0.5159710000000  0.5588660000000 1.0
C      1  0.4418760000000  0.5129700000000  0.5305650000000 1.0
C      1  0.4537580000000  0.5159550000000  0.4498170000000 1.0
C      1  0.4826670000000  0.4989330000000  0.5622960000000 1.0
C      1  0.4316380000000  0.5009620000000  0.5075910000000 1.0
C      1  0.4735700000000  0.4996710000000  0.4367530000000 1.0
C      1  0.5520290000000  0.4997910000000  0.4557830000000 1.0
C      1  0.5587830000000  0.4968450000000  0.5340660000000 1.0
C      1  0.5474750000000  0.4696390000000  0.4994650000000 1.0
C      1  0.5189740000000  0.4592890000000  0.5396590000000 1.0
C      1  0.4646230000000  0.4618390000000  0.5262910000000 1.0
C      1  0.4602140000000  0.4612350000000  0.4741930000000 1.0
C      1  0.5126360000000  0.4633960000000  0.4588760000000 1.0
C      1  0.4900490000000  0.5232120000000  0.4998150000000 1.0
C      1  0.4952380000000  0.4310630000000  0.4973360000000 1.0
C      1  0.5031910000000  0.4932280000000  0.5013970000000 1.0
C      1  0.4997920000000  0.4630000000000  0.4993280000000 1.0
END
