TITL C-2622953-3516-387 0.00238555155498324 125000 -300.845336365266 0 0 55 (C1) n - 1
REM
REM in /nfs/bkarasulu/CARBON/AIRSS/Generating-Clusters/AIREBO/with-SteepDescent/Higher-Symm/SD-CG/HFTN-CG
REM
REM
REM
REM
REM
REM ./C.cell (b20cbc046b6831c77cfcea5457e17084)
REM
REM compiler GCC version 9.2.1 20190827 (Red Hat 9.2.1-1)
REM options -cpp -mtune=generic -march=x86-64 -g -O0 -fpre-include=/usr/include/finclude/math-vector-fortran.h
REM seed -348513675 1295239783 -101897180 1400340499 -1131494241 539238613 -208893355 -1270079936 1937123073 1445302802 -912580975 983445140 216575949 -663294750 -1115678124 802614964 -1751792969 -32956140 -1116240508 -326202813 -1631409438 1799230255 434581242 1353923210 -105156871 -1755418035 -1963087477 -1704628962 2035112316 -1813790575 1414946657 -777051642 -1282195611
REM
CELL 1.54180   50.00000   50.00000   50.00000   90.00000   90.00000   90.00000
LATT -1
SFAC C  
C      1  0.4307890000000  0.5168190000000  0.5369380000000 1.0
C      1  0.4925940000000  0.5173600000000  0.5789400000000 1.0
C      1  0.5636270000000  0.5156370000000  0.5454880000000 1.0
C      1  0.5705900000000  0.5180130000000  0.4610310000000 1.0
C      1  0.5061650000000  0.5131550000000  0.4198240000000 1.0
C      1  0.4351330000000  0.5191300000000  0.4602630000000 1.0
C      1  0.4398490000000  0.4908060000000  0.5332350000000 1.0
C      1  0.4925030000000  0.4718790000000  0.5780940000000 1.0
C      1  0.5581060000000  0.4899790000000  0.5369190000000 1.0
C      1  0.5691010000000  0.4726630000000  0.4572460000000 1.0
C      1  0.5029860000000  0.4866890000000  0.4274320000000 1.0
C      1  0.4358310000000  0.4718320000000  0.4559030000000 1.0
C      1  0.5302640000000  0.5323940000000  0.4862890000000 1.0
C      1  0.5032000000000  0.5327080000000  0.4727890000000 1.0
C      1  0.4810810000000  0.5223940000000  0.4891300000000 1.0
C      1  0.4776830000000  0.5369470000000  0.5148250000000 1.0
C      1  0.5017770000000  0.5338560000000  0.5330310000000 1.0
C      1  0.5278020000000  0.5320770000000  0.5168300000000 1.0
C      1  0.5307670000000  0.4569470000000  0.4851570000000 1.0
C      1  0.5045250000000  0.4546360000000  0.4700880000000 1.0
C      1  0.4810520000000  0.4640640000000  0.4843820000000 1.0
C      1  0.4768290000000  0.4557470000000  0.5137180000000 1.0
C      1  0.5013490000000  0.4574390000000  0.5312750000000 1.0
C      1  0.5268750000000  0.4612120000000  0.5150850000000 1.0
C      1  0.4291710000000  0.4468380000000  0.4491150000000 1.0
C      1  0.4513370000000  0.4350990000000  0.5228930000000 1.0
C      1  0.5039600000000  0.4328460000000  0.5459020000000 1.0
C      1  0.5650840000000  0.4427210000000  0.5375160000000 1.0
C      1  0.5455660000000  0.4325920000000  0.4816750000000 1.0
C      1  0.5035580000000  0.4315700000000  0.4450010000000 1.0
C      1  0.4274740000000  0.5446750000000  0.4582550000000 1.0
C      1  0.4578370000000  0.5643300000000  0.5187110000000 1.0
C      1  0.5036660000000  0.5575620000000  0.5493270000000 1.0
C      1  0.5634970000000  0.5610110000000  0.5303580000000 1.0
C      1  0.5436360000000  0.5570490000000  0.4793940000000 1.0
C      1  0.4970670000000  0.5592820000000  0.4523520000000 1.0
C      1  0.5028170000000  0.5314950000000  0.4391450000000 1.0
C      1  0.4575400000000  0.5085280000000  0.4737510000000 1.0
C      1  0.4469230000000  0.5364520000000  0.5282140000000 1.0
C      1  0.4985140000000  0.5094720000000  0.5512440000000 1.0
C      1  0.5518400000000  0.5366310000000  0.5310980000000 1.0
C      1  0.5469710000000  0.5090350000000  0.4760230000000 1.0
C      1  0.5050190000000  0.4619220000000  0.4375120000000 1.0
C      1  0.4580590000000  0.4804720000000  0.4710160000000 1.0
C      1  0.4477950000000  0.4659560000000  0.5271150000000 1.0
C      1  0.4984030000000  0.4808230000000  0.5507890000000 1.0
C      1  0.5505710000000  0.4642710000000  0.5302370000000 1.0
C      1  0.5467120000000  0.4805640000000  0.4743560000000 1.0
C      1  0.5836180000000  0.4956860000000  0.4494910000000 1.0
C      1  0.4889970000000  0.4943190000000  0.5949150000000 1.0
C      1  0.5796680000000  0.5205240000000  0.5666140000000 1.0
C      1  0.5122290000000  0.5195960000000  0.3943600000000 1.0
C      1  0.4073830000000  0.5215680000000  0.5494540000000 1.0
C      1  0.4214200000000  0.4961050000000  0.4490250000000 1.0
C      1  0.4836030000000  0.4924280000000  0.4993250000000 1.0
END
