TITL C-2622965-4321-154 -0.00293500435201681 125000 -752.196841106549 0 0 133 (C1) n - 1
REM
REM in /nfs/bkarasulu/CARBON/AIRSS/Generating-Clusters/AIREBO/with-SteepDescent/Higher-Symm/SD-CG/HFTN-CG
REM
REM
REM
REM
REM
REM ./C.cell (b20cbc046b6831c77cfcea5457e17084)
REM
REM compiler GCC version 9.2.1 20190827 (Red Hat 9.2.1-1)
REM options -cpp -mtune=generic -march=x86-64 -g -O0 -fpre-include=/usr/include/finclude/math-vector-fortran.h
REM seed -1820400225 -408877875 -412694596 -686565950 -1432416498 3276364 -1032813686 -1267368433 -736780952 -664716936 1028333422 847832306 1417080104 1783641338 -1591042372 -1445778048 1416136017 -1488912839 1701741051 163402031 1680823452 -185770001 -1530344094 -132209591 147944377 711666837 -958140894 116211842 -1046267207 -39945854 -329696779 -1310837198 -1667355860
REM
CELL 1.54180   50.00000   50.00000   50.00000   90.00000   90.00000   90.00000
LATT -1
SFAC C  
C      1  0.5836150000000  0.4833540000000  0.5139460000000 1.0
C      1  0.5514180000000  0.4834200000000  0.4386770000000 1.0
C      1  0.4699860000000  0.4795340000000  0.4232420000000 1.0
C      1  0.4177050000000  0.4816970000000  0.4861710000000 1.0
C      1  0.4462930000000  0.4846400000000  0.5633760000000 1.0
C      1  0.5295600000000  0.4785370000000  0.5764710000000 1.0
C      1  0.5160430000000  0.4012540000000  0.4437200000000 1.0
C      1  0.4586780000000  0.4031440000000  0.4602550000000 1.0
C      1  0.4442960000000  0.4075400000000  0.5149810000000 1.0
C      1  0.4845090000000  0.4006750000000  0.5566300000000 1.0
C      1  0.5426930000000  0.4035130000000  0.5419860000000 1.0
C      1  0.5546590000000  0.4015140000000  0.4856170000000 1.0
C      1  0.5389880000000  0.5739600000000  0.4299280000000 1.0
C      1  0.4675250000000  0.5717730000000  0.4340900000000 1.0
C      1  0.4343630000000  0.5726080000000  0.4973420000000 1.0
C      1  0.4604940000000  0.5722590000000  0.5710930000000 1.0
C      1  0.5322120000000  0.5709180000000  0.5669320000000 1.0
C      1  0.5654540000000  0.5728980000000  0.5035660000000 1.0
C      1  0.4791140000000  0.4200180000000  0.5722970000000 1.0
C      1  0.5552490000000  0.4225520000000  0.5528810000000 1.0
C      1  0.5691730000000  0.4241580000000  0.4820660000000 1.0
C      1  0.5200330000000  0.4202370000000  0.4274210000000 1.0
C      1  0.4451840000000  0.4212180000000  0.4487150000000 1.0
C      1  0.4275810000000  0.4255920000000  0.5207420000000 1.0
C      1  0.4792540000000  0.5646250000000  0.5451300000000 1.0
C      1  0.5226280000000  0.5671510000000  0.5367760000000 1.0
C      1  0.5367680000000  0.5675990000000  0.4919660000000 1.0
C      1  0.5204620000000  0.5657840000000  0.4557680000000 1.0
C      1  0.4768490000000  0.5678250000000  0.4642460000000 1.0
C      1  0.4630290000000  0.5670430000000  0.5089490000000 1.0
C      1  0.5717160000000  0.5021840000000  0.5747940000000 1.0
C      1  0.5986300000000  0.4980520000000  0.4717700000000 1.0
C      1  0.5278110000000  0.4979970000000  0.4003420000000 1.0
C      1  0.4274320000000  0.5018750000000  0.4253120000000 1.0
C      1  0.4011780000000  0.4986600000000  0.5274010000000 1.0
C      1  0.4729090000000  0.4984240000000  0.6002910000000 1.0
C      1  0.4847320000000  0.5524460000000  0.5825300000000 1.0
C      1  0.5565610000000  0.5546760000000  0.5534570000000 1.0
C      1  0.5715150000000  0.5562600000000  0.4760740000000 1.0
C      1  0.5149550000000  0.5533450000000  0.4184430000000 1.0
C      1  0.4432650000000  0.5549770000000  0.4471650000000 1.0
C      1  0.4281600000000  0.5559980000000  0.5247390000000 1.0
C      1  0.4847840000000  0.5123560000000  0.5405360000000 1.0
C      1  0.5262480000000  0.5171220000000  0.5356620000000 1.0
C      1  0.5454130000000  0.5198320000000  0.4945390000000 1.0
C      1  0.5158210000000  0.5138840000000  0.4590770000000 1.0
C      1  0.4736550000000  0.5177480000000  0.4638500000000 1.0
C      1  0.4546170000000  0.5190680000000  0.5051850000000 1.0
C      1  0.5035260000000  0.4433370000000  0.4674040000000 1.0
C      1  0.4731010000000  0.4462840000000  0.4817500000000 1.0
C      1  0.4727120000000  0.4514880000000  0.5156470000000 1.0
C      1  0.4987590000000  0.4416790000000  0.5351870000000 1.0
C      1  0.5275190000000  0.4443150000000  0.5186390000000 1.0
C      1  0.5265710000000  0.4550370000000  0.4874070000000 1.0
C      1  0.5285190000000  0.4005320000000  0.4927120000000 1.0
C      1  0.5093090000000  0.4073440000000  0.4722710000000 1.0
C      1  0.4805160000000  0.4131710000000  0.4795730000000 1.0
C      1  0.4729930000000  0.4179570000000  0.5099620000000 1.0
C      1  0.4932640000000  0.4055920000000  0.5291200000000 1.0
C      1  0.5219730000000  0.4113190000000  0.5200700000000 1.0
C      1  0.5066780000000  0.4607410000000  0.5889350000000 1.0
C      1  0.5804270000000  0.4649850000000  0.5396200000000 1.0
C      1  0.5711890000000  0.4656870000000  0.4516830000000 1.0
C      1  0.4930330000000  0.4610970000000  0.4117560000000 1.0
C      1  0.4200150000000  0.4643240000000  0.4600730000000 1.0
C      1  0.4270780000000  0.4667830000000  0.5497050000000 1.0
C      1  0.4841810000000  0.4821730000000  0.5248730000000 1.0
C      1  0.5176730000000  0.4881730000000  0.5265410000000 1.0
C      1  0.5340580000000  0.4925300000000  0.4999990000000 1.0
C      1  0.5135660000000  0.4838920000000  0.4749440000000 1.0
C      1  0.4812520000000  0.4889840000000  0.4734510000000 1.0
C      1  0.4658260000000  0.4917720000000  0.5001330000000 1.0
C      1  0.5251260000000  0.4715260000000  0.4472070000000 1.0
C      1  0.4676480000000  0.4723100000000  0.4521570000000 1.0
C      1  0.4416300000000  0.4736020000000  0.5021460000000 1.0
C      1  0.4728800000000  0.4723380000000  0.5544690000000 1.0
C      1  0.5318000000000  0.4714790000000  0.5475430000000 1.0
C      1  0.5590640000000  0.4749620000000  0.4986960000000 1.0
C      1  0.4026990000000  0.4783260000000  0.5468100000000 1.0
C      1  0.5006200000000  0.4881750000000  0.6017220000000 1.0
C      1  0.5881680000000  0.4928480000000  0.5519890000000 1.0
C      1  0.5956580000000  0.4773600000000  0.4528770000000 1.0
C      1  0.4999210000000  0.4883560000000  0.3989110000000 1.0
C      1  0.4119360000000  0.4923010000000  0.4485660000000 1.0
C      1  0.5172640000000  0.5901920000000  0.4768960000000 1.0
C      1  0.4872570000000  0.5925920000000  0.4756760000000 1.0
C      1  0.4740460000000  0.6036290000000  0.4971840000000 1.0
C      1  0.4821340000000  0.5895310000000  0.5245140000000 1.0
C      1  0.5121110000000  0.5921240000000  0.5258260000000 1.0
C      1  0.5252360000000  0.6037390000000  0.5045710000000 1.0
C      1  0.5187910000000  0.5101970000000  0.5827200000000 1.0
C      1  0.5805110000000  0.5140410000000  0.5264780000000 1.0
C      1  0.5554670000000  0.5123260000000  0.4495850000000 1.0
C      1  0.4817680000000  0.5109050000000  0.4173850000000 1.0
C      1  0.4195800000000  0.5134410000000  0.4741250000000 1.0
C      1  0.4406080000000  0.5139380000000  0.5532630000000 1.0
C      1  0.4271950000000  0.5162680000000  0.5251150000000 1.0
C      1  0.4880240000000  0.5137150000000  0.5739510000000 1.0
C      1  0.5558080000000  0.5154690000000  0.5477500000000 1.0
C      1  0.5734730000000  0.5165020000000  0.4755850000000 1.0
C      1  0.5131250000000  0.5143630000000  0.4259330000000 1.0
C      1  0.4438930000000  0.5156610000000  0.4517920000000 1.0
C      1  0.4689900000000  0.5384640000000  0.5263800000000 1.0
C      1  0.5034160000000  0.5404150000000  0.5452700000000 1.0
C      1  0.5270790000000  0.5429590000000  0.5132980000000 1.0
C      1  0.5309770000000  0.5394620000000  0.4737760000000 1.0
C      1  0.4963750000000  0.5415130000000  0.4551650000000 1.0
C      1  0.4723720000000  0.5428850000000  0.4869230000000 1.0
C      1  0.5535240000000  0.4509700000000  0.5395760000000 1.0
C      1  0.5588820000000  0.4526350000000  0.4766200000000 1.0
C      1  0.5089610000000  0.4486080000000  0.4341690000000 1.0
C      1  0.4471370000000  0.4503860000000  0.4601160000000 1.0
C      1  0.4399240000000  0.4534210000000  0.5256280000000 1.0
C      1  0.4896390000000  0.4492720000000  0.5670560000000 1.0
C      1  0.4621230000000  0.5334970000000  0.5654060000000 1.0
C      1  0.5379330000000  0.5320740000000  0.5708710000000 1.0
C      1  0.5804550000000  0.5364060000000  0.5022800000000 1.0
C      1  0.5387770000000  0.5350030000000  0.4344340000000 1.0
C      1  0.4619040000000  0.5330580000000  0.4289040000000 1.0
C      1  0.4195260000000  0.5360330000000  0.4985080000000 1.0
C      1  0.4303220000000  0.5549560000000  0.4720160000000 1.0
C      1  0.4408740000000  0.5548090000000  0.5494920000000 1.0
C      1  0.5127190000000  0.5523310000000  0.5822070000000 1.0
C      1  0.5695130000000  0.5551160000000  0.5288120000000 1.0
C      1  0.5590630000000  0.5567830000000  0.4513340000000 1.0
C      1  0.4870920000000  0.5537950000000  0.4183540000000 1.0
C      1  0.4425400000000  0.4857600000000  0.4098380000000 1.0
C      1  0.3929810000000  0.4902000000000  0.5028980000000 1.0
C      1  0.4490600000000  0.4875150000000  0.5941110000000 1.0
C      1  0.5566370000000  0.4861440000000  0.5902480000000 1.0
C      1  0.6077810000000  0.4893460000000  0.4959420000000 1.0
C      1  0.5507730000000  0.4859450000000  0.4078860000000 1.0
C      1  0.4997790000000  0.5422330000000  0.5001280000000 1.0
END
