TITL C-2622959-7779-387 0.000724546452244176 125000 -631.735082834987 0 0 100 (C1) n - 1
REM
REM in /nfs/bkarasulu/CARBON/AIRSS/Generating-Clusters/AIREBO/with-SteepDescent/Higher-Symm/SD-CG/HFTN-CG
REM
REM
REM
REM
REM
REM ./C.cell (b20cbc046b6831c77cfcea5457e17084)
REM
REM compiler GCC version 9.2.1 20190827 (Red Hat 9.2.1-1)
REM options -cpp -mtune=generic -march=x86-64 -g -O0 -fpre-include=/usr/include/finclude/math-vector-fortran.h
REM seed 2064454283 820329473 1192656020 -302275278 -1193404323 1598795240 638890071 164751078 -1917786985 1958759081 2076971445 -638449731 -158907420 -222922620 1243499900 203018270 87863708 -4094424 56583147 1215055252 -1723281589 -289138198 -200029142 -803710175 -894161524 -289512786 -273517476 1717091409 737592258 -953933458 -1962482151 -1620939776 -1603004806
REM
CELL 1.54180   50.00000   50.00000   50.00000   90.00000   90.00000   90.00000
LATT -1
SFAC C  
C      1  0.5392530000000  0.4256450000000  0.5014140000000 1.0
C      1  0.4309370000000  0.4964200000000  0.5369110000000 1.0
C      1  0.4997280000000  0.5395480000000  0.4289040000000 1.0
C      1  0.4632220000000  0.4296170000000  0.4963210000000 1.0
C      1  0.4594160000000  0.5741970000000  0.4971280000000 1.0
C      1  0.5380600000000  0.5661880000000  0.5042710000000 1.0
C      1  0.5798680000000  0.4977070000000  0.4573660000000 1.0
C      1  0.5749490000000  0.4978230000000  0.5153470000000 1.0
C      1  0.4174240000000  0.5002430000000  0.4522650000000 1.0
C      1  0.5007690000000  0.5419640000000  0.5753890000000 1.0
C      1  0.5016670000000  0.4624790000000  0.4306810000000 1.0
C      1  0.5030720000000  0.4631630000000  0.5669050000000 1.0
C      1  0.5048360000000  0.4258930000000  0.5416010000000 1.0
C      1  0.5388080000000  0.4984590000000  0.4326010000000 1.0
C      1  0.4306420000000  0.5358660000000  0.4959460000000 1.0
C      1  0.5008180000000  0.4269220000000  0.4614840000000 1.0
C      1  0.4985120000000  0.5734560000000  0.4628900000000 1.0
C      1  0.5005170000000  0.5789460000000  0.5428680000000 1.0
C      1  0.4623960000000  0.4982260000000  0.5729150000000 1.0
C      1  0.5437960000000  0.5054900000000  0.5657730000000 1.0
C      1  0.4637000000000  0.5006280000000  0.4321930000000 1.0
C      1  0.5786770000000  0.5315550000000  0.5080820000000 1.0
C      1  0.4163130000000  0.4508130000000  0.4981430000000 1.0
C      1  0.5748090000000  0.4655610000000  0.5009370000000 1.0
C      1  0.5282310000000  0.5514870000000  0.5726590000000 1.0
C      1  0.5495910000000  0.5688020000000  0.5296710000000 1.0
C      1  0.5739530000000  0.5418100000000  0.5598160000000 1.0
C      1  0.4721130000000  0.5492020000000  0.4297490000000 1.0
C      1  0.4757730000000  0.4515140000000  0.5675070000000 1.0
C      1  0.5285100000000  0.4511500000000  0.4320280000000 1.0
C      1  0.4495890000000  0.5701450000000  0.4697770000000 1.0
C      1  0.4547590000000  0.4312120000000  0.5257050000000 1.0
C      1  0.5489980000000  0.4309820000000  0.4741300000000 1.0
C      1  0.4287260000000  0.5288160000000  0.4469070000000 1.0
C      1  0.4329270000000  0.4698200000000  0.5472310000000 1.0
C      1  0.5707390000000  0.4693940000000  0.4506820000000 1.0
C      1  0.5715810000000  0.5506920000000  0.5330430000000 1.0
C      1  0.5291950000000  0.5719570000000  0.5513780000000 1.0
C      1  0.5498990000000  0.5320060000000  0.5720230000000 1.0
C      1  0.4308870000000  0.5471910000000  0.4696060000000 1.0
C      1  0.5695400000000  0.4510160000000  0.4723100000000 1.0
C      1  0.4314960000000  0.4485810000000  0.5273970000000 1.0
C      1  0.4714020000000  0.5703500000000  0.4503660000000 1.0
C      1  0.5283880000000  0.4304960000000  0.4530820000000 1.0
C      1  0.4743000000000  0.4299510000000  0.5473380000000 1.0
C      1  0.4522550000000  0.5274050000000  0.4298280000000 1.0
C      1  0.5489610000000  0.4715150000000  0.4319660000000 1.0
C      1  0.4534350000000  0.4704460000000  0.5690800000000 1.0
C      1  0.4326710000000  0.4765090000000  0.4969370000000 1.0
C      1  0.4799330000000  0.5031130000000  0.4582260000000 1.0
C      1  0.4905130000000  0.4536280000000  0.4762720000000 1.0
C      1  0.5452970000000  0.4753820000000  0.4924550000000 1.0
C      1  0.5530630000000  0.5139990000000  0.4980200000000 1.0
C      1  0.4605650000000  0.5247130000000  0.5038930000000 1.0
C      1  0.5265180000000  0.5010140000000  0.5408990000000 1.0
C      1  0.5197730000000  0.5008300000000  0.4581430000000 1.0
C      1  0.4799380000000  0.5046240000000  0.5473300000000 1.0
C      1  0.4977290000000  0.4558620000000  0.5279740000000 1.0
C      1  0.5004260000000  0.5462590000000  0.4794920000000 1.0
C      1  0.4959210000000  0.5512520000000  0.5278310000000 1.0
C      1  0.4986070000000  0.4776090000000  0.4579610000000 1.0
C      1  0.4337940000000  0.4955160000000  0.4771500000000 1.0
C      1  0.4770700000000  0.4575300000000  0.5055570000000 1.0
C      1  0.5008450000000  0.4840280000000  0.5439100000000 1.0
C      1  0.4934630000000  0.5304410000000  0.5485650000000 1.0
C      1  0.5022290000000  0.5261610000000  0.4575400000000 1.0
C      1  0.5226540000000  0.4892840000000  0.5109740000000 1.0
C      1  0.4604890000000  0.5045260000000  0.5250120000000 1.0
C      1  0.5488960000000  0.4984370000000  0.4712370000000 1.0
C      1  0.5139130000000  0.4369760000000  0.5047820000000 1.0
C      1  0.4774730000000  0.5489190000000  0.5027730000000 1.0
C      1  0.5169100000000  0.5457340000000  0.5063210000000 1.0
C      1  0.5698320000000  0.5438320000000  0.4775680000000 1.0
C      1  0.5512930000000  0.4766460000000  0.5606590000000 1.0
C      1  0.4694500000000  0.5714100000000  0.5497610000000 1.0
C      1  0.4336510000000  0.5451870000000  0.5252210000000 1.0
C      1  0.4295510000000  0.4490110000000  0.4681450000000 1.0
C      1  0.5736730000000  0.4470380000000  0.5272420000000 1.0
C      1  0.4536270000000  0.4734200000000  0.4306230000000 1.0
C      1  0.4517910000000  0.5269400000000  0.5682360000000 1.0
C      1  0.5487950000000  0.5263550000000  0.4352700000000 1.0
C      1  0.5285200000000  0.5658100000000  0.4572940000000 1.0
C      1  0.5332680000000  0.4299350000000  0.5492070000000 1.0
C      1  0.4724220000000  0.4304820000000  0.4492630000000 1.0
C      1  0.4688850000000  0.5508380000000  0.5721090000000 1.0
C      1  0.5699150000000  0.4742940000000  0.5393820000000 1.0
C      1  0.5489290000000  0.5637180000000  0.4782600000000 1.0
C      1  0.5286350000000  0.5467260000000  0.4356500000000 1.0
C      1  0.4737770000000  0.4525660000000  0.4301540000000 1.0
C      1  0.5315480000000  0.4550820000000  0.5650650000000 1.0
C      1  0.4294990000000  0.4698900000000  0.4469110000000 1.0
C      1  0.5710110000000  0.5271000000000  0.4544220000000 1.0
C      1  0.4334710000000  0.5254620000000  0.5457570000000 1.0
C      1  0.4516210000000  0.5680120000000  0.5265550000000 1.0
C      1  0.5525760000000  0.4282160000000  0.5271260000000 1.0
C      1  0.4525710000000  0.4312350000000  0.4699600000000 1.0
C      1  0.4556420000000  0.4767800000000  0.5124330000000 1.0
C      1  0.5140660000000  0.4659450000000  0.4929290000000 1.0
C      1  0.4578550000000  0.5099400000000  0.4776130000000 1.0
C      1  0.5283860000000  0.5204740000000  0.5133710000000 1.0
END
