TITL C-2622954-8726-831 0.00359517133994289 125000 -780.723061399734 0 0 154 (C1) n - 1
REM
REM in /nfs/bkarasulu/CARBON/AIRSS/Generating-Clusters/AIREBO/with-SteepDescent/Higher-Symm/SD-CG/HFTN-CG
REM
REM
REM
REM
REM
REM ./C.cell (b20cbc046b6831c77cfcea5457e17084)
REM
REM compiler GCC version 9.2.1 20190827 (Red Hat 9.2.1-1)
REM options -cpp -mtune=generic -march=x86-64 -g -O0 -fpre-include=/usr/include/finclude/math-vector-fortran.h
REM seed 1985228037 -1945380779 66031198 762705732 -913302547 -1089389310 821936000 -1555754896 1854005516 1325423575 1251546026 -246604468 1240497352 1621723418 -2071911880 -1874333592 -1926849202 263557113 -2017868373 1757037763 1747471581 783108531 31267211 82957329 -25906248 -1076610509 -1340177605 -165309887 577439263 -176539454 -1305268046 -1652416559 -1705733972
REM
CELL 1.54180   50.00000   50.00000   50.00000   90.00000   90.00000   90.00000
LATT -1
SFAC C  
C      1  0.3955050000000  0.4634950000000  0.4600480000000 1.0
C      1  0.4713410000000  0.4184120000000  0.4801600000000 1.0
C      1  0.4565050000000  0.4629650000000  0.3897260000000 1.0
C      1  0.4091260000000  0.5276990000000  0.5270010000000 1.0
C      1  0.5954510000000  0.5333620000000  0.4720780000000 1.0
C      1  0.5949480000000  0.4869600000000  0.5296330000000 1.0
C      1  0.4828090000000  0.6106530000000  0.5373260000000 1.0
C      1  0.5267650000000  0.5826230000000  0.4692990000000 1.0
C      1  0.5245240000000  0.4075540000000  0.5223880000000 1.0
C      1  0.4729670000000  0.5331340000000  0.5962150000000 1.0
C      1  0.5216620000000  0.5143340000000  0.3989580000000 1.0
C      1  0.5242800000000  0.4745540000000  0.5910540000000 1.0
C      1  0.5221130000000  0.5249180000000  0.4295060000000 1.0
C      1  0.4405840000000  0.5331170000000  0.5387200000000 1.0
C      1  0.5353870000000  0.4398330000000  0.5234190000000 1.0
C      1  0.5226100000000  0.4638470000000  0.5601140000000 1.0
C      1  0.4672530000000  0.4573860000000  0.4215350000000 1.0
C      1  0.4744280000000  0.5360010000000  0.5621600000000 1.0
C      1  0.4297180000000  0.4639580000000  0.4586140000000 1.0
C      1  0.5669120000000  0.4763710000000  0.5337170000000 1.0
C      1  0.5635550000000  0.5364790000000  0.4647230000000 1.0
C      1  0.5462720000000  0.5609850000000  0.4809980000000 1.0
C      1  0.4698330000000  0.5793830000000  0.5305820000000 1.0
C      1  0.4547590000000  0.4476230000000  0.4748410000000 1.0
C      1  0.4926140000000  0.4716840000000  0.5461400000000 1.0
C      1  0.5608270000000  0.5092130000000  0.4849000000000 1.0
C      1  0.4897290000000  0.5751170000000  0.5033400000000 1.0
C      1  0.5111350000000  0.5063190000000  0.4552320000000 1.0
C      1  0.4956360000000  0.5099760000000  0.5568040000000 1.0
C      1  0.4923820000000  0.4802790000000  0.4208580000000 1.0
C      1  0.5446370000000  0.4991980000000  0.5355780000000 1.0
C      1  0.4271260000000  0.4896360000000  0.4807500000000 1.0
C      1  0.4538440000000  0.5145750000000  0.5134770000000 1.0
C      1  0.4554640000000  0.4477990000000  0.5088360000000 1.0
C      1  0.5134630000000  0.4371060000000  0.4981310000000 1.0
C      1  0.5279440000000  0.5529310000000  0.5076510000000 1.0
C      1  0.5865870000000  0.4348950000000  0.5200050000000 1.0
C      1  0.5244290000000  0.5629050000000  0.4173400000000 1.0
C      1  0.4113310000000  0.5393690000000  0.5811790000000 1.0
C      1  0.5881800000000  0.5740990000000  0.5033060000000 1.0
C      1  0.4241180000000  0.6108120000000  0.5334070000000 1.0
C      1  0.4156130000000  0.4199080000000  0.4786570000000 1.0
C      1  0.5395800000000  0.4073820000000  0.5647120000000 1.0
C      1  0.4735970000000  0.4182750000000  0.4262510000000 1.0
C      1  0.4702450000000  0.5761160000000  0.5763020000000 1.0
C      1  0.4215740000000  0.4606080000000  0.4090480000000 1.0
C      1  0.5707620000000  0.4549240000000  0.5836790000000 1.0
C      1  0.5933820000000  0.5737420000000  0.4427870000000 1.0
C      1  0.4205680000000  0.4447990000000  0.4320520000000 1.0
C      1  0.4365110000000  0.4224560000000  0.4610630000000 1.0
C      1  0.4498420000000  0.4124950000000  0.4385340000000 1.0
C      1  0.4303030000000  0.5499440000000  0.5645810000000 1.0
C      1  0.5709320000000  0.5583170000000  0.4402040000000 1.0
C      1  0.5839130000000  0.4314630000000  0.5762120000000 1.0
C      1  0.4409160000000  0.5921310000000  0.5431410000000 1.0
C      1  0.5704790000000  0.5810360000000  0.4866830000000 1.0
C      1  0.5858070000000  0.4236880000000  0.5450380000000 1.0
C      1  0.4431700000000  0.5751370000000  0.5667170000000 1.0
C      1  0.5510550000000  0.5606300000000  0.4210660000000 1.0
C      1  0.5675270000000  0.4062960000000  0.5650150000000 1.0
C      1  0.5561900000000  0.5469380000000  0.5955970000000 1.0
C      1  0.5947190000000  0.5529560000000  0.5545110000000 1.0
C      1  0.5437550000000  0.5973820000000  0.5691190000000 1.0
C      1  0.5714490000000  0.4725230000000  0.4122230000000 1.0
C      1  0.4538170000000  0.4466120000000  0.6032200000000 1.0
C      1  0.4363140000000  0.5346390000000  0.3959550000000 1.0
C      1  0.6008840000000  0.4507790000000  0.4555730000000 1.0
C      1  0.4001120000000  0.4522620000000  0.5572030000000 1.0
C      1  0.4068810000000  0.5520330000000  0.4430790000000 1.0
C      1  0.5450190000000  0.4092840000000  0.4409760000000 1.0
C      1  0.4539360000000  0.4075530000000  0.5627900000000 1.0
C      1  0.4602060000000  0.5792520000000  0.4369410000000 1.0
C      1  0.5721320000000  0.5684940000000  0.5381650000000 1.0
C      1  0.5117810000000  0.5497570000000  0.5751570000000 1.0
C      1  0.5733570000000  0.5021070000000  0.5632520000000 1.0
C      1  0.5571040000000  0.4356140000000  0.4821640000000 1.0
C      1  0.4272390000000  0.4274560000000  0.5285260000000 1.0
C      1  0.4446260000000  0.5680750000000  0.4875320000000 1.0
C      1  0.5257800000000  0.4481710000000  0.4180850000000 1.0
C      1  0.4970600000000  0.4375180000000  0.5751630000000 1.0
C      1  0.4718470000000  0.5547630000000  0.4250710000000 1.0
C      1  0.5744220000000  0.4932920000000  0.4355800000000 1.0
C      1  0.4329680000000  0.4897850000000  0.5631350000000 1.0
C      1  0.4215600000000  0.5057500000000  0.4314770000000 1.0
C      1  0.5302980000000  0.3824910000000  0.5233070000000 1.0
C      1  0.5251810000000  0.5240170000000  0.3742360000000 1.0
C      1  0.3852040000000  0.5238240000000  0.5347610000000 1.0
C      1  0.5365110000000  0.6042570000000  0.4556100000000 1.0
C      1  0.4779170000000  0.6321670000000  0.5524670000000 1.0
C      1  0.4571680000000  0.3968730000000  0.4894170000000 1.0
C      1  0.5314420000000  0.4644860000000  0.6148370000000 1.0
C      1  0.4435190000000  0.4507050000000  0.3698420000000 1.0
C      1  0.4654870000000  0.5461960000000  0.6183370000000 1.0
C      1  0.3743230000000  0.4597380000000  0.4441870000000 1.0
C      1  0.6160850000000  0.4836700000000  0.5463680000000 1.0
C      1  0.6151630000000  0.5374460000000  0.4537390000000 1.0
C      1  0.4508220000000  0.4379320000000  0.5506720000000 1.0
C      1  0.5510440000000  0.4610190000000  0.4368770000000 1.0
C      1  0.4298850000000  0.5339820000000  0.4485160000000 1.0
C      1  0.4533280000000  0.5556480000000  0.4604300000000 1.0
C      1  0.5448880000000  0.5725150000000  0.5513330000000 1.0
C      1  0.5416010000000  0.4359310000000  0.4559610000000 1.0
C      1  0.5436610000000  0.5443960000000  0.5686980000000 1.0
C      1  0.4517040000000  0.5329530000000  0.4224580000000 1.0
C      1  0.4678780000000  0.4510770000000  0.5765610000000 1.0
C      1  0.4278310000000  0.4629660000000  0.5494320000000 1.0
C      1  0.5766960000000  0.4690560000000  0.4585340000000 1.0
C      1  0.5701170000000  0.5311860000000  0.5519110000000 1.0
C      1  0.5549440000000  0.4735320000000  0.5642770000000 1.0
C      1  0.5839180000000  0.5446120000000  0.5170160000000 1.0
C      1  0.4910330000000  0.5639830000000  0.5522790000000 1.0
C      1  0.5529540000000  0.5165800000000  0.4413170000000 1.0
C      1  0.4557210000000  0.5085690000000  0.5567350000000 1.0
C      1  0.4418720000000  0.4785350000000  0.4296190000000 1.0
C      1  0.5619620000000  0.4554050000000  0.5086500000000 1.0
C      1  0.4150410000000  0.4411070000000  0.5017920000000 1.0
C      1  0.4486800000000  0.5571830000000  0.5158880000000 1.0
C      1  0.4961490000000  0.4418270000000  0.4304420000000 1.0
C      1  0.5232010000000  0.4317130000000  0.5541420000000 1.0
C      1  0.5007840000000  0.5483630000000  0.4336250000000 1.0
C      1  0.4983830000000  0.4198780000000  0.4766580000000 1.0
C      1  0.4690690000000  0.4892130000000  0.3982780000000 1.0
C      1  0.4043470000000  0.4678620000000  0.4891370000000 1.0
C      1  0.5048010000000  0.5968010000000  0.5227200000000 1.0
C      1  0.4996480000000  0.5781350000000  0.4738410000000 1.0
C      1  0.4990650000000  0.4282930000000  0.5249200000000 1.0
C      1  0.4810470000000  0.5059580000000  0.5872560000000 1.0
C      1  0.5188880000000  0.4885630000000  0.4136030000000 1.0
C      1  0.5184700000000  0.4994300000000  0.5777110000000 1.0
C      1  0.4281120000000  0.5345480000000  0.5010170000000 1.0
C      1  0.5968900000000  0.5248350000000  0.4986020000000 1.0
C      1  0.5941690000000  0.4978150000000  0.5037460000000 1.0
C      1  0.5353120000000  0.5130410000000  0.5585360000000 1.0
C      1  0.5519290000000  0.5366140000000  0.5235580000000 1.0
C      1  0.5189810000000  0.5701330000000  0.5337840000000 1.0
C      1  0.5350120000000  0.4885920000000  0.4397440000000 1.0
C      1  0.4713490000000  0.4806660000000  0.5683620000000 1.0
C      1  0.4625570000000  0.5054180000000  0.4271550000000 1.0
C      1  0.5730400000000  0.4793590000000  0.4867820000000 1.0
C      1  0.4314030000000  0.4658400000000  0.5184330000000 1.0
C      1  0.4249810000000  0.5187040000000  0.4758700000000 1.0
C      1  0.5113680000000  0.4429650000000  0.4588600000000 1.0
C      1  0.4776390000000  0.4467610000000  0.5317180000000 1.0
C      1  0.4857610000000  0.5517720000000  0.4624330000000 1.0
C      1  0.4825780000000  0.4923450000000  0.4513400000000 1.0
C      1  0.4513430000000  0.4864480000000  0.5000950000000 1.0
C      1  0.5038770000000  0.4651100000000  0.4842120000000 1.0
C      1  0.4977540000000  0.4982390000000  0.5269110000000 1.0
C      1  0.5373250000000  0.5119970000000  0.5051880000000 1.0
C      1  0.4983110000000  0.5436290000000  0.4937860000000 1.0
C      1  0.5155970000000  0.4858750000000  0.5039000000000 1.0
C      1  0.5167040000000  0.5205520000000  0.4805670000000 1.0
C      1  0.4827760000000  0.5212870000000  0.5122360000000 1.0
C      1  0.4742020000000  0.4754310000000  0.4771230000000 1.0
END
