TITL C-2622963-3633-11 -0.00173150178562172 125000 -601.158542697591 0 0 112 (C1) n - 1
REM
REM in /nfs/bkarasulu/CARBON/AIRSS/Generating-Clusters/AIREBO/with-SteepDescent/Higher-Symm/SD-CG/HFTN-CG
REM
REM
REM
REM
REM
REM ./C.cell (b20cbc046b6831c77cfcea5457e17084)
REM
REM compiler GCC version 9.2.1 20190827 (Red Hat 9.2.1-1)
REM options -cpp -mtune=generic -march=x86-64 -g -O0 -fpre-include=/usr/include/finclude/math-vector-fortran.h
REM seed -708959145 828707200 -1344548602 -1900811084 -163795440 -330331850 766024488 600260054 1990574964 -472390979 -410844319 1555603663 -1376656008 937069511 1630023924 1359941946 -1454964392 -854788539 306238664 -1280196928 387995176 1272506810 -403119932 -1188721604 1543727262 -703733020 169996433 -466608365 -2105338158 827944274 -1413868955 -574774735 -362118086
REM
CELL 1.54180   50.00000   50.00000   50.00000   90.00000   90.00000   90.00000
LATT -1
SFAC C  
C      1  0.4986300000000  0.5844680000000  0.4697850000000 1.0
C      1  0.5898710000000  0.4797590000000  0.4906540000000 1.0
C      1  0.4662130000000  0.4975460000000  0.5838190000000 1.0
C      1  0.4878130000000  0.4053770000000  0.5343390000000 1.0
C      1  0.5081550000000  0.5897920000000  0.5147610000000 1.0
C      1  0.5085950000000  0.4153360000000  0.4760500000000 1.0
C      1  0.5833880000000  0.5202620000000  0.4999940000000 1.0
C      1  0.4152520000000  0.4747800000000  0.4984610000000 1.0
C      1  0.4124320000000  0.5318940000000  0.4944530000000 1.0
C      1  0.4666040000000  0.5006000000000  0.4134810000000 1.0
C      1  0.5206160000000  0.5016710000000  0.4148680000000 1.0
C      1  0.5292170000000  0.5024410000000  0.5802460000000 1.0
C      1  0.4909910000000  0.4740820000000  0.5834970000000 1.0
C      1  0.5827940000000  0.5052580000000  0.4692620000000 1.0
C      1  0.4795150000000  0.5819050000000  0.4981220000000 1.0
C      1  0.4909120000000  0.5160570000000  0.4096620000000 1.0
C      1  0.5061580000000  0.5229820000000  0.5801010000000 1.0
C      1  0.5017370000000  0.4733310000000  0.4166820000000 1.0
C      1  0.5855650000000  0.4979710000000  0.5259330000000 1.0
C      1  0.4137460000000  0.5021190000000  0.4780390000000 1.0
C      1  0.4094260000000  0.4998210000000  0.5214220000000 1.0
C      1  0.4640100000000  0.4074300000000  0.5100300000000 1.0
C      1  0.5330410000000  0.4152430000000  0.4997770000000 1.0
C      1  0.5354170000000  0.5921700000000  0.5037130000000 1.0
C      1  0.4792110000000  0.5373950000000  0.5651160000000 1.0
C      1  0.5438310000000  0.5694620000000  0.4799110000000 1.0
C      1  0.5664470000000  0.4779710000000  0.5457550000000 1.0
C      1  0.4824510000000  0.4577700000000  0.4400150000000 1.0
C      1  0.5194350000000  0.5452890000000  0.4461880000000 1.0
C      1  0.5126100000000  0.4567760000000  0.5635670000000 1.0
C      1  0.5313500000000  0.4283170000000  0.5260650000000 1.0
C      1  0.4588370000000  0.5685710000000  0.5216940000000 1.0
C      1  0.4554750000000  0.4251840000000  0.4808150000000 1.0
C      1  0.5648100000000  0.5265810000000  0.4497580000000 1.0
C      1  0.4319380000000  0.4784340000000  0.4615910000000 1.0
C      1  0.4253990000000  0.5230990000000  0.5404130000000 1.0
C      1  0.4767750000000  0.5652500000000  0.5504340000000 1.0
C      1  0.5409090000000  0.4756930000000  0.5628130000000 1.0
C      1  0.5630950000000  0.5383200000000  0.4795230000000 1.0
C      1  0.4825830000000  0.4314760000000  0.4616050000000 1.0
C      1  0.5109680000000  0.4274740000000  0.5459900000000 1.0
C      1  0.5234260000000  0.5701740000000  0.4582970000000 1.0
C      1  0.5363250000000  0.5212900000000  0.4378330000000 1.0
C      1  0.4518760000000  0.5190140000000  0.5615910000000 1.0
C      1  0.4554750000000  0.4782440000000  0.4369570000000 1.0
C      1  0.5780850000000  0.4627680000000  0.5176510000000 1.0
C      1  0.4376720000000  0.4542420000000  0.4831910000000 1.0
C      1  0.4336990000000  0.5459900000000  0.5169570000000 1.0
C      1  0.5086600000000  0.5444810000000  0.5276450000000 1.0
C      1  0.5429010000000  0.5174100000000  0.4914990000000 1.0
C      1  0.5244300000000  0.5064930000000  0.5408460000000 1.0
C      1  0.5118960000000  0.4602910000000  0.4685430000000 1.0
C      1  0.4867520000000  0.5440910000000  0.4873790000000 1.0
C      1  0.4972780000000  0.4542880000000  0.5168780000000 1.0
C      1  0.5526260000000  0.4830900000000  0.5088190000000 1.0
C      1  0.4459380000000  0.5156730000000  0.5076050000000 1.0
C      1  0.4556180000000  0.4798010000000  0.4937960000000 1.0
C      1  0.5287110000000  0.4928580000000  0.4526980000000 1.0
C      1  0.4678930000000  0.5032520000000  0.4533200000000 1.0
C      1  0.4785780000000  0.4868980000000  0.5409250000000 1.0
C      1  0.4944870000000  0.5172490000000  0.5422910000000 1.0
C      1  0.5486040000000  0.5127510000000  0.5227540000000 1.0
C      1  0.5290710000000  0.5529060000000  0.5028380000000 1.0
C      1  0.4954030000000  0.4861040000000  0.4537860000000 1.0
C      1  0.5108760000000  0.4773380000000  0.5365450000000 1.0
C      1  0.4952450000000  0.5315230000000  0.4583350000000 1.0
C      1  0.5450690000000  0.4888940000000  0.4785180000000 1.0
C      1  0.4518120000000  0.4866560000000  0.5243450000000 1.0
C      1  0.4532270000000  0.5074830000000  0.4787320000000 1.0
C      1  0.5226740000000  0.4537410000000  0.4967340000000 1.0
C      1  0.4732110000000  0.4443060000000  0.4983960000000 1.0
C      1  0.4807220000000  0.5460140000000  0.5157340000000 1.0
C      1  0.5187930000000  0.4478360000000  0.4266090000000 1.0
C      1  0.4413290000000  0.4298110000000  0.5175850000000 1.0
C      1  0.4182090000000  0.5122220000000  0.4458290000000 1.0
C      1  0.5157430000000  0.5529070000000  0.5664760000000 1.0
C      1  0.4752470000000  0.4468570000000  0.5736040000000 1.0
C      1  0.4893600000000  0.5469450000000  0.4198930000000 1.0
C      1  0.4491660000000  0.5764960000000  0.4837070000000 1.0
C      1  0.5620130000000  0.4252070000000  0.4855850000000 1.0
C      1  0.5609630000000  0.5732140000000  0.5157620000000 1.0
C      1  0.4121970000000  0.4881210000000  0.5532670000000 1.0
C      1  0.5824640000000  0.5131750000000  0.5561890000000 1.0
C      1  0.5739810000000  0.4893490000000  0.4404260000000 1.0
C      1  0.5191840000000  0.4279880000000  0.4463170000000 1.0
C      1  0.4409880000000  0.5154650000000  0.4265810000000 1.0
C      1  0.4207490000000  0.4478710000000  0.5186050000000 1.0
C      1  0.5059820000000  0.5791050000000  0.5471070000000 1.0
C      1  0.4861960000000  0.5673890000000  0.4431370000000 1.0
C      1  0.4744100000000  0.4215640000000  0.5597400000000 1.0
C      1  0.4377500000000  0.4833410000000  0.5717490000000 1.0
C      1  0.5541470000000  0.4925950000000  0.4169310000000 1.0
C      1  0.5575670000000  0.5168770000000  0.5717510000000 1.0
C      1  0.4289560000000  0.5554700000000  0.4785330000000 1.0
C      1  0.5785870000000  0.5510880000000  0.5137400000000 1.0
C      1  0.5776590000000  0.4502000000000  0.4796870000000 1.0
C      1  0.4685050000000  0.5310890000000  0.4390310000000 1.0
C      1  0.4609420000000  0.4679150000000  0.5584780000000 1.0
C      1  0.5385540000000  0.4402490000000  0.4696670000000 1.0
C      1  0.5382490000000  0.4700140000000  0.4316030000000 1.0
C      1  0.5361060000000  0.5334590000000  0.5563670000000 1.0
C      1  0.5339380000000  0.5658830000000  0.5335070000000 1.0
C      1  0.5695030000000  0.5327970000000  0.5351070000000 1.0
C      1  0.4682380000000  0.5595090000000  0.4670860000000 1.0
C      1  0.4700410000000  0.4401990000000  0.5316340000000 1.0
C      1  0.5644520000000  0.4707360000000  0.4617030000000 1.0
C      1  0.4367920000000  0.5308520000000  0.4631500000000 1.0
C      1  0.4289360000000  0.4689900000000  0.5355950000000 1.0
C      1  0.5144210000000  0.5275970000000  0.4864030000000 1.0
C      1  0.4640590000000  0.5241460000000  0.5306220000000 1.0
C      1  0.5376870000000  0.4600170000000  0.5246130000000 1.0
C      1  0.4821430000000  0.4689290000000  0.4813090000000 1.0
END
