TITL C-2622958-629-450 0.00247048880254277 125000 -738.322914861758 0 0 151 (C1) n - 1
REM
REM in /nfs/bkarasulu/CARBON/AIRSS/Generating-Clusters/AIREBO/with-SteepDescent/Higher-Symm/SD-CG/HFTN-CG
REM
REM
REM
REM
REM
REM ./C.cell (b20cbc046b6831c77cfcea5457e17084)
REM
REM compiler GCC version 9.2.1 20190827 (Red Hat 9.2.1-1)
REM options -cpp -mtune=generic -march=x86-64 -g -O0 -fpre-include=/usr/include/finclude/math-vector-fortran.h
REM seed -1547294876 2005733798 -1312594903 1122647453 1277115628 -658662475 -1773961795 338712893 -2112375735 321140134 -1576784808 -1680028411 1613151719 -187037798 351992067 768081674 1759347743 49919244 -1159243176 1712323637 663244261 -1754451688 -1555763730 -476133788 -1398079683 -1858523469 -667831312 -317450395 -788416998 1714973234 2137005992 1661919782 859152436
REM
CELL 1.54180   50.00000   50.00000   50.00000   90.00000   90.00000   90.00000
LATT -1
SFAC C  
C      1  0.5833150000000  0.4753280000000  0.5141420000000 1.0
C      1  0.5216970000000  0.5899340000000  0.4766020000000 1.0
C      1  0.4687220000000  0.5231150000000  0.5895050000000 1.0
C      1  0.4135870000000  0.4799250000000  0.4880340000000 1.0
C      1  0.5803880000000  0.5220900000000  0.4788940000000 1.0
C      1  0.4148510000000  0.5251330000000  0.5179670000000 1.0
C      1  0.4847200000000  0.5879820000000  0.5236950000000 1.0
C      1  0.5152010000000  0.4181460000000  0.5278590000000 1.0
C      1  0.4827320000000  0.4234750000000  0.4767580000000 1.0
C      1  0.5246710000000  0.5200540000000  0.4103000000000 1.0
C      1  0.4789900000000  0.4896230000000  0.4085490000000 1.0
C      1  0.5195900000000  0.4876840000000  0.5897570000000 1.0
C      1  0.5546580000000  0.5116450000000  0.5594110000000 1.0
C      1  0.5595920000000  0.5706720000000  0.5109740000000 1.0
C      1  0.5199090000000  0.5605530000000  0.5516310000000 1.0
C      1  0.4398620000000  0.5033000000000  0.4425710000000 1.0
C      1  0.5600720000000  0.4912340000000  0.4374790000000 1.0
C      1  0.4354830000000  0.4881170000000  0.5660400000000 1.0
C      1  0.4498820000000  0.5574800000000  0.4840070000000 1.0
C      1  0.5598770000000  0.4301900000000  0.4917060000000 1.0
C      1  0.4497700000000  0.4458330000000  0.5123450000000 1.0
C      1  0.4918800000000  0.5625300000000  0.4444840000000 1.0
C      1  0.5074780000000  0.4436760000000  0.4420220000000 1.0
C      1  0.4905670000000  0.4477700000000  0.5564260000000 1.0
C      1  0.5711660000000  0.4471540000000  0.5186300000000 1.0
C      1  0.5142480000000  0.5858580000000  0.4460440000000 1.0
C      1  0.4394900000000  0.5161690000000  0.5787130000000 1.0
C      1  0.4259800000000  0.4480660000000  0.4881530000000 1.0
C      1  0.5780450000000  0.5544930000000  0.4886020000000 1.0
C      1  0.4247210000000  0.5557960000000  0.5068290000000 1.0
C      1  0.4893870000000  0.5746710000000  0.5525770000000 1.0
C      1  0.5145600000000  0.4237700000000  0.5596750000000 1.0
C      1  0.4840690000000  0.4188730000000  0.4449220000000 1.0
C      1  0.5532760000000  0.5202810000000  0.4231090000000 1.0
C      1  0.4495050000000  0.4807180000000  0.4213960000000 1.0
C      1  0.5493020000000  0.4852870000000  0.5802210000000 1.0
C      1  0.4919950000000  0.4766770000000  0.4584890000000 1.0
C      1  0.4669540000000  0.4942820000000  0.4733080000000 1.0
C      1  0.4779440000000  0.4745140000000  0.4987130000000 1.0
C      1  0.5143070000000  0.4727720000000  0.5362100000000 1.0
C      1  0.4949130000000  0.5212700000000  0.5275980000000 1.0
C      1  0.5035230000000  0.5251510000000  0.4522470000000 1.0
C      1  0.5431090000000  0.4891860000000  0.5286340000000 1.0
C      1  0.4674280000000  0.5020660000000  0.5332900000000 1.0
C      1  0.5216200000000  0.5108580000000  0.4772540000000 1.0
C      1  0.5230180000000  0.4646560000000  0.5043450000000 1.0
C      1  0.4791410000000  0.5382600000000  0.5027230000000 1.0
C      1  0.5314150000000  0.5349590000000  0.4991630000000 1.0
C      1  0.4904060000000  0.4905470000000  0.5526150000000 1.0
C      1  0.5401900000000  0.4841070000000  0.4870580000000 1.0
C      1  0.4961830000000  0.5487990000000  0.4755490000000 1.0
C      1  0.5228930000000  0.4888900000000  0.4513280000000 1.0
C      1  0.4717410000000  0.5140340000000  0.4475190000000 1.0
C      1  0.5233670000000  0.5110950000000  0.5432230000000 1.0
C      1  0.4520280000000  0.4791430000000  0.5187930000000 1.0
C      1  0.5520400000000  0.5187240000000  0.5153240000000 1.0
C      1  0.4549670000000  0.5225920000000  0.4879060000000 1.0
C      1  0.5124470000000  0.5497600000000  0.5215090000000 1.0
C      1  0.4891400000000  0.4538910000000  0.5233190000000 1.0
C      1  0.5150280000000  0.4564680000000  0.4728180000000 1.0
C      1  0.5619470000000  0.5385040000000  0.6038880000000 1.0
C      1  0.5961180000000  0.5752530000000  0.5460750000000 1.0
C      1  0.5512180000000  0.5900050000000  0.5773830000000 1.0
C      1  0.4240250000000  0.5402690000000  0.4065630000000 1.0
C      1  0.5808140000000  0.4509220000000  0.4090810000000 1.0
C      1  0.4213520000000  0.4470500000000  0.5965830000000 1.0
C      1  0.4116800000000  0.5739740000000  0.4528760000000 1.0
C      1  0.5911250000000  0.4366740000000  0.4512520000000 1.0
C      1  0.4133240000000  0.4187920000000  0.5445460000000 1.0
C      1  0.4607270000000  0.6036980000000  0.4333510000000 1.0
C      1  0.5429470000000  0.4058160000000  0.4266650000000 1.0
C      1  0.4638990000000  0.4052440000000  0.5756130000000 1.0
C      1  0.4446310000000  0.5469670000000  0.5686990000000 1.0
C      1  0.5654330000000  0.4370720000000  0.5506510000000 1.0
C      1  0.5455220000000  0.5757620000000  0.4478290000000 1.0
C      1  0.5574190000000  0.5525010000000  0.4265080000000 1.0
C      1  0.4483420000000  0.4536380000000  0.4310860000000 1.0
C      1  0.5576770000000  0.4587700000000  0.5756830000000 1.0
C      1  0.4350670000000  0.4380350000000  0.4569540000000 1.0
C      1  0.5716770000000  0.5559760000000  0.4571810000000 1.0
C      1  0.4316600000000  0.5551550000000  0.5383540000000 1.0
C      1  0.4564790000000  0.5742100000000  0.5526460000000 1.0
C      1  0.5463880000000  0.4123990000000  0.5518020000000 1.0
C      1  0.4525100000000  0.4106420000000  0.4546100000000 1.0
C      1  0.5569520000000  0.4722800000000  0.4637280000000 1.0
C      1  0.4742180000000  0.5811090000000  0.4813310000000 1.0
C      1  0.4712240000000  0.4712630000000  0.5706000000000 1.0
C      1  0.4326160000000  0.4686050000000  0.5403410000000 1.0
C      1  0.5692990000000  0.5325330000000  0.5369280000000 1.0
C      1  0.4139820000000  0.5152620000000  0.4610970000000 1.0
C      1  0.5292230000000  0.5853310000000  0.5154200000000 1.0
C      1  0.4763610000000  0.4249430000000  0.5160250000000 1.0
C      1  0.5302030000000  0.4280090000000  0.4795990000000 1.0
C      1  0.5258830000000  0.4681200000000  0.4271890000000 1.0
C      1  0.4729900000000  0.5406250000000  0.4296840000000 1.0
C      1  0.5053230000000  0.5430240000000  0.5736120000000 1.0
C      1  0.4860760000000  0.4665540000000  0.4287870000000 1.0
C      1  0.4394770000000  0.4785230000000  0.4660310000000 1.0
C      1  0.4654460000000  0.4474280000000  0.4822140000000 1.0
C      1  0.5184290000000  0.4623770000000  0.5693300000000 1.0
C      1  0.4795640000000  0.5325870000000  0.5557730000000 1.0
C      1  0.5180790000000  0.5463760000000  0.4300210000000 1.0
C      1  0.5737510000000  0.4885310000000  0.5433530000000 1.0
C      1  0.4359350000000  0.5093390000000  0.5394790000000 1.0
C      1  0.5521050000000  0.5130610000000  0.4623150000000 1.0
C      1  0.5383530000000  0.4403810000000  0.5166490000000 1.0
C      1  0.4627430000000  0.5639890000000  0.5148100000000 1.0
C      1  0.5394690000000  0.5621560000000  0.4849220000000 1.0
C      1  0.3862040000000  0.5074640000000  0.5166150000000 1.0
C      1  0.5040460000000  0.3900390000000  0.5122880000000 1.0
C      1  0.5117080000000  0.5147620000000  0.3823900000000 1.0
C      1  0.6094460000000  0.5081950000000  0.4860400000000 1.0
C      1  0.3868900000000  0.4852420000000  0.5039720000000 1.0
C      1  0.6096780000000  0.4878420000000  0.5011800000000 1.0
C      1  0.4845520000000  0.3935220000000  0.4928820000000 1.0
C      1  0.5100710000000  0.6171430000000  0.4905040000000 1.0
C      1  0.4921170000000  0.6148590000000  0.5082270000000 1.0
C      1  0.4830980000000  0.5102880000000  0.6117570000000 1.0
C      1  0.5018360000000  0.4936560000000  0.6142940000000 1.0
C      1  0.4907380000000  0.5003070000000  0.3815440000000 1.0
C      1  0.4420450000000  0.4573100000000  0.5774240000000 1.0
C      1  0.5628290000000  0.4424910000000  0.4618080000000 1.0
C      1  0.4632070000000  0.5798040000000  0.4433790000000 1.0
C      1  0.5574080000000  0.4593070000000  0.4259470000000 1.0
C      1  0.4404230000000  0.5357210000000  0.4317230000000 1.0
C      1  0.5547130000000  0.5384770000000  0.5788670000000 1.0
C      1  0.4367690000000  0.4375480000000  0.5427260000000 1.0
C      1  0.5694590000000  0.5627670000000  0.5384010000000 1.0
C      1  0.4393470000000  0.5607710000000  0.4529700000000 1.0
C      1  0.5482910000000  0.5639180000000  0.5614940000000 1.0
C      1  0.4608490000000  0.4326780000000  0.5634250000000 1.0
C      1  0.5402600000000  0.4331540000000  0.4393110000000 1.0
C      1  0.4727150000000  0.4381800000000  0.4230400000000 1.0
C      1  0.4103520000000  0.4612080000000  0.4598210000000 1.0
C      1  0.4588960000000  0.3914800000000  0.4747630000000 1.0
C      1  0.5363850000000  0.4363750000000  0.5812030000000 1.0
C      1  0.4751140000000  0.5545790000000  0.5817670000000 1.0
C      1  0.5327320000000  0.5669440000000  0.4109920000000 1.0
C      1  0.5882520000000  0.4622720000000  0.5513920000000 1.0
C      1  0.4122060000000  0.5315130000000  0.5512660000000 1.0
C      1  0.5796790000000  0.5252500000000  0.4450180000000 1.0
C      1  0.5331960000000  0.3894140000000  0.5304890000000 1.0
C      1  0.4450730000000  0.5904510000000  0.5259420000000 1.0
C      1  0.5556770000000  0.5915900000000  0.4761560000000 1.0
C      1  0.5084030000000  0.5106730000000  0.5720410000000 1.0
C      1  0.5671420000000  0.4970190000000  0.4976790000000 1.0
C      1  0.5022720000000  0.5729110000000  0.4987600000000 1.0
C      1  0.5045080000000  0.5019030000000  0.4272570000000 1.0
C      1  0.4244240000000  0.5121340000000  0.4893350000000 1.0
C      1  0.5051520000000  0.4273510000000  0.4980840000000 1.0
C      1  0.5000940000000  0.5002360000000  0.5013770000000 1.0
END
