TITL C-2622959-7779-398 0.00076115913152398 125000 -240.868466203836 0 0 43 (C1) n - 1
REM
REM in /nfs/bkarasulu/CARBON/AIRSS/Generating-Clusters/AIREBO/with-SteepDescent/Higher-Symm/SD-CG/HFTN-CG
REM
REM
REM
REM
REM
REM ./C.cell (b20cbc046b6831c77cfcea5457e17084)
REM
REM compiler GCC version 9.2.1 20190827 (Red Hat 9.2.1-1)
REM options -cpp -mtune=generic -march=x86-64 -g -O0 -fpre-include=/usr/include/finclude/math-vector-fortran.h
REM seed -1938156923 38053675 1572686022 -279514177 -89142549 -1694018597 -1956346187 -900510225 1556053509 433955317 1564188740 1221812610 1883750106 1204389948 293856893 -571484408 1361353368 1977322045 -1681744803 1678067416 350543034 -217027741 683570601 1689544606 734508638 -331580901 1544467463 797911907 1296062987 2078405711 -81775498 1898400031 203488967
REM
CELL 1.54180   50.00000   50.00000   50.00000   90.00000   90.00000   90.00000
LATT -1
SFAC C  
C      1  0.4823280000000  0.4833200000000  0.4854600000000 1.0
C      1  0.5099450000000  0.4405470000000  0.5266120000000 1.0
C      1  0.4612050000000  0.4583390000000  0.4761680000000 1.0
C      1  0.5267840000000  0.4496980000000  0.4672760000000 1.0
C      1  0.4995030000000  0.5258070000000  0.4517830000000 1.0
C      1  0.4308870000000  0.4937580000000  0.5008260000000 1.0
C      1  0.4475250000000  0.4992790000000  0.4518110000000 1.0
C      1  0.4838490000000  0.4922030000000  0.5297150000000 1.0
C      1  0.4965520000000  0.4422930000000  0.5508350000000 1.0
C      1  0.5529370000000  0.4647680000000  0.5099630000000 1.0
C      1  0.4862220000000  0.5290100000000  0.4823710000000 1.0
C      1  0.4302650000000  0.4886890000000  0.5300520000000 1.0
C      1  0.4627020000000  0.4336420000000  0.4876660000000 1.0
C      1  0.5008570000000  0.4585840000000  0.4712580000000 1.0
C      1  0.5109900000000  0.5421130000000  0.5230570000000 1.0
C      1  0.4642150000000  0.5271350000000  0.5253140000000 1.0
C      1  0.4980690000000  0.5145590000000  0.5082620000000 1.0
C      1  0.5064150000000  0.4943670000000  0.5700900000000 1.0
C      1  0.4756830000000  0.5053060000000  0.4603840000000 1.0
C      1  0.5125530000000  0.5396170000000  0.5538820000000 1.0
C      1  0.5268280000000  0.5446020000000  0.4489780000000 1.0
C      1  0.5489520000000  0.4693800000000  0.4554100000000 1.0
C      1  0.4685780000000  0.5196720000000  0.5544580000000 1.0
C      1  0.5711850000000  0.5113190000000  0.5145020000000 1.0
C      1  0.5543910000000  0.4539010000000  0.4839850000000 1.0
C      1  0.4246200000000  0.4920350000000  0.4739630000000 1.0
C      1  0.4533510000000  0.4940800000000  0.5448260000000 1.0
C      1  0.5334310000000  0.5604640000000  0.4699970000000 1.0
C      1  0.4857680000000  0.5602480000000  0.4896550000000 1.0
C      1  0.5346770000000  0.5485360000000  0.5018130000000 1.0
C      1  0.5416150000000  0.4965730000000  0.4574220000000 1.0
C      1  0.5502690000000  0.5225820000000  0.4995790000000 1.0
C      1  0.4952250000000  0.5199510000000  0.5650270000000 1.0
C      1  0.5133830000000  0.4888180000000  0.4981970000000 1.0
C      1  0.5364580000000  0.5034300000000  0.4842890000000 1.0
C      1  0.5114250000000  0.5713310000000  0.4890680000000 1.0
C      1  0.4610130000000  0.5000350000000  0.5060700000000 1.0
C      1  0.5043860000000  0.4749340000000  0.5458550000000 1.0
C      1  0.4791910000000  0.5486220000000  0.5164780000000 1.0
C      1  0.5290620000000  0.5144720000000  0.4403560000000 1.0
C      1  0.5713890000000  0.4839610000000  0.5192840000000 1.0
C      1  0.5242760000000  0.4691140000000  0.5186250000000 1.0
C      1  0.4410380000000  0.4689060000000  0.4593770000000 1.0
END
