TITL C-2622956-4641-98 -0.000123147993195534 125000 -329.518191583594 0 0 61 (C1) n - 1
REM
REM in /nfs/bkarasulu/CARBON/AIRSS/Generating-Clusters/AIREBO/with-SteepDescent/Higher-Symm/SD-CG/HFTN-CG
REM
REM
REM
REM
REM
REM ./C.cell (b20cbc046b6831c77cfcea5457e17084)
REM
REM compiler GCC version 9.2.1 20190827 (Red Hat 9.2.1-1)
REM options -cpp -mtune=generic -march=x86-64 -g -O0 -fpre-include=/usr/include/finclude/math-vector-fortran.h
REM seed -128286557 -1955288361 -729034553 494177420 27873401 2001036702 2013613981 -1272707909 1855822090 1284475890 -1488543934 1891045523 758043470 -1038649613 -2294993 32108137 732719127 1432145055 -1645183539 -1088248398 1815356095 -1496725650 614543605 1660499897 -1102050258 -1162761987 1553276814 931434915 1476482910 -1665252426 1262866154 -552806016 1614805429
REM
CELL 1.54180   50.00000   50.00000   50.00000   90.00000   90.00000   90.00000
LATT -1
SFAC C  
C      1  0.5562410000000  0.5529590000000  0.4626200000000 1.0
C      1  0.4559700000000  0.5414730000000  0.5174830000000 1.0
C      1  0.5121990000000  0.4787820000000  0.4894140000000 1.0
C      1  0.5468640000000  0.5470720000000  0.5381940000000 1.0
C      1  0.5247080000000  0.5305300000000  0.4574360000000 1.0
C      1  0.5411520000000  0.4417840000000  0.4869200000000 1.0
C      1  0.5203310000000  0.4648600000000  0.5302170000000 1.0
C      1  0.5163080000000  0.5082590000000  0.5472480000000 1.0
C      1  0.4328740000000  0.4835000000000  0.4790220000000 1.0
C      1  0.4503690000000  0.5231530000000  0.4899970000000 1.0
C      1  0.4949180000000  0.5399950000000  0.4708210000000 1.0
C      1  0.4764900000000  0.5753850000000  0.4683150000000 1.0
C      1  0.5061130000000  0.5371370000000  0.5559270000000 1.0
C      1  0.5246000000000  0.5644490000000  0.4598760000000 1.0
C      1  0.4938870000000  0.4705330000000  0.5728480000000 1.0
C      1  0.4496650000000  0.4422940000000  0.4631730000000 1.0
C      1  0.4659860000000  0.4707940000000  0.4606330000000 1.0
C      1  0.5295230000000  0.4181780000000  0.4976580000000 1.0
C      1  0.4460530000000  0.4906060000000  0.5294800000000 1.0
C      1  0.4397920000000  0.4741050000000  0.5080720000000 1.0
C      1  0.5284370000000  0.4514320000000  0.4631380000000 1.0
C      1  0.5437820000000  0.5168430000000  0.5326520000000 1.0
C      1  0.5693540000000  0.5058380000000  0.5208500000000 1.0
C      1  0.4713580000000  0.4486110000000  0.5333430000000 1.0
C      1  0.5534030000000  0.5221660000000  0.4748780000000 1.0
C      1  0.5282520000000  0.5534600000000  0.5585470000000 1.0
C      1  0.5502360000000  0.4908470000000  0.4877630000000 1.0
C      1  0.5197910000000  0.5031330000000  0.4432930000000 1.0
C      1  0.5142780000000  0.5341390000000  0.4957820000000 1.0
C      1  0.4672070000000  0.5514460000000  0.4868760000000 1.0
C      1  0.4977160000000  0.4629780000000  0.4542020000000 1.0
C      1  0.4815050000000  0.5501030000000  0.5376350000000 1.0
C      1  0.4950200000000  0.4876660000000  0.5313360000000 1.0
C      1  0.5366550000000  0.5557250000000  0.4904500000000 1.0
C      1  0.4948400000000  0.4498050000000  0.4847610000000 1.0
C      1  0.4982210000000  0.4413150000000  0.5280400000000 1.0
C      1  0.4588450000000  0.4830290000000  0.4297200000000 1.0
C      1  0.5791420000000  0.4805310000000  0.4750570000000 1.0
C      1  0.4489790000000  0.4852980000000  0.5764610000000 1.0
C      1  0.5030660000000  0.4260330000000  0.5041890000000 1.0
C      1  0.5704320000000  0.4787460000000  0.5201960000000 1.0
C      1  0.4653700000000  0.4409240000000  0.4871960000000 1.0
C      1  0.5762260000000  0.5193830000000  0.4981200000000 1.0
C      1  0.5518260000000  0.5619700000000  0.5161630000000 1.0
C      1  0.5443560000000  0.4644740000000  0.5084270000000 1.0
C      1  0.4922610000000  0.5248880000000  0.5172840000000 1.0
C      1  0.4379020000000  0.5206370000000  0.5341030000000 1.0
C      1  0.5258310000000  0.5061760000000  0.5058160000000 1.0
C      1  0.4733730000000  0.5181590000000  0.5447470000000 1.0
C      1  0.4659700000000  0.5135030000000  0.4416980000000 1.0
C      1  0.4357890000000  0.4950390000000  0.4516420000000 1.0
C      1  0.4538210000000  0.4493380000000  0.5108320000000 1.0
C      1  0.4909090000000  0.4923440000000  0.4383310000000 1.0
C      1  0.4875380000000  0.4956620000000  0.5019270000000 1.0
C      1  0.5311520000000  0.4831660000000  0.4620480000000 1.0
C      1  0.4987940000000  0.5793560000000  0.4579400000000 1.0
C      1  0.5188120000000  0.4778530000000  0.5615430000000 1.0
C      1  0.4690860000000  0.4767100000000  0.5504150000000 1.0
C      1  0.4732020000000  0.5391970000000  0.4493780000000 1.0
C      1  0.4639120000000  0.4952560000000  0.4842090000000 1.0
C      1  0.4493090000000  0.5109740000000  0.5636620000000 1.0
END
