TITL C-2622958-629-658 -0.000497953548831588 125000 -927.103365903309 0 0 168 (C1) n - 1
REM
REM in /nfs/bkarasulu/CARBON/AIRSS/Generating-Clusters/AIREBO/with-SteepDescent/Higher-Symm/SD-CG/HFTN-CG
REM
REM
REM
REM
REM
REM ./C.cell (b20cbc046b6831c77cfcea5457e17084)
REM
REM compiler GCC version 9.2.1 20190827 (Red Hat 9.2.1-1)
REM options -cpp -mtune=generic -march=x86-64 -g -O0 -fpre-include=/usr/include/finclude/math-vector-fortran.h
REM seed 1641317982 1500484720 1506234585 656311636 854099061 1802356301 768080586 -1833455993 -1518139634 -84889900 -1199618967 830656504 -462305549 -584387144 645130005 -1167381196 489382143 1750479791 -1886057513 379427643 -1459452632 -1844645679 -683448271 254894600 -89663065 1244424402 -1487285021 957604559 1348817101 722435532 1446885528 1930862438 -2060648652
REM
CELL 1.54180   50.00000   50.00000   50.00000   90.00000   90.00000   90.00000
LATT -1
SFAC C  
C      1  0.4706540000000  0.4906290000000  0.4828050000000 1.0
C      1  0.4826050000000  0.5225900000000  0.4823970000000 1.0
C      1  0.5117340000000  0.5177430000000  0.4717730000000 1.0
C      1  0.5481990000000  0.4976840000000  0.4868760000000 1.0
C      1  0.4950180000000  0.4709520000000  0.4776920000000 1.0
C      1  0.4544940000000  0.4960760000000  0.5529620000000 1.0
C      1  0.4900140000000  0.5446580000000  0.5669530000000 1.0
C      1  0.5314100000000  0.5275650000000  0.5483950000000 1.0
C      1  0.5315580000000  0.4786600000000  0.5563620000000 1.0
C      1  0.4774660000000  0.4552530000000  0.5726300000000 1.0
C      1  0.4063380000000  0.4559160000000  0.4953170000000 1.0
C      1  0.4295590000000  0.5710230000000  0.4969860000000 1.0
C      1  0.5491580000000  0.5989590000000  0.4927760000000 1.0
C      1  0.6012000000000  0.4848920000000  0.4844840000000 1.0
C      1  0.5141300000000  0.4016260000000  0.5024670000000 1.0
C      1  0.4785790000000  0.4405290000000  0.4451740000000 1.0
C      1  0.4359800000000  0.4985180000000  0.4498980000000 1.0
C      1  0.4723160000000  0.5658620000000  0.4480110000000 1.0
C      1  0.5547610000000  0.5440140000000  0.4392480000000 1.0
C      1  0.5531780000000  0.4561010000000  0.4597660000000 1.0
C      1  0.5259340000000  0.5645880000000  0.5640090000000 1.0
C      1  0.5812830000000  0.4923030000000  0.5613100000000 1.0
C      1  0.5088380000000  0.4308310000000  0.5754830000000 1.0
C      1  0.4384930000000  0.4665190000000  0.5745310000000 1.0
C      1  0.4451500000000  0.5428080000000  0.5769270000000 1.0
C      1  0.4508840000000  0.5290270000000  0.4928070000000 1.0
C      1  0.5170880000000  0.5477000000000  0.4869570000000 1.0
C      1  0.5626510000000  0.5255540000000  0.4840150000000 1.0
C      1  0.5391070000000  0.4524480000000  0.4991230000000 1.0
C      1  0.4708280000000  0.4493380000000  0.5010500000000 1.0
C      1  0.5828380000000  0.5524250000000  0.4453980000000 1.0
C      1  0.5726160000000  0.4308690000000  0.4574150000000 1.0
C      1  0.4599880000000  0.4154450000000  0.4486070000000 1.0
C      1  0.4102790000000  0.5147060000000  0.4538000000000 1.0
C      1  0.4835880000000  0.5943470000000  0.4535330000000 1.0
C      1  0.4206600000000  0.5341600000000  0.5018240000000 1.0
C      1  0.5139190000000  0.5807210000000  0.4944110000000 1.0
C      1  0.5930250000000  0.5264820000000  0.4942440000000 1.0
C      1  0.5475420000000  0.4199710000000  0.5051630000000 1.0
C      1  0.4399140000000  0.4354730000000  0.4984890000000 1.0
C      1  0.4244410000000  0.5490890000000  0.4714960000000 1.0
C      1  0.5280310000000  0.5960910000000  0.4699650000000 1.0
C      1  0.5937770000000  0.5066170000000  0.4677100000000 1.0
C      1  0.5298980000000  0.4166470000000  0.4763510000000 1.0
C      1  0.4259950000000  0.4467390000000  0.4696230000000 1.0
C      1  0.5738820000000  0.5811260000000  0.5232850000000 1.0
C      1  0.6026190000000  0.4524160000000  0.5261020000000 1.0
C      1  0.4710990000000  0.3907350000000  0.5225690000000 1.0
C      1  0.3941270000000  0.4926820000000  0.5223810000000 1.0
C      1  0.4597970000000  0.5996670000000  0.5250070000000 1.0
C      1  0.4721150000000  0.5609860000000  0.5238760000000 1.0
C      1  0.5455780000000  0.5452260000000  0.5276790000000 1.0
C      1  0.5539780000000  0.4654240000000  0.5260550000000 1.0
C      1  0.4802230000000  0.4301960000000  0.5259360000000 1.0
C      1  0.4377820000000  0.4852760000000  0.5253770000000 1.0
C      1  0.5433980000000  0.5166300000000  0.4124530000000 1.0
C      1  0.5405410000000  0.4578350000000  0.4157050000000 1.0
C      1  0.4730210000000  0.4565290000000  0.4056270000000 1.0
C      1  0.4465400000000  0.5159740000000  0.4091790000000 1.0
C      1  0.4879310000000  0.5660770000000  0.4112110000000 1.0
C      1  0.5490350000000  0.5490740000000  0.4960760000000 1.0
C      1  0.5641680000000  0.4699050000000  0.4863740000000 1.0
C      1  0.4968310000000  0.4377460000000  0.4825160000000 1.0
C      1  0.4416950000000  0.4831400000000  0.4748030000000 1.0
C      1  0.4698030000000  0.5538580000000  0.4785120000000 1.0
C      1  0.3848240000000  0.4258540000000  0.5344660000000 1.0
C      1  0.3968070000000  0.5745580000000  0.5390690000000 1.0
C      1  0.5286600000000  0.6260990000000  0.5331460000000 1.0
C      1  0.6264230000000  0.4955650000000  0.5265770000000 1.0
C      1  0.5344920000000  0.3792550000000  0.5459700000000 1.0
C      1  0.5229570000000  0.5700700000000  0.5225800000000 1.0
C      1  0.5723890000000  0.4939130000000  0.5285280000000 1.0
C      1  0.5093310000000  0.4295880000000  0.5415030000000 1.0
C      1  0.4328860000000  0.4533170000000  0.5249730000000 1.0
C      1  0.4453580000000  0.5470840000000  0.5337160000000 1.0
C      1  0.4775320000000  0.4946340000000  0.6110750000000 1.0
C      1  0.4873290000000  0.5215060000000  0.6063030000000 1.0
C      1  0.5162050000000  0.5200910000000  0.6013870000000 1.0
C      1  0.5240110000000  0.4926360000000  0.6054130000000 1.0
C      1  0.5006640000000  0.4766980000000  0.6119430000000 1.0
C      1  0.4752410000000  0.5253680000000  0.4433110000000 1.0
C      1  0.5013990000000  0.5386330000000  0.4261040000000 1.0
C      1  0.5387310000000  0.4939010000000  0.4543100000000 1.0
C      1  0.5040640000000  0.4711840000000  0.4480650000000 1.0
C      1  0.4844170000000  0.4942410000000  0.4375870000000 1.0
C      1  0.5878770000000  0.4282600000000  0.4810560000000 1.0
C      1  0.4624800000000  0.4007750000000  0.4723240000000 1.0
C      1  0.4000890000000  0.5087400000000  0.4789320000000 1.0
C      1  0.4737010000000  0.6037360000000  0.4777520000000 1.0
C      1  0.5890890000000  0.5659040000000  0.4705490000000 1.0
C      1  0.5283800000000  0.4990420000000  0.5096320000000 1.0
C      1  0.5124290000000  0.4717050000000  0.5071690000000 1.0
C      1  0.4799220000000  0.4794100000000  0.5135340000000 1.0
C      1  0.4806120000000  0.5125710000000  0.5148290000000 1.0
C      1  0.5105250000000  0.5244820000000  0.5109330000000 1.0
C      1  0.4361670000000  0.5414900000000  0.4182660000000 1.0
C      1  0.5157290000000  0.5759430000000  0.4261370000000 1.0
C      1  0.5650010000000  0.5050360000000  0.4263190000000 1.0
C      1  0.5303260000000  0.4319070000000  0.4269510000000 1.0
C      1  0.4492670000000  0.4566740000000  0.4232210000000 1.0
C      1  0.5019270000000  0.4500610000000  0.4223440000000 1.0
C      1  0.4539780000000  0.4883580000000  0.4274950000000 1.0
C      1  0.4563570000000  0.5617660000000  0.4205830000000 1.0
C      1  0.5329740000000  0.5485560000000  0.4177520000000 1.0
C      1  0.5569800000000  0.4751990000000  0.4349520000000 1.0
C      1  0.4540250000000  0.4364340000000  0.5404000000000 1.0
C      1  0.4306660000000  0.5176650000000  0.5291880000000 1.0
C      1  0.4960490000000  0.5702280000000  0.5368530000000 1.0
C      1  0.5740810000000  0.5272620000000  0.5220850000000 1.0
C      1  0.5423240000000  0.4344930000000  0.5341260000000 1.0
C      1  0.4981950000000  0.4533640000000  0.5971920000000 1.0
C      1  0.4590960000000  0.4881110000000  0.5857060000000 1.0
C      1  0.4727870000000  0.5357950000000  0.5868480000000 1.0
C      1  0.5315790000000  0.5356920000000  0.5810190000000 1.0
C      1  0.5414160000000  0.4810200000000  0.5876790000000 1.0
C      1  0.4799100000000  0.4163170000000  0.5650280000000 1.0
C      1  0.4178590000000  0.4841900000000  0.5634950000000 1.0
C      1  0.4603520000000  0.5711060000000  0.5657280000000 1.0
C      1  0.5578940000000  0.5513530000000  0.5662390000000 1.0
C      1  0.5653450000000  0.4641740000000  0.5718480000000 1.0
C      1  0.4002130000000  0.4754490000000  0.5439580000000 1.0
C      1  0.4472340000000  0.5851940000000  0.5454450000000 1.0
C      1  0.5522860000000  0.5793140000000  0.5474710000000 1.0
C      1  0.5879870000000  0.4621270000000  0.5470170000000 1.0
C      1  0.4855720000000  0.3960780000000  0.5459780000000 1.0
C      1  0.5930360000000  0.4556190000000  0.4951770000000 1.0
C      1  0.4820530000000  0.4111190000000  0.4976480000000 1.0
C      1  0.4172940000000  0.4865630000000  0.4982530000000 1.0
C      1  0.4611550000000  0.5795780000000  0.4976030000000 1.0
C      1  0.5672350000000  0.5739050000000  0.4907190000000 1.0
C      1  0.4528280000000  0.4357240000000  0.5722830000000 1.0
C      1  0.4287190000000  0.5165250000000  0.5628950000000 1.0
C      1  0.4941440000000  0.5758520000000  0.5685990000000 1.0
C      1  0.5715670000000  0.5242540000000  0.5545530000000 1.0
C      1  0.5371780000000  0.4462690000000  0.5647670000000 1.0
C      1  0.5225390000000  0.5009990000000  0.4000480000000 1.0
C      1  0.5189370000000  0.4732450000000  0.4029210000000 1.0
C      1  0.4719320000000  0.4773540000000  0.3864570000000 1.0
C      1  0.4706590000000  0.5043560000000  0.3948660000000 1.0
C      1  0.4972340000000  0.5474980000000  0.3869190000000 1.0
C      1  0.6022740000000  0.4905630000000  0.5141720000000 1.0
C      1  0.5161040000000  0.3968220000000  0.5354210000000 1.0
C      1  0.4007050000000  0.4470590000000  0.5277130000000 1.0
C      1  0.4225240000000  0.5703910000000  0.5302850000000 1.0
C      1  0.5386960000000  0.5993810000000  0.5235520000000 1.0
C      1  0.4594650000000  0.4547470000000  0.4694640000000 1.0
C      1  0.4478530000000  0.5269790000000  0.4591750000000 1.0
C      1  0.5028120000000  0.5535570000000  0.4566390000000 1.0
C      1  0.5482370000000  0.5240200000000  0.4571590000000 1.0
C      1  0.5232000000000  0.4473930000000  0.4630920000000 1.0
C      1  0.5407480000000  0.5008980000000  0.5388320000000 1.0
C      1  0.5104550000000  0.4625890000000  0.5399220000000 1.0
C      1  0.4800340000000  0.4749080000000  0.5450000000000 1.0
C      1  0.4684480000000  0.5239820000000  0.5404410000000 1.0
C      1  0.5016210000000  0.5311590000000  0.5428200000000 1.0
C      1  0.5762930000000  0.4108770000000  0.4989970000000 1.0
C      1  0.4427430000000  0.4051970000000  0.4933450000000 1.0
C      1  0.3879220000000  0.5296240000000  0.4954070000000 1.0
C      1  0.4930920000000  0.6035580000000  0.4991210000000 1.0
C      1  0.6081700000000  0.5519660000000  0.4855630000000 1.0
C      1  0.5852530000000  0.5185790000000  0.4431930000000 1.0
C      1  0.5457490000000  0.4189420000000  0.4470020000000 1.0
C      1  0.4391340000000  0.4370420000000  0.4402890000000 1.0
C      1  0.4160590000000  0.5408970000000  0.4395590000000 1.0
C      1  0.5115040000000  0.5940550000000  0.4470880000000 1.0
C      1  0.4969880000000  0.5179840000000  0.3991540000000 1.0
C      1  0.5135180000000  0.5110760000000  0.4421520000000 1.0
C      1  0.4912240000000  0.4873700000000  0.5745910000000 1.0
END
