TITL C-2622954-8726-200 0.00225863799657795 125000 -569.280262133153 0 0 108 (C1) n - 1
REM
REM in /nfs/bkarasulu/CARBON/AIRSS/Generating-Clusters/AIREBO/with-SteepDescent/Higher-Symm/SD-CG/HFTN-CG
REM
REM
REM
REM
REM
REM ./C.cell (b20cbc046b6831c77cfcea5457e17084)
REM
REM compiler GCC version 9.2.1 20190827 (Red Hat 9.2.1-1)
REM options -cpp -mtune=generic -march=x86-64 -g -O0 -fpre-include=/usr/include/finclude/math-vector-fortran.h
REM seed -1377107484 -57845154 -1825100117 1672901394 -721363777 158986571 941257349 188816664 1017934798 -711762964 968170934 492413422 1503481694 2061706364 221417133 -753958868 836531456 1597398796 -1812881162 1263375402 -1416818458 -1430144831 -967338006 1577895615 1407679735 1830604371 -81605853 -1018701940 -876122272 -1611599555 -1355940759 847071200 -446612859
REM
CELL 1.54180   50.00000   50.00000   50.00000   90.00000   90.00000   90.00000
LATT -1
SFAC C  
C      1  0.4931240000000  0.5018400000000  0.5374530000000 1.0
C      1  0.4649470000000  0.4829130000000  0.5394980000000 1.0
C      1  0.5153570000000  0.4693460000000  0.5305880000000 1.0
C      1  0.5319640000000  0.4991250000000  0.5286420000000 1.0
C      1  0.5143920000000  0.5279560000000  0.5327360000000 1.0
C      1  0.5254580000000  0.5221060000000  0.4592200000000 1.0
C      1  0.5145230000000  0.4906450000000  0.4664170000000 1.0
C      1  0.5012390000000  0.4597620000000  0.4612160000000 1.0
C      1  0.4940090000000  0.5083800000000  0.4796610000000 1.0
C      1  0.4811200000000  0.5298620000000  0.4566590000000 1.0
C      1  0.4542380000000  0.4849920000000  0.4677760000000 1.0
C      1  0.5086220000000  0.4275780000000  0.4530630000000 1.0
C      1  0.5588720000000  0.4821570000000  0.4552080000000 1.0
C      1  0.5514680000000  0.5624770000000  0.4630430000000 1.0
C      1  0.4507750000000  0.5450490000000  0.4544760000000 1.0
C      1  0.5628960000000  0.4549800000000  0.5362970000000 1.0
C      1  0.4939110000000  0.4302900000000  0.5412390000000 1.0
C      1  0.4314700000000  0.4889080000000  0.5400280000000 1.0
C      1  0.4649580000000  0.5445080000000  0.5351900000000 1.0
C      1  0.5455230000000  0.5388510000000  0.5388610000000 1.0
C      1  0.4577430000000  0.4421450000000  0.4391940000000 1.0
C      1  0.5410820000000  0.4301730000000  0.4628430000000 1.0
C      1  0.5726620000000  0.4984890000000  0.4301610000000 1.0
C      1  0.5292100000000  0.5725440000000  0.4474730000000 1.0
C      1  0.4418100000000  0.5571860000000  0.4333240000000 1.0
C      1  0.5789930000000  0.4382220000000  0.5476850000000 1.0
C      1  0.4848260000000  0.4105220000000  0.5622760000000 1.0
C      1  0.4156630000000  0.4795720000000  0.5586000000000 1.0
C      1  0.4392040000000  0.5633720000000  0.5468940000000 1.0
C      1  0.5581670000000  0.5559120000000  0.5635250000000 1.0
C      1  0.5035830000000  0.5277700000000  0.5798910000000 1.0
C      1  0.4666180000000  0.5414020000000  0.5748630000000 1.0
C      1  0.4558710000000  0.4895550000000  0.5715980000000 1.0
C      1  0.4978690000000  0.4722720000000  0.5758680000000 1.0
C      1  0.5390980000000  0.4955720000000  0.5678170000000 1.0
C      1  0.4905810000000  0.5205560000000  0.4253430000000 1.0
C      1  0.5076020000000  0.5722280000000  0.4250260000000 1.0
C      1  0.5268850000000  0.4816560000000  0.4247720000000 1.0
C      1  0.4949840000000  0.4581590000000  0.4278180000000 1.0
C      1  0.4619580000000  0.4939270000000  0.4196590000000 1.0
C      1  0.5605420000000  0.4242730000000  0.4858670000000 1.0
C      1  0.5813170000000  0.5251360000000  0.4810040000000 1.0
C      1  0.5011400000000  0.5883640000000  0.4877350000000 1.0
C      1  0.4106680000000  0.5280310000000  0.4845140000000 1.0
C      1  0.4456960000000  0.4278460000000  0.4881070000000 1.0
C      1  0.4397630000000  0.4356010000000  0.5174610000000 1.0
C      1  0.4152630000000  0.5367380000000  0.5138270000000 1.0
C      1  0.5089500000000  0.5839870000000  0.5177160000000 1.0
C      1  0.5854310000000  0.5168840000000  0.5103600000000 1.0
C      1  0.5458370000000  0.4279420000000  0.5122830000000 1.0
C      1  0.5168020000000  0.4568630000000  0.5030630000000 1.0
C      1  0.5465950000000  0.5013880000000  0.5020490000000 1.0
C      1  0.5120370000000  0.5415480000000  0.5016530000000 1.0
C      1  0.4590780000000  0.5298300000000  0.5050880000000 1.0
C      1  0.4638400000000  0.4743910000000  0.5065850000000 1.0
C      1  0.4869610000000  0.4555840000000  0.4918250000000 1.0
C      1  0.4465870000000  0.4995340000000  0.4960100000000 1.0
C      1  0.4825560000000  0.5460130000000  0.4865670000000 1.0
C      1  0.5380170000000  0.5283800000000  0.4876880000000 1.0
C      1  0.5347860000000  0.4760130000000  0.4864910000000 1.0
C      1  0.4447860000000  0.4798930000000  0.5925170000000 1.0
C      1  0.4974230000000  0.4604580000000  0.5989010000000 1.0
C      1  0.5569030000000  0.5049930000000  0.5935860000000 1.0
C      1  0.5076440000000  0.5366820000000  0.6038550000000 1.0
C      1  0.4555960000000  0.5544600000000  0.5939750000000 1.0
C      1  0.5391720000000  0.4742510000000  0.3978850000000 1.0
C      1  0.4913810000000  0.4377420000000  0.4124650000000 1.0
C      1  0.4451490000000  0.4904450000000  0.3988510000000 1.0
C      1  0.4934150000000  0.5392980000000  0.4075640000000 1.0
C      1  0.5050230000000  0.5890470000000  0.4044100000000 1.0
C      1  0.4902760000000  0.4617470000000  0.5476780000000 1.0
C      1  0.5428910000000  0.4731330000000  0.5476440000000 1.0
C      1  0.5570680000000  0.5221010000000  0.5642730000000 1.0
C      1  0.4933070000000  0.5441120000000  0.5539660000000 1.0
C      1  0.4600150000000  0.5163370000000  0.5539740000000 1.0
C      1  0.5335170000000  0.4597790000000  0.4500310000000 1.0
C      1  0.4675360000000  0.4592380000000  0.4566790000000 1.0
C      1  0.4600740000000  0.5049210000000  0.4470820000000 1.0
C      1  0.5091090000000  0.5472880000000  0.4483280000000 1.0
C      1  0.5419630000000  0.5055650000000  0.4393210000000 1.0
C      1  0.4743680000000  0.5879210000000  0.4827000000000 1.0
C      1  0.4020850000000  0.5025570000000  0.4810800000000 1.0
C      1  0.4675210000000  0.4116860000000  0.4853990000000 1.0
C      1  0.5847580000000  0.4373570000000  0.4853260000000 1.0
C      1  0.5744610000000  0.5515350000000  0.4777420000000 1.0
C      1  0.5355070000000  0.5824690000000  0.5227220000000 1.0
C      1  0.5971620000000  0.4931230000000  0.5140150000000 1.0
C      1  0.5217770000000  0.4208450000000  0.5241770000000 1.0
C      1  0.4184740000000  0.4520630000000  0.5199300000000 1.0
C      1  0.4301480000000  0.5590950000000  0.5195750000000 1.0
C      1  0.5708680000000  0.4925580000000  0.4818980000000 1.0
C      1  0.5274970000000  0.5669390000000  0.4867710000000 1.0
C      1  0.4384520000000  0.5441170000000  0.4821370000000 1.0
C      1  0.4392900000000  0.4612960000000  0.4870450000000 1.0
C      1  0.5159700000000  0.4289330000000  0.4857360000000 1.0
C      1  0.4221240000000  0.5056050000000  0.5155190000000 1.0
C      1  0.4827480000000  0.5653130000000  0.5145620000000 1.0
C      1  0.5597310000000  0.5377380000000  0.5121370000000 1.0
C      1  0.5575210000000  0.4590540000000  0.5049860000000 1.0
C      1  0.4724940000000  0.4367200000000  0.5161950000000 1.0
C      1  0.5579890000000  0.5696060000000  0.5015790000000 1.0
C      1  0.4130590000000  0.4772070000000  0.4991630000000 1.0
C      1  0.4524440000000  0.5688760000000  0.4995500000000 1.0
C      1  0.5879650000000  0.4682070000000  0.4959310000000 1.0
C      1  0.4945770000000  0.4138790000000  0.5049570000000 1.0
C      1  0.4956250000000  0.4896340000000  0.4223290000000 1.0
C      1  0.5091050000000  0.5005130000000  0.5677620000000 1.0
C      1  0.4865960000000  0.5109590000000  0.5053350000000 1.0
END
