TITL C-2622962-9663-178 0.00158373308756423 125000 -312.569033858389 0 0 56 (C1) n - 1
REM
REM in /nfs/bkarasulu/CARBON/AIRSS/Generating-Clusters/AIREBO/with-SteepDescent/Higher-Symm/SD-CG/HFTN-CG
REM
REM
REM
REM
REM
REM ./C.cell (b20cbc046b6831c77cfcea5457e17084)
REM
REM compiler GCC version 9.2.1 20190827 (Red Hat 9.2.1-1)
REM options -cpp -mtune=generic -march=x86-64 -g -O0 -fpre-include=/usr/include/finclude/math-vector-fortran.h
REM seed 1344076993 -596197391 -262365638 -1478344734 -1869680177 -687744647 461798289 351335349 -88700576 -1075235517 -1799685184 828605053 1076647534 277131549 1985626456 -1263046830 907714655 -2024219849 102572837 1458954760 430766218 1549604168 142633459 1299106064 258003274 441986512 602883170 -1669994422 -1270608318 180015373 -414172501 686012710 83932738
REM
CELL 1.54180   50.00000   50.00000   50.00000   90.00000   90.00000   90.00000
LATT -1
SFAC C  
C      1  0.5127800000000  0.4718920000000  0.4291650000000 1.0
C      1  0.5113660000000  0.5286190000000  0.4276540000000 1.0
C      1  0.4770240000000  0.5778590000000  0.5188080000000 1.0
C      1  0.4770280000000  0.4213190000000  0.5181840000000 1.0
C      1  0.4685020000000  0.4712130000000  0.4750260000000 1.0
C      1  0.4658440000000  0.5301570000000  0.4737800000000 1.0
C      1  0.4539740000000  0.5596480000000  0.5198660000000 1.0
C      1  0.4530360000000  0.4381300000000  0.5172270000000 1.0
C      1  0.4538490000000  0.4890320000000  0.5237060000000 1.0
C      1  0.4497570000000  0.5201360000000  0.5238520000000 1.0
C      1  0.5385910000000  0.5125350000000  0.5023850000000 1.0
C      1  0.5424460000000  0.4819680000000  0.5048130000000 1.0
C      1  0.4825750000000  0.4559380000000  0.5515590000000 1.0
C      1  0.4848570000000  0.5449720000000  0.5532050000000 1.0
C      1  0.4391000000000  0.4869610000000  0.4716860000000 1.0
C      1  0.4380970000000  0.5121160000000  0.4710980000000 1.0
C      1  0.4871640000000  0.4834880000000  0.5176860000000 1.0
C      1  0.4826740000000  0.5156650000000  0.5169440000000 1.0
C      1  0.4968660000000  0.5667610000000  0.5381170000000 1.0
C      1  0.4950450000000  0.4332000000000  0.5384980000000 1.0
C      1  0.5209690000000  0.4839010000000  0.4804310000000 1.0
C      1  0.5179190000000  0.5173760000000  0.4784510000000 1.0
C      1  0.5574090000000  0.4864200000000  0.5415570000000 1.0
C      1  0.5568700000000  0.5133850000000  0.5382780000000 1.0
C      1  0.4842830000000  0.5270990000000  0.4270610000000 1.0
C      1  0.4857430000000  0.4730800000000  0.4280530000000 1.0
C      1  0.5303300000000  0.4693160000000  0.5333760000000 1.0
C      1  0.5288680000000  0.5283700000000  0.5308580000000 1.0
C      1  0.5318570000000  0.4690500000000  0.4535760000000 1.0
C      1  0.5297700000000  0.5319480000000  0.4524920000000 1.0
C      1  0.5206570000000  0.4415550000000  0.5265760000000 1.0
C      1  0.5208600000000  0.5566710000000  0.5241590000000 1.0
C      1  0.5027940000000  0.4830240000000  0.5478780000000 1.0
C      1  0.5017520000000  0.5169200000000  0.5453070000000 1.0
C      1  0.4710080000000  0.4863800000000  0.4476610000000 1.0
C      1  0.4699910000000  0.5138940000000  0.4470890000000 1.0
C      1  0.5680860000000  0.4662110000000  0.5205880000000 1.0
C      1  0.5649440000000  0.5307760000000  0.5138710000000 1.0
C      1  0.5563150000000  0.4886720000000  0.4489380000000 1.0
C      1  0.5553370000000  0.5137860000000  0.4486350000000 1.0
C      1  0.4470240000000  0.5406670000000  0.4974080000000 1.0
C      1  0.4518260000000  0.4641410000000  0.5013840000000 1.0
C      1  0.4954070000000  0.4699860000000  0.4922170000000 1.0
C      1  0.4920370000000  0.5297760000000  0.4912370000000 1.0
C      1  0.5170360000000  0.4829660000000  0.5792930000000 1.0
C      1  0.5109540000000  0.5099940000000  0.5772970000000 1.0
C      1  0.5151710000000  0.4258480000000  0.4739560000000 1.0
C      1  0.5132320000000  0.5743790000000  0.4732550000000 1.0
C      1  0.5053270000000  0.4423290000000  0.4994240000000 1.0
C      1  0.5039580000000  0.5568320000000  0.4982100000000 1.0
C      1  0.4901550000000  0.5873730000000  0.4923670000000 1.0
C      1  0.4918610000000  0.4120360000000  0.4924110000000 1.0
C      1  0.4566670000000  0.4599400000000  0.5403500000000 1.0
C      1  0.4571310000000  0.5434170000000  0.5461640000000 1.0
C      1  0.5319060000000  0.5630770000000  0.4578280000000 1.0
C      1  0.5339680000000  0.4377940000000  0.4591060000000 1.0
END
