TITL C-2622965-4321-207 -0.00120626070308631 125000 -645.28325945516 0 0 119 (C1) n - 1
REM
REM in /nfs/bkarasulu/CARBON/AIRSS/Generating-Clusters/AIREBO/with-SteepDescent/Higher-Symm/SD-CG/HFTN-CG
REM
REM
REM
REM
REM
REM ./C.cell (b20cbc046b6831c77cfcea5457e17084)
REM
REM compiler GCC version 9.2.1 20190827 (Red Hat 9.2.1-1)
REM options -cpp -mtune=generic -march=x86-64 -g -O0 -fpre-include=/usr/include/finclude/math-vector-fortran.h
REM seed -1658604944 -531003775 561595215 -364678436 574467999 -1596890259 981136752 -1855127934 -1736071008 -738108020 -1842585049 814060622 -798574490 690203205 1176728273 249959972 1549705520 166833014 2065600925 -501166015 -1401018271 -795798894 -397736794 1714289581 -1792538049 -308222807 1799072409 1938929145 413434008 863800820 162483651 -642652048 1449226368
REM
CELL 1.54180   50.00000   50.00000   50.00000   90.00000   90.00000   90.00000
LATT -1
SFAC C  
C      1  0.5633860000000  0.4809920000000  0.5599970000000 1.0
C      1  0.5650270000000  0.4393120000000  0.5295450000000 1.0
C      1  0.5665760000000  0.4348270000000  0.4692070000000 1.0
C      1  0.5647900000000  0.4943050000000  0.4247650000000 1.0
C      1  0.5721920000000  0.5490240000000  0.4490990000000 1.0
C      1  0.5727650000000  0.5910760000000  0.5027830000000 1.0
C      1  0.5465380000000  0.5193810000000  0.5628770000000 1.0
C      1  0.5393640000000  0.5698790000000  0.5540900000000 1.0
C      1  0.5221380000000  0.4947190000000  0.5825520000000 1.0
C      1  0.5433650000000  0.4367590000000  0.5526110000000 1.0
C      1  0.5204290000000  0.4186110000000  0.4854130000000 1.0
C      1  0.5287400000000  0.4624280000000  0.4273190000000 1.0
C      1  0.5262470000000  0.5396630000000  0.4170450000000 1.0
C      1  0.5299000000000  0.5813990000000  0.4791760000000 1.0
C      1  0.5334400000000  0.4434350000000  0.4722110000000 1.0
C      1  0.5348910000000  0.4937360000000  0.4390770000000 1.0
C      1  0.5403080000000  0.5502610000000  0.4420930000000 1.0
C      1  0.5488520000000  0.5766300000000  0.5028520000000 1.0
C      1  0.5252190000000  0.5440450000000  0.5651880000000 1.0
C      1  0.5339410000000  0.4732790000000  0.5657350000000 1.0
C      1  0.5330350000000  0.4324360000000  0.5204830000000 1.0
C      1  0.4614460000000  0.5613450000000  0.5675710000000 1.0
C      1  0.4596270000000  0.4824990000000  0.5911470000000 1.0
C      1  0.4651940000000  0.4272800000000  0.5526360000000 1.0
C      1  0.4571320000000  0.4117480000000  0.4707550000000 1.0
C      1  0.4622270000000  0.4630980000000  0.4130920000000 1.0
C      1  0.4607620000000  0.5507860000000  0.4195910000000 1.0
C      1  0.4718870000000  0.5901760000000  0.4848950000000 1.0
C      1  0.4584250000000  0.5029540000000  0.5640210000000 1.0
C      1  0.4615680000000  0.4533390000000  0.5424350000000 1.0
C      1  0.4645350000000  0.4336640000000  0.4956740000000 1.0
C      1  0.4737930000000  0.4543800000000  0.4431900000000 1.0
C      1  0.4636670000000  0.5216070000000  0.4368320000000 1.0
C      1  0.4669020000000  0.5592240000000  0.4754550000000 1.0
C      1  0.4615830000000  0.5510410000000  0.5351670000000 1.0
C      1  0.4800740000000  0.5320740000000  0.4867260000000 1.0
C      1  0.4832870000000  0.5313650000000  0.5180130000000 1.0
C      1  0.4785910000000  0.5033290000000  0.5367000000000 1.0
C      1  0.4843460000000  0.4708060000000  0.5393290000000 1.0
C      1  0.4820810000000  0.4610570000000  0.4951300000000 1.0
C      1  0.4700410000000  0.4767230000000  0.4678730000000 1.0
C      1  0.4805860000000  0.5077870000000  0.4629350000000 1.0
C      1  0.4371080000000  0.5526700000000  0.4777160000000 1.0
C      1  0.4334140000000  0.5460250000000  0.5282700000000 1.0
C      1  0.4295600000000  0.5036660000000  0.5559730000000 1.0
C      1  0.4344040000000  0.4588970000000  0.5307590000000 1.0
C      1  0.4376520000000  0.4486960000000  0.4984030000000 1.0
C      1  0.4391740000000  0.4710340000000  0.4787020000000 1.0
C      1  0.4335270000000  0.5198990000000  0.4402740000000 1.0
C      1  0.5863290000000  0.4840470000000  0.4732580000000 1.0
C      1  0.5827330000000  0.5412700000000  0.4795260000000 1.0
C      1  0.5910420000000  0.5342610000000  0.5060900000000 1.0
C      1  0.5993140000000  0.5159120000000  0.5274580000000 1.0
C      1  0.5794210000000  0.4909230000000  0.5344090000000 1.0
C      1  0.5783550000000  0.4633240000000  0.5160820000000 1.0
C      1  0.5837940000000  0.4549680000000  0.4851650000000 1.0
C      1  0.4979630000000  0.5321600000000  0.5917390000000 1.0
C      1  0.5039720000000  0.4528640000000  0.5833540000000 1.0
C      1  0.4956170000000  0.4002840000000  0.5250110000000 1.0
C      1  0.4945450000000  0.4302720000000  0.4446910000000 1.0
C      1  0.4965240000000  0.5036380000000  0.4061270000000 1.0
C      1  0.4990110000000  0.5784100000000  0.4439560000000 1.0
C      1  0.5065140000000  0.5801770000000  0.5253530000000 1.0
C      1  0.4902760000000  0.4161350000000  0.5470630000000 1.0
C      1  0.4852700000000  0.4093500000000  0.4601970000000 1.0
C      1  0.4859990000000  0.4805560000000  0.4159490000000 1.0
C      1  0.4867460000000  0.5638130000000  0.4249420000000 1.0
C      1  0.4957970000000  0.5853280000000  0.5013840000000 1.0
C      1  0.4886930000000  0.5546270000000  0.5776420000000 1.0
C      1  0.4874450000000  0.4725340000000  0.5915220000000 1.0
C      1  0.4260780000000  0.5549390000000  0.5031130000000 1.0
C      1  0.4208860000000  0.5283060000000  0.5458780000000 1.0
C      1  0.4197340000000  0.4797410000000  0.5478980000000 1.0
C      1  0.4142840000000  0.4356780000000  0.5161950000000 1.0
C      1  0.4191530000000  0.4748930000000  0.4559150000000 1.0
C      1  0.4206040000000  0.4954810000000  0.4382330000000 1.0
C      1  0.4244750000000  0.5415880000000  0.4554780000000 1.0
C      1  0.5144060000000  0.4715360000000  0.4745370000000 1.0
C      1  0.5143590000000  0.5039780000000  0.4642110000000 1.0
C      1  0.5202570000000  0.5377180000000  0.4668490000000 1.0
C      1  0.5149390000000  0.5402130000000  0.5268480000000 1.0
C      1  0.5035170000000  0.5219330000000  0.5511100000000 1.0
C      1  0.5178330000000  0.4652930000000  0.5368380000000 1.0
C      1  0.5132700000000  0.4554910000000  0.5045690000000 1.0
C      1  0.4902480000000  0.5029550000000  0.5760130000000 1.0
C      1  0.5101660000000  0.4368440000000  0.5538300000000 1.0
C      1  0.4889180000000  0.4101590000000  0.4940560000000 1.0
C      1  0.5017040000000  0.4720680000000  0.4439290000000 1.0
C      1  0.4944920000000  0.5310810000000  0.4260960000000 1.0
C      1  0.5005320000000  0.5642830000000  0.4748520000000 1.0
C      1  0.4931850000000  0.5598120000000  0.5441440000000 1.0
C      1  0.5230320000000  0.4039830000000  0.5134070000000 1.0
C      1  0.5218070000000  0.4376620000000  0.4430650000000 1.0
C      1  0.5251200000000  0.5099130000000  0.4126980000000 1.0
C      1  0.5283470000000  0.5778650000000  0.4496990000000 1.0
C      1  0.5336280000000  0.5790940000000  0.5290940000000 1.0
C      1  0.5312220000000  0.5251600000000  0.5928170000000 1.0
C      1  0.5350690000000  0.4445410000000  0.5835770000000 1.0
C      1  0.5575090000000  0.5151560000000  0.5400560000000 1.0
C      1  0.5458840000000  0.4729220000000  0.5191790000000 1.0
C      1  0.5523970000000  0.4679880000000  0.4861490000000 1.0
C      1  0.5563190000000  0.4939320000000  0.4644240000000 1.0
C      1  0.5576410000000  0.5241090000000  0.4668990000000 1.0
C      1  0.5443130000000  0.5456560000000  0.4895770000000 1.0
C      1  0.5409700000000  0.5309020000000  0.5160940000000 1.0
C      1  0.3988920000000  0.5105620000000  0.4994550000000 1.0
C      1  0.6076740000000  0.5028430000000  0.4881430000000 1.0
C      1  0.3461010000000  0.5054610000000  0.5036190000000 1.0
C      1  0.3203410000000  0.5025450000000  0.5074740000000 1.0
C      1  0.4776190000000  0.4932370000000  0.5042400000000 1.0
C      1  0.4466020000000  0.4955970000000  0.4956410000000 1.0
C      1  0.4258820000000  0.5124350000000  0.4993030000000 1.0
C      1  0.6326050000000  0.5071710000000  0.4923900000000 1.0
C      1  0.5094770000000  0.5033260000000  0.4978580000000 1.0
C      1  0.5750970000000  0.5054750000000  0.4975380000000 1.0
C      1  0.6832450000000  0.5198560000000  0.5001740000000 1.0
C      1  0.6583110000000  0.5136230000000  0.4950380000000 1.0
C      1  0.5424350000000  0.5010210000000  0.5059440000000 1.0
C      1  0.3724380000000  0.5091530000000  0.5021900000000 1.0
END
