TITL C-2622954-8726-505 -0.00297271491758712 125000 -624.07645303187 0 0 114 (C1) n - 1
REM
REM in /nfs/bkarasulu/CARBON/AIRSS/Generating-Clusters/AIREBO/with-SteepDescent/Higher-Symm/SD-CG/HFTN-CG
REM
REM
REM
REM
REM
REM ./C.cell (b20cbc046b6831c77cfcea5457e17084)
REM
REM compiler GCC version 9.2.1 20190827 (Red Hat 9.2.1-1)
REM options -cpp -mtune=generic -march=x86-64 -g -O0 -fpre-include=/usr/include/finclude/math-vector-fortran.h
REM seed -1384208029 -1604528871 1430582751 -1056305806 885429195 -332720213 1911397989 654391780 -560874535 -415490491 1836697017 -740055467 1191644322 -933064402 1145471970 1980457242 -29257706 -1248857772 -873781236 -208389725 1121608840 -776288812 -1730329590 292090929 -16270890 -1836545503 -379189361 -584621543 -1762138605 1191051904 -672916221 -396219077 -2031041641
REM
CELL 1.54180   50.00000   50.00000   50.00000   90.00000   90.00000   90.00000
LATT -1
SFAC C  
C      1  0.5354660000000  0.3947640000000  0.5272300000000 1.0
C      1  0.5935960000000  0.4898790000000  0.5315840000000 1.0
C      1  0.5200250000000  0.4910860000000  0.5093910000000 1.0
C      1  0.4766290000000  0.4239290000000  0.4759880000000 1.0
C      1  0.5574570000000  0.5106700000000  0.5182120000000 1.0
C      1  0.5500780000000  0.4667650000000  0.5560970000000 1.0
C      1  0.4655030000000  0.5729630000000  0.4526000000000 1.0
C      1  0.4024510000000  0.4954470000000  0.5239700000000 1.0
C      1  0.5869280000000  0.4865270000000  0.4651430000000 1.0
C      1  0.4531280000000  0.5064800000000  0.4291680000000 1.0
C      1  0.5009200000000  0.4643230000000  0.4787200000000 1.0
C      1  0.4869300000000  0.5132120000000  0.5747700000000 1.0
C      1  0.5170970000000  0.5610170000000  0.5239210000000 1.0
C      1  0.4241350000000  0.5571270000000  0.5072690000000 1.0
C      1  0.5114890000000  0.6064840000000  0.4509090000000 1.0
C      1  0.4316160000000  0.4519620000000  0.5125960000000 1.0
C      1  0.5956680000000  0.4653400000000  0.5097380000000 1.0
C      1  0.4629810000000  0.4802020000000  0.4875290000000 1.0
C      1  0.4193600000000  0.5107050000000  0.5019520000000 1.0
C      1  0.4401340000000  0.4583340000000  0.4834720000000 1.0
C      1  0.5245940000000  0.4369380000000  0.4508630000000 1.0
C      1  0.4924910000000  0.5594550000000  0.4641300000000 1.0
C      1  0.5162320000000  0.5575030000000  0.5547730000000 1.0
C      1  0.4940830000000  0.5154660000000  0.4135460000000 1.0
C      1  0.5641320000000  0.4796590000000  0.5068430000000 1.0
C      1  0.5323190000000  0.4881520000000  0.5390060000000 1.0
C      1  0.5543020000000  0.5433040000000  0.5548920000000 1.0
C      1  0.5428990000000  0.5861230000000  0.5066370000000 1.0
C      1  0.5079090000000  0.5883710000000  0.4711320000000 1.0
C      1  0.5202310000000  0.4708680000000  0.5725230000000 1.0
C      1  0.4712990000000  0.5492560000000  0.5243340000000 1.0
C      1  0.4724530000000  0.4595550000000  0.5538630000000 1.0
C      1  0.5565190000000  0.4134030000000  0.5277230000000 1.0
C      1  0.5165090000000  0.5909950000000  0.4977040000000 1.0
C      1  0.5486430000000  0.4117340000000  0.4809330000000 1.0
C      1  0.5519790000000  0.4290990000000  0.4575260000000 1.0
C      1  0.5128300000000  0.5121580000000  0.4761640000000 1.0
C      1  0.5422270000000  0.5087120000000  0.4905960000000 1.0
C      1  0.4574960000000  0.5302340000000  0.4715790000000 1.0
C      1  0.4864660000000  0.4859860000000  0.5114450000000 1.0
C      1  0.4777370000000  0.4322280000000  0.5034420000000 1.0
C      1  0.5266770000000  0.4376370000000  0.5172990000000 1.0
C      1  0.5359280000000  0.4640320000000  0.5013160000000 1.0
C      1  0.5723490000000  0.4489130000000  0.4948770000000 1.0
C      1  0.5040590000000  0.4188990000000  0.4657050000000 1.0
C      1  0.5201880000000  0.5352300000000  0.5781370000000 1.0
C      1  0.5495460000000  0.5630120000000  0.5306900000000 1.0
C      1  0.5200360000000  0.5452090000000  0.4725980000000 1.0
C      1  0.4492430000000  0.5689570000000  0.5075550000000 1.0
C      1  0.4402580000000  0.4766160000000  0.5324510000000 1.0
C      1  0.4997680000000  0.4458370000000  0.5651050000000 1.0
C      1  0.5219330000000  0.4257930000000  0.5659780000000 1.0
C      1  0.5533720000000  0.5282000000000  0.4132730000000 1.0
C      1  0.4846870000000  0.4997920000000  0.4701700000000 1.0
C      1  0.5959010000000  0.5198540000000  0.5164390000000 1.0
C      1  0.5425990000000  0.5176080000000  0.5480390000000 1.0
C      1  0.4726330000000  0.5146560000000  0.5051650000000 1.0
C      1  0.4432870000000  0.4518340000000  0.4443610000000 1.0
C      1  0.5075790000000  0.4094760000000  0.5168700000000 1.0
C      1  0.5809190000000  0.5152750000000  0.4560320000000 1.0
C      1  0.4967770000000  0.5267760000000  0.5256760000000 1.0
C      1  0.4328180000000  0.4582220000000  0.5561640000000 1.0
C      1  0.4723200000000  0.5420770000000  0.4160870000000 1.0
C      1  0.5446630000000  0.4369460000000  0.5461460000000 1.0
C      1  0.4648190000000  0.5387110000000  0.5706140000000 1.0
C      1  0.4625870000000  0.4841080000000  0.4146680000000 1.0
C      1  0.4278490000000  0.5013400000000  0.4444030000000 1.0
C      1  0.4767750000000  0.5452120000000  0.4908860000000 1.0
C      1  0.4293190000000  0.5338970000000  0.4541840000000 1.0
C      1  0.5160390000000  0.4974960000000  0.4163180000000 1.0
C      1  0.4514000000000  0.4319150000000  0.4657050000000 1.0
C      1  0.4432830000000  0.5569970000000  0.5516950000000 1.0
C      1  0.4607440000000  0.5223770000000  0.5423140000000 1.0
C      1  0.5590460000000  0.4843400000000  0.4440190000000 1.0
C      1  0.4523290000000  0.5523710000000  0.4372010000000 1.0
C      1  0.4669370000000  0.4632590000000  0.4332620000000 1.0
C      1  0.5525760000000  0.5237050000000  0.4641360000000 1.0
C      1  0.4541480000000  0.4395360000000  0.5348560000000 1.0
C      1  0.4201130000000  0.5376910000000  0.4867070000000 1.0
C      1  0.4980690000000  0.4541050000000  0.5091310000000 1.0
C      1  0.4830510000000  0.4713990000000  0.4541900000000 1.0
C      1  0.4754970000000  0.4916770000000  0.5431220000000 1.0
C      1  0.5470360000000  0.4989960000000  0.4157840000000 1.0
C      1  0.4754590000000  0.4139900000000  0.5276740000000 1.0
C      1  0.4268700000000  0.4753350000000  0.4570080000000 1.0
C      1  0.5493800000000  0.5548460000000  0.4694420000000 1.0
C      1  0.5076470000000  0.4924620000000  0.5859100000000 1.0
C      1  0.4924710000000  0.5527260000000  0.5756970000000 1.0
C      1  0.5639290000000  0.4217520000000  0.5022830000000 1.0
C      1  0.4985770000000  0.5391710000000  0.4375170000000 1.0
C      1  0.5605280000000  0.5651870000000  0.4927790000000 1.0
C      1  0.4205250000000  0.5479150000000  0.5351560000000 1.0
C      1  0.5085970000000  0.4658800000000  0.5392490000000 1.0
C      1  0.4030230000000  0.4682340000000  0.5212760000000 1.0
C      1  0.5305820000000  0.5274240000000  0.4384950000000 1.0
C      1  0.5989480000000  0.4941160000000  0.4951680000000 1.0
C      1  0.5091460000000  0.5183650000000  0.5507530000000 1.0
C      1  0.4695840000000  0.4851970000000  0.5760050000000 1.0
C      1  0.5783720000000  0.4774160000000  0.5549940000000 1.0
C      1  0.5708170000000  0.5413580000000  0.5144540000000 1.0
C      1  0.4432110000000  0.4669300000000  0.5801050000000 1.0
C      1  0.5148760000000  0.5353790000000  0.5023760000000 1.0
C      1  0.4683200000000  0.5780460000000  0.5421810000000 1.0
C      1  0.5206490000000  0.4063020000000  0.4860750000000 1.0
C      1  0.5217950000000  0.4640410000000  0.4586690000000 1.0
C      1  0.4425930000000  0.5044860000000  0.4812420000000 1.0
C      1  0.4623160000000  0.5950780000000  0.4707930000000 1.0
C      1  0.5276150000000  0.4956740000000  0.4503320000000 1.0
C      1  0.4738260000000  0.5183010000000  0.4479170000000 1.0
C      1  0.4040880000000  0.5239170000000  0.5364640000000 1.0
C      1  0.4661250000000  0.5894910000000  0.4982760000000 1.0
C      1  0.4926030000000  0.5832570000000  0.5186870000000 1.0
C      1  0.5688010000000  0.4578350000000  0.4628740000000 1.0
C      1  0.4446280000000  0.5034880000000  0.5209090000000 1.0
END
