TITL C-2622957-9142-592 0.00337900557873236 125000 -965.154332832524 0 0 181 (C1) n - 1
REM
REM in /nfs/bkarasulu/CARBON/AIRSS/Generating-Clusters/AIREBO/with-SteepDescent/Higher-Symm/SD-CG/HFTN-CG
REM
REM
REM
REM
REM
REM ./C.cell (b20cbc046b6831c77cfcea5457e17084)
REM
REM compiler GCC version 9.2.1 20190827 (Red Hat 9.2.1-1)
REM options -cpp -mtune=generic -march=x86-64 -g -O0 -fpre-include=/usr/include/finclude/math-vector-fortran.h
REM seed -361963402 543340360 765667243 -581507847 -1462968353 -1613689515 1300323820 1244112821 -1446739842 965770097 -1110407959 -1463421438 1638944807 -1035655539 -561754877 714042567 -1944334817 1390287146 2075608867 667391651 -93723991 14145536 -889804496 475909050 -2144440600 1783946702 -392116083 -956355271 749712322 -1570657673 -181501737 889849634 -2096290747
REM
CELL 1.54180   50.00000   50.00000   50.00000   90.00000   90.00000   90.00000
LATT -1
SFAC C  
C      1  0.4276220000000  0.5417440000000  0.5723970000000 1.0
C      1  0.4162480000000  0.4874870000000  0.5710600000000 1.0
C      1  0.4457330000000  0.4362730000000  0.5791500000000 1.0
C      1  0.4989350000000  0.4172650000000  0.5844680000000 1.0
C      1  0.5515670000000  0.4365830000000  0.5780320000000 1.0
C      1  0.5805760000000  0.4857860000000  0.5875040000000 1.0
C      1  0.5743300000000  0.5456930000000  0.5875010000000 1.0
C      1  0.5324200000000  0.5823810000000  0.5699000000000 1.0
C      1  0.4715540000000  0.5774580000000  0.5691350000000 1.0
C      1  0.5465620000000  0.5680430000000  0.4666430000000 1.0
C      1  0.4928930000000  0.5757060000000  0.4609220000000 1.0
C      1  0.4385880000000  0.5536900000000  0.4703080000000 1.0
C      1  0.4153090000000  0.5045720000000  0.4750490000000 1.0
C      1  0.4317910000000  0.4514930000000  0.4631360000000 1.0
C      1  0.4910700000000  0.4237400000000  0.4727080000000 1.0
C      1  0.5443830000000  0.4352250000000  0.4811490000000 1.0
C      1  0.5731730000000  0.4622490000000  0.4694050000000 1.0
C      1  0.5787820000000  0.5209890000000  0.4695220000000 1.0
C      1  0.4084530000000  0.5542840000000  0.4538390000000 1.0
C      1  0.3943040000000  0.4878570000000  0.4541770000000 1.0
C      1  0.4247160000000  0.4298750000000  0.4378600000000 1.0
C      1  0.4930200000000  0.4122560000000  0.4406460000000 1.0
C      1  0.5555760000000  0.4301820000000  0.4515990000000 1.0
C      1  0.6004580000000  0.4703890000000  0.4508150000000 1.0
C      1  0.5960990000000  0.5455830000000  0.4536610000000 1.0
C      1  0.5416830000000  0.5966210000000  0.4488770000000 1.0
C      1  0.4663750000000  0.5865470000000  0.4425840000000 1.0
C      1  0.4601350000000  0.5094070000000  0.5932740000000 1.0
C      1  0.4618350000000  0.4818410000000  0.5976440000000 1.0
C      1  0.4837700000000  0.4651110000000  0.5981280000000 1.0
C      1  0.5111820000000  0.4651920000000  0.6032240000000 1.0
C      1  0.5322470000000  0.4833260000000  0.6007500000000 1.0
C      1  0.5381400000000  0.5106400000000  0.6047260000000 1.0
C      1  0.5247660000000  0.5347420000000  0.5974890000000 1.0
C      1  0.4993920000000  0.5450250000000  0.5941420000000 1.0
C      1  0.4748860000000  0.5330180000000  0.5903710000000 1.0
C      1  0.5185960000000  0.5493360000000  0.4214750000000 1.0
C      1  0.4537100000000  0.5425380000000  0.4205830000000 1.0
C      1  0.4324170000000  0.5163100000000  0.4253960000000 1.0
C      1  0.4345430000000  0.4821020000000  0.4223550000000 1.0
C      1  0.4595780000000  0.4605590000000  0.4206350000000 1.0
C      1  0.5177240000000  0.4510930000000  0.4214080000000 1.0
C      1  0.5419510000000  0.4676670000000  0.4206290000000 1.0
C      1  0.5556720000000  0.4983640000000  0.4257820000000 1.0
C      1  0.5481160000000  0.5327280000000  0.4245500000000 1.0
C      1  0.5670870000000  0.4423180000000  0.5054480000000 1.0
C      1  0.5868870000000  0.4809800000000  0.4920570000000 1.0
C      1  0.5757000000000  0.5450480000000  0.4933600000000 1.0
C      1  0.5270800000000  0.5821660000000  0.4906780000000 1.0
C      1  0.4697990000000  0.5787710000000  0.4853320000000 1.0
C      1  0.4214610000000  0.5384670000000  0.4953240000000 1.0
C      1  0.4099370000000  0.4760650000000  0.4928010000000 1.0
C      1  0.4442150000000  0.4286230000000  0.4833540000000 1.0
C      1  0.5147740000000  0.4104300000000  0.4909370000000 1.0
C      1  0.5214050000000  0.4409000000000  0.5849020000000 1.0
C      1  0.5544570000000  0.4679250000000  0.5804230000000 1.0
C      1  0.5663940000000  0.5144770000000  0.5887950000000 1.0
C      1  0.5441000000000  0.5543070000000  0.5801840000000 1.0
C      1  0.5032530000000  0.5723100000000  0.5746760000000 1.0
C      1  0.4598190000000  0.5483790000000  0.5677480000000 1.0
C      1  0.4381400000000  0.5103370000000  0.5705730000000 1.0
C      1  0.4411680000000  0.4687930000000  0.5771720000000 1.0
C      1  0.4780850000000  0.4418340000000  0.5777080000000 1.0
C      1  0.5417010000000  0.4852060000000  0.5266900000000 1.0
C      1  0.5469660000000  0.5170560000000  0.5158360000000 1.0
C      1  0.5263340000000  0.5405800000000  0.5261280000000 1.0
C      1  0.4956020000000  0.5546150000000  0.5215740000000 1.0
C      1  0.4647450000000  0.5435890000000  0.5121800000000 1.0
C      1  0.4503920000000  0.4901020000000  0.5163060000000 1.0
C      1  0.4571550000000  0.4579810000000  0.5226930000000 1.0
C      1  0.4894800000000  0.4489280000000  0.5168250000000 1.0
C      1  0.5209360000000  0.4618090000000  0.5157690000000 1.0
C      1  0.6049230000000  0.5076820000000  0.4868890000000 1.0
C      1  0.5749010000000  0.5764340000000  0.4835580000000 1.0
C      1  0.5081830000000  0.6032100000000  0.4718010000000 1.0
C      1  0.4367090000000  0.5856110000000  0.4818690000000 1.0
C      1  0.3915900000000  0.5247070000000  0.4888660000000 1.0
C      1  0.4007400000000  0.4486360000000  0.4769200000000 1.0
C      1  0.4634120000000  0.4042280000000  0.4694790000000 1.0
C      1  0.5423750000000  0.4016570000000  0.4760750000000 1.0
C      1  0.5841010000000  0.4315890000000  0.4792760000000 1.0
C      1  0.4268370000000  0.4054330000000  0.5196030000000 1.0
C      1  0.4932410000000  0.3825770000000  0.5096480000000 1.0
C      1  0.5549800000000  0.4211460000000  0.5481120000000 1.0
C      1  0.6427910000000  0.4569210000000  0.5140370000000 1.0
C      1  0.6038500000000  0.5489440000000  0.5271580000000 1.0
C      1  0.5462740000000  0.5902720000000  0.5397940000000 1.0
C      1  0.4719280000000  0.6121100000000  0.5175010000000 1.0
C      1  0.4057220000000  0.5676900000000  0.5273830000000 1.0
C      1  0.3992720000000  0.4888420000000  0.5419720000000 1.0
C      1  0.5688470000000  0.4052670000000  0.4910410000000 1.0
C      1  0.6105030000000  0.4503430000000  0.4764640000000 1.0
C      1  0.6131700000000  0.5374290000000  0.4814130000000 1.0
C      1  0.5590930000000  0.6045220000000  0.4769960000000 1.0
C      1  0.4778020000000  0.6126800000000  0.4610900000000 1.0
C      1  0.4067580000000  0.5757160000000  0.4799690000000 1.0
C      1  0.3768770000000  0.4955140000000  0.4823520000000 1.0
C      1  0.4099090000000  0.4181810000000  0.4657290000000 1.0
C      1  0.4887260000000  0.3857650000000  0.4610350000000 1.0
C      1  0.4643740000000  0.5259090000000  0.4470410000000 1.0
C      1  0.4558040000000  0.4976480000000  0.4403220000000 1.0
C      1  0.4753670000000  0.4808090000000  0.4536430000000 1.0
C      1  0.4905760000000  0.4638690000000  0.4315690000000 1.0
C      1  0.5121310000000  0.4665370000000  0.4577350000000 1.0
C      1  0.5303970000000  0.4862090000000  0.4540830000000 1.0
C      1  0.5276420000000  0.5118170000000  0.4381960000000 1.0
C      1  0.5040630000000  0.5240180000000  0.4486870000000 1.0
C      1  0.4871390000000  0.5374300000000  0.4241260000000 1.0
C      1  0.4479120000000  0.5039780000000  0.4852970000000 1.0
C      1  0.4556850000000  0.4720390000000  0.4761050000000 1.0
C      1  0.4839960000000  0.4546710000000  0.4834330000000 1.0
C      1  0.5177970000000  0.4510460000000  0.4842890000000 1.0
C      1  0.5517740000000  0.4885980000000  0.4713610000000 1.0
C      1  0.5487320000000  0.5168280000000  0.4848990000000 1.0
C      1  0.5297310000000  0.5396510000000  0.4749220000000 1.0
C      1  0.4961200000000  0.5440320000000  0.4721250000000 1.0
C      1  0.4645140000000  0.5337070000000  0.4795710000000 1.0
C      1  0.5376520000000  0.5683780000000  0.5164220000000 1.0
C      1  0.4883950000000  0.5828000000000  0.5124170000000 1.0
C      1  0.4336930000000  0.5546170000000  0.5206200000000 1.0
C      1  0.4196390000000  0.4926750000000  0.5168290000000 1.0
C      1  0.4378330000000  0.4370890000000  0.5138220000000 1.0
C      1  0.4906040000000  0.4162720000000  0.5134010000000 1.0
C      1  0.5418460000000  0.4392660000000  0.5233250000000 1.0
C      1  0.5712220000000  0.4785090000000  0.5215460000000 1.0
C      1  0.5777940000000  0.5300100000000  0.5231620000000 1.0
C      1  0.4047080000000  0.5216220000000  0.5197650000000 1.0
C      1  0.4056890000000  0.4469020000000  0.5099440000000 1.0
C      1  0.4627870000000  0.4072460000000  0.5022380000000 1.0
C      1  0.5293280000000  0.4093090000000  0.5202170000000 1.0
C      1  0.5935430000000  0.4540550000000  0.5206130000000 1.0
C      1  0.5919080000000  0.5031690000000  0.5177090000000 1.0
C      1  0.5712260000000  0.5694970000000  0.5166170000000 1.0
C      1  0.5088560000000  0.6081560000000  0.5040260000000 1.0
C      1  0.4488390000000  0.5804910000000  0.5120040000000 1.0
C      1  0.5966530000000  0.4532110000000  0.4222170000000 1.0
C      1  0.6008120000000  0.5190500000000  0.4361950000000 1.0
C      1  0.5640040000000  0.5797690000000  0.4326200000000 1.0
C      1  0.4928350000000  0.5945540000000  0.4256570000000 1.0
C      1  0.4167620000000  0.5763140000000  0.4295870000000 1.0
C      1  0.3827090000000  0.5128270000000  0.4350990000000 1.0
C      1  0.3987110000000  0.4454790000000  0.4233270000000 1.0
C      1  0.4685770000000  0.4140670000000  0.4221310000000 1.0
C      1  0.5419740000000  0.4132550000000  0.4354240000000 1.0
C      1  0.6669500000000  0.4620460000000  0.5228060000000 1.0
C      1  0.6058760000000  0.5637930000000  0.5500820000000 1.0
C      1  0.5565950000000  0.6044350000000  0.5688880000000 1.0
C      1  0.4589520000000  0.6207910000000  0.5395720000000 1.0
C      1  0.3964720000000  0.5707790000000  0.5528950000000 1.0
C      1  0.3845080000000  0.4928340000000  0.5723990000000 1.0
C      1  0.4329970000000  0.3838430000000  0.5341260000000 1.0
C      1  0.4882120000000  0.3662120000000  0.5310210000000 1.0
C      1  0.5601510000000  0.4050030000000  0.5773230000000 1.0
C      1  0.5651310000000  0.5512220000000  0.4429760000000 1.0
C      1  0.5170440000000  0.5766440000000  0.4365720000000 1.0
C      1  0.4450500000000  0.5662350000000  0.4393590000000 1.0
C      1  0.4105550000000  0.5234660000000  0.4461520000000 1.0
C      1  0.4128930000000  0.4682990000000  0.4398900000000 1.0
C      1  0.4503940000000  0.4336870000000  0.4222310000000 1.0
C      1  0.5175150000000  0.4233150000000  0.4266480000000 1.0
C      1  0.5662160000000  0.4552660000000  0.4367610000000 1.0
C      1  0.5810860000000  0.4973770000000  0.4445400000000 1.0
C      1  0.5364900000000  0.4837590000000  0.5568500000000 1.0
C      1  0.5438110000000  0.5114910000000  0.5654010000000 1.0
C      1  0.5290270000000  0.5361050000000  0.5576220000000 1.0
C      1  0.4984580000000  0.5461110000000  0.5541760000000 1.0
C      1  0.4703170000000  0.5317220000000  0.5416370000000 1.0
C      1  0.4563850000000  0.5057800000000  0.5444860000000 1.0
C      1  0.4591620000000  0.4744910000000  0.5518780000000 1.0
C      1  0.4871120000000  0.4572160000000  0.5497150000000 1.0
C      1  0.5138430000000  0.4632730000000  0.5634210000000 1.0
C      1  0.3801410000000  0.4973610000000  0.5151720000000 1.0
C      1  0.4090200000000  0.4153950000000  0.4968920000000 1.0
C      1  0.4995670000000  0.3743250000000  0.4830010000000 1.0
C      1  0.5616200000000  0.4050170000000  0.5187560000000 1.0
C      1  0.6170860000000  0.4542170000000  0.5044790000000 1.0
C      1  0.6207610000000  0.5497880000000  0.5042900000000 1.0
C      1  0.5593190000000  0.6012380000000  0.5103410000000 1.0
C      1  0.4794320000000  0.6232330000000  0.4902700000000 1.0
C      1  0.3935240000000  0.5776840000000  0.5035780000000 1.0
C      1  0.4924590000000  0.5015780000000  0.4639900000000 1.0
END
