TITL C-2622967-6265-275 0.00249406285534041 125000 -775.628598260206 0 0 149 (C1) n - 1
REM
REM in /nfs/bkarasulu/CARBON/AIRSS/Generating-Clusters/AIREBO/with-SteepDescent/Higher-Symm/SD-CG/HFTN-CG
REM
REM
REM
REM
REM
REM ./C.cell (b20cbc046b6831c77cfcea5457e17084)
REM
REM compiler GCC version 9.2.1 20190827 (Red Hat 9.2.1-1)
REM options -cpp -mtune=generic -march=x86-64 -g -O0 -fpre-include=/usr/include/finclude/math-vector-fortran.h
REM seed -1986372046 1645155826 -922012884 -1748363206 1464281755 -926849131 1258054937 1265468431 -314514993 811135583 -600610544 2094668863 48241765 -1494344056 -1796216866 859229542 -725533415 -975917798 1451358928 -1080573378 -22112457 2119970774 -415874877 -967977780 -1705212624 200998328 191055332 -747488368 2118373906 -209246044 -59497906 -569933847 -459790900
REM
CELL 1.54180   50.00000   50.00000   50.00000   90.00000   90.00000   90.00000
LATT -1
SFAC C  
C      1  0.4406120000000  0.4577690000000  0.5659480000000 1.0
C      1  0.4376610000000  0.4667210000000  0.4338610000000 1.0
C      1  0.4827370000000  0.5516830000000  0.5649690000000 1.0
C      1  0.4901670000000  0.5383450000000  0.4348530000000 1.0
C      1  0.5150270000000  0.4743290000000  0.4655180000000 1.0
C      1  0.5118650000000  0.4803910000000  0.5316530000000 1.0
C      1  0.4809340000000  0.4737500000000  0.4660710000000 1.0
C      1  0.4791810000000  0.4720440000000  0.5268220000000 1.0
C      1  0.4753920000000  0.4241810000000  0.4554180000000 1.0
C      1  0.4897000000000  0.4318320000000  0.5439100000000 1.0
C      1  0.4527700000000  0.5442410000000  0.5391210000000 1.0
C      1  0.4450130000000  0.5438150000000  0.4727070000000 1.0
C      1  0.4323310000000  0.5575930000000  0.4443210000000 1.0
C      1  0.4274170000000  0.5303540000000  0.5554290000000 1.0
C      1  0.4761080000000  0.4609240000000  0.4188830000000 1.0
C      1  0.4776390000000  0.4728090000000  0.5797960000000 1.0
C      1  0.5630960000000  0.4690440000000  0.5322980000000 1.0
C      1  0.5642260000000  0.4570410000000  0.4696020000000 1.0
C      1  0.4698640000000  0.4884140000000  0.4248180000000 1.0
C      1  0.4561060000000  0.4921610000000  0.5941600000000 1.0
C      1  0.4110980000000  0.4669630000000  0.4635100000000 1.0
C      1  0.4118770000000  0.4578870000000  0.5382780000000 1.0
C      1  0.5816540000000  0.5722420000000  0.5302460000000 1.0
C      1  0.5848110000000  0.5586430000000  0.4669220000000 1.0
C      1  0.4905280000000  0.5006980000000  0.4475600000000 1.0
C      1  0.4782400000000  0.5069790000000  0.5761500000000 1.0
C      1  0.4410430000000  0.4961830000000  0.4300560000000 1.0
C      1  0.4345050000000  0.4837940000000  0.5765540000000 1.0
C      1  0.5633390000000  0.5410840000000  0.4622360000000 1.0
C      1  0.5597860000000  0.5593820000000  0.5386180000000 1.0
C      1  0.4243890000000  0.5028130000000  0.5578810000000 1.0
C      1  0.4300940000000  0.5237270000000  0.4467230000000 1.0
C      1  0.4917790000000  0.5326540000000  0.5837570000000 1.0
C      1  0.5097850000000  0.5137840000000  0.4231690000000 1.0
C      1  0.4687520000000  0.5151710000000  0.5465960000000 1.0
C      1  0.4683600000000  0.5246550000000  0.4570920000000 1.0
C      1  0.4677980000000  0.5719600000000  0.5478380000000 1.0
C      1  0.4616450000000  0.5696290000000  0.4580810000000 1.0
C      1  0.5397770000000  0.5258150000000  0.4203840000000 1.0
C      1  0.5195370000000  0.5416820000000  0.5767800000000 1.0
C      1  0.4131740000000  0.5498200000000  0.5382610000000 1.0
C      1  0.4131760000000  0.5557740000000  0.4728360000000 1.0
C      1  0.4973060000000  0.5157140000000  0.5324800000000 1.0
C      1  0.5070020000000  0.5219870000000  0.4683430000000 1.0
C      1  0.5167680000000  0.4453100000000  0.4380840000000 1.0
C      1  0.5220700000000  0.4644550000000  0.5667350000000 1.0
C      1  0.5433880000000  0.5203980000000  0.4798790000000 1.0
C      1  0.5533680000000  0.5310350000000  0.5348860000000 1.0
C      1  0.4293760000000  0.4462900000000  0.4672320000000 1.0
C      1  0.4314990000000  0.4392730000000  0.5314120000000 1.0
C      1  0.4206150000000  0.4868480000000  0.5305670000000 1.0
C      1  0.4237120000000  0.4965200000000  0.4660890000000 1.0
C      1  0.5472210000000  0.4768600000000  0.4550850000000 1.0
C      1  0.5439230000000  0.4863110000000  0.5413620000000 1.0
C      1  0.5314620000000  0.4611960000000  0.4219470000000 1.0
C      1  0.5328230000000  0.4871730000000  0.5797680000000 1.0
C      1  0.5421000000000  0.5515200000000  0.4304060000000 1.0
C      1  0.5182850000000  0.5706380000000  0.5589600000000 1.0
C      1  0.5245750000000  0.4425640000000  0.4681900000000 1.0
C      1  0.5267610000000  0.4509010000000  0.5359080000000 1.0
C      1  0.5335140000000  0.5550200000000  0.4626880000000 1.0
C      1  0.5284930000000  0.5612570000000  0.5279110000000 1.0
C      1  0.5367490000000  0.5181610000000  0.5778430000000 1.0
C      1  0.5361280000000  0.4926290000000  0.4270380000000 1.0
C      1  0.5609770000000  0.5079420000000  0.4539000000000 1.0
C      1  0.5503430000000  0.5108970000000  0.5527900000000 1.0
C      1  0.4949020000000  0.4558420000000  0.5674370000000 1.0
C      1  0.4898980000000  0.4400480000000  0.4333080000000 1.0
C      1  0.4541050000000  0.4920010000000  0.5334490000000 1.0
C      1  0.4558280000000  0.4966620000000  0.4670150000000 1.0
C      1  0.5224980000000  0.4131690000000  0.4776890000000 1.0
C      1  0.5184320000000  0.4202240000000  0.5291940000000 1.0
C      1  0.4609700000000  0.4479480000000  0.5419550000000 1.0
C      1  0.4582280000000  0.4510540000000  0.4549000000000 1.0
C      1  0.4972830000000  0.5490100000000  0.5336480000000 1.0
C      1  0.5023630000000  0.5540360000000  0.4606500000000 1.0
C      1  0.4878220000000  0.5794830000000  0.4699170000000 1.0
C      1  0.4961730000000  0.5829930000000  0.5344480000000 1.0
C      1  0.4623680000000  0.4407810000000  0.5005480000000 1.0
C      1  0.6394030000000  0.4644890000000  0.4825770000000 1.0
C      1  0.3971050000000  0.4227090000000  0.4927220000000 1.0
C      1  0.5553520000000  0.5530820000000  0.4995170000000 1.0
C      1  0.6133630000000  0.4807010000000  0.4788440000000 1.0
C      1  0.6054410000000  0.4463650000000  0.5122800000000 1.0
C      1  0.5587160000000  0.3973610000000  0.5066070000000 1.0
C      1  0.5156070000000  0.6500310000000  0.5011910000000 1.0
C      1  0.5669210000000  0.4519710000000  0.5031330000000 1.0
C      1  0.3714440000000  0.5202160000000  0.5001760000000 1.0
C      1  0.4576580000000  0.3593030000000  0.4809030000000 1.0
C      1  0.4391870000000  0.5199950000000  0.5042410000000 1.0
C      1  0.4099930000000  0.5193610000000  0.5100280000000 1.0
C      1  0.5490580000000  0.4251740000000  0.5152480000000 1.0
C      1  0.4906640000000  0.5509060000000  0.5013220000000 1.0
C      1  0.4093730000000  0.5944040000000  0.5018740000000 1.0
C      1  0.5860140000000  0.5397940000000  0.5021320000000 1.0
C      1  0.5673440000000  0.6260180000000  0.4925730000000 1.0
C      1  0.4935410000000  0.5917720000000  0.5011270000000 1.0
C      1  0.5412430000000  0.6354480000000  0.4971180000000 1.0
C      1  0.5274890000000  0.4471570000000  0.5013920000000 1.0
C      1  0.4295330000000  0.4322370000000  0.4982010000000 1.0
C      1  0.6594200000000  0.4889130000000  0.4813260000000 1.0
C      1  0.4299460000000  0.6218280000000  0.5063290000000 1.0
C      1  0.6336750000000  0.5520850000000  0.5037430000000 1.0
C      1  0.5225890000000  0.5606570000000  0.4944060000000 1.0
C      1  0.5643440000000  0.4959080000000  0.4857230000000 1.0
C      1  0.6320230000000  0.5037770000000  0.4827050000000 1.0
C      1  0.5932210000000  0.4734980000000  0.5019270000000 1.0
C      1  0.4421330000000  0.5912110000000  0.5079390000000 1.0
C      1  0.6222070000000  0.5744730000000  0.4995030000000 1.0
C      1  0.5699330000000  0.5988300000000  0.4931130000000 1.0
C      1  0.3838930000000  0.5710960000000  0.5051420000000 1.0
C      1  0.3679520000000  0.4672040000000  0.4915330000000 1.0
C      1  0.6171170000000  0.5265570000000  0.4971600000000 1.0
C      1  0.4661780000000  0.6107920000000  0.4939850000000 1.0
C      1  0.5186230000000  0.6109460000000  0.4960160000000 1.0
C      1  0.4819820000000  0.3748780000000  0.4844710000000 1.0
C      1  0.3796590000000  0.4925090000000  0.4960360000000 1.0
C      1  0.5070160000000  0.5146010000000  0.4999120000000 1.0
C      1  0.4900410000000  0.6314900000000  0.5041540000000 1.0
C      1  0.5306300000000  0.3493560000000  0.5041590000000 1.0
C      1  0.4449320000000  0.4032780000000  0.4901770000000 1.0
C      1  0.4118540000000  0.3971680000000  0.4909550000000 1.0
C      1  0.3777020000000  0.4419290000000  0.4957760000000 1.0
C      1  0.4335170000000  0.3747590000000  0.4806510000000 1.0
C      1  0.5107160000000  0.4831970000000  0.4980610000000 1.0
C      1  0.4749560000000  0.4067910000000  0.4822710000000 1.0
C      1  0.4156850000000  0.5612630000000  0.5063000000000 1.0
C      1  0.6325190000000  0.4406770000000  0.4957530000000 1.0
C      1  0.5364910000000  0.5266810000000  0.5096900000000 1.0
C      1  0.6104590000000  0.4158040000000  0.5017110000000 1.0
C      1  0.5897450000000  0.5732500000000  0.4972340000000 1.0
C      1  0.5440750000000  0.4766240000000  0.4979550000000 1.0
C      1  0.5342150000000  0.3818210000000  0.4991950000000 1.0
C      1  0.4468180000000  0.5503770000000  0.5061880000000 1.0
C      1  0.5899440000000  0.5063760000000  0.5004060000000 1.0
C      1  0.5429000000000  0.5874080000000  0.4996870000000 1.0
C      1  0.4737020000000  0.5213930000000  0.5007470000000 1.0
C      1  0.4562780000000  0.6399650000000  0.5048640000000 1.0
C      1  0.3687320000000  0.5484450000000  0.4989970000000 1.0
C      1  0.4820820000000  0.4193760000000  0.5130670000000 1.0
C      1  0.4830290000000  0.4635420000000  0.4962700000000 1.0
C      1  0.4669680000000  0.5721540000000  0.5028890000000 1.0
C      1  0.4133490000000  0.4880840000000  0.4973610000000 1.0
C      1  0.5091670000000  0.4027680000000  0.5026010000000 1.0
C      1  0.5908430000000  0.3924620000000  0.5167660000000 1.0
C      1  0.4380270000000  0.4650150000000  0.5013780000000 1.0
C      1  0.5047240000000  0.3640250000000  0.4937190000000 1.0
C      1  0.5850480000000  0.4008260000000  0.4853790000000 1.0
C      1  0.4558190000000  0.4925000000000  0.4994910000000 1.0
END
