TITL C-2622954-8726-787 -30.5439708955698 125000 -825.676927602985 0 0 152 (C1) n - 1
REM
REM in /nfs/bkarasulu/CARBON/AIRSS/Generating-Clusters/AIREBO/with-SteepDescent/Higher-Symm/SD-CG/HFTN-CG
REM
REM
REM
REM
REM
REM ./C.cell (b20cbc046b6831c77cfcea5457e17084)
REM
REM compiler GCC version 9.2.1 20190827 (Red Hat 9.2.1-1)
REM options -cpp -mtune=generic -march=x86-64 -g -O0 -fpre-include=/usr/include/finclude/math-vector-fortran.h
REM seed -563596410 -1102921836 -541665262 2078378528 -2111326213 -1111343651 1423655670 -1955359282 -808123160 -139846093 -778442530 -900301099 -1678838442 1054024470 -238877070 -1123810690 678756032 -647854746 -1803171593 -1008053465 -919458934 -1706794667 1488894502 260617499 -159357059 209216573 -91459156 1284460875 1306189985 -1291707821 2031920394 1164305076 1502665718
REM
CELL 1.54180   50.00000   50.00000   50.00000   90.00000   90.00000   90.00000
LATT -1
SFAC C  
C      1  0.5163280000000  0.4996740000000  0.4055020000000 1.0
C      1  0.5214840000000  0.4105160000000  0.4934700000000 1.0
C      1  0.5144420000000  0.5032130000000  0.5988330000000 1.0
C      1  0.5199940000000  0.5937640000000  0.5047500000000 1.0
C      1  0.5041830000000  0.5681400000000  0.5865210000000 1.0
C      1  0.5140340000000  0.5822900000000  0.4408040000000 1.0
C      1  0.5060080000000  0.4363110000000  0.4083540000000 1.0
C      1  0.5116120000000  0.4254620000000  0.5789550000000 1.0
C      1  0.4592730000000  0.4944200000000  0.4794950000000 1.0
C      1  0.4456790000000  0.4800190000000  0.5059120000000 1.0
C      1  0.4604930000000  0.5035460000000  0.5206090000000 1.0
C      1  0.4456550000000  0.5185380000000  0.4953610000000 1.0
C      1  0.4101750000000  0.4986250000000  0.5552410000000 1.0
C      1  0.4109060000000  0.5514020000000  0.5023240000000 1.0
C      1  0.4142960000000  0.5003520000000  0.4462400000000 1.0
C      1  0.4173780000000  0.4483130000000  0.4982280000000 1.0
C      1  0.4792110000000  0.5373650000000  0.5910850000000 1.0
C      1  0.4852990000000  0.5879310000000  0.4678750000000 1.0
C      1  0.4799440000000  0.4662650000000  0.4117780000000 1.0
C      1  0.4854450000000  0.4105230000000  0.5372510000000 1.0
C      1  0.4530730000000  0.4815020000000  0.4486550000000 1.0
C      1  0.4555600000000  0.4523760000000  0.5157040000000 1.0
C      1  0.4498310000000  0.5151810000000  0.5494130000000 1.0
C      1  0.4561710000000  0.5471460000000  0.4883970000000 1.0
C      1  0.4685390000000  0.4393580000000  0.4923270000000 1.0
C      1  0.4645640000000  0.4914930000000  0.5610140000000 1.0
C      1  0.4708990000000  0.5582570000000  0.5118610000000 1.0
C      1  0.4688450000000  0.5069860000000  0.4427210000000 1.0
C      1  0.4604560000000  0.4376860000000  0.5524650000000 1.0
C      1  0.4526540000000  0.5517410000000  0.5649390000000 1.0
C      1  0.4506720000000  0.5772960000000  0.4430400000000 1.0
C      1  0.4514460000000  0.4471060000000  0.4322080000000 1.0
C      1  0.4686570000000  0.5586050000000  0.4217600000000 1.0
C      1  0.4674750000000  0.4185030000000  0.4412060000000 1.0
C      1  0.4653140000000  0.4464020000000  0.5847810000000 1.0
C      1  0.4591090000000  0.5839300000000  0.5581100000000 1.0
C      1  0.4609130000000  0.5349470000000  0.4603650000000 1.0
C      1  0.4664530000000  0.4577620000000  0.4656090000000 1.0
C      1  0.4711080000000  0.4664320000000  0.5408900000000 1.0
C      1  0.4675930000000  0.5389180000000  0.5374370000000 1.0
C      1  0.4366450000000  0.4295480000000  0.5309330000000 1.0
C      1  0.4313030000000  0.5291320000000  0.5734650000000 1.0
C      1  0.4375270000000  0.5696260000000  0.4716080000000 1.0
C      1  0.4306020000000  0.4710870000000  0.4253570000000 1.0
C      1  0.5422080000000  0.4565470000000  0.4163680000000 1.0
C      1  0.5391490000000  0.4329660000000  0.5338160000000 1.0
C      1  0.5422710000000  0.5406990000000  0.5793390000000 1.0
C      1  0.5439810000000  0.5663760000000  0.4694140000000 1.0
C      1  0.4136090000000  0.5185290000000  0.4940520000000 1.0
C      1  0.4034980000000  0.4912260000000  0.4764900000000 1.0
C      1  0.4135000000000  0.4808280000000  0.5073940000000 1.0
C      1  0.4018880000000  0.5077120000000  0.5240850000000 1.0
C      1  0.5837770000000  0.5741970000000  0.5205290000000 1.0
C      1  0.5553530000000  0.5213980000000  0.4141040000000 1.0
C      1  0.5767150000000  0.4266210000000  0.4867790000000 1.0
C      1  0.5566340000000  0.4832070000000  0.5856400000000 1.0
C      1  0.5019650000000  0.5208570000000  0.3955070000000 1.0
C      1  0.5088980000000  0.3962590000000  0.4735610000000 1.0
C      1  0.4980530000000  0.4849380000000  0.6107190000000 1.0
C      1  0.5003920000000  0.6059900000000  0.5203840000000 1.0
C      1  0.5318670000000  0.5071870000000  0.4341820000000 1.0
C      1  0.5341600000000  0.4392610000000  0.4848800000000 1.0
C      1  0.5267940000000  0.4908240000000  0.5712110000000 1.0
C      1  0.5330920000000  0.5662330000000  0.5182890000000 1.0
C      1  0.4879300000000  0.4991310000000  0.4808180000000 1.0
C      1  0.5051070000000  0.4789710000000  0.4991160000000 1.0
C      1  0.4905850000000  0.4985420000000  0.5217500000000 1.0
C      1  0.5060790000000  0.5199730000000  0.5024250000000 1.0
C      1  0.5179980000000  0.5532350000000  0.4580220000000 1.0
C      1  0.5184640000000  0.4504610000000  0.4387580000000 1.0
C      1  0.5116460000000  0.4391150000000  0.5494870000000 1.0
C      1  0.5168870000000  0.5486080000000  0.5625180000000 1.0
C      1  0.5732150000000  0.5341760000000  0.4762470000000 1.0
C      1  0.5772630000000  0.4696830000000  0.4546900000000 1.0
C      1  0.5654700000000  0.4756880000000  0.5266540000000 1.0
C      1  0.5564680000000  0.5072650000000  0.5300750000000 1.0
C      1  0.5779390000000  0.5177620000000  0.5533680000000 1.0
C      1  0.5837660000000  0.5657870000000  0.4728620000000 1.0
C      1  0.5845030000000  0.4822230000000  0.4247980000000 1.0
C      1  0.5778460000000  0.4447050000000  0.5340060000000 1.0
C      1  0.5328850000000  0.5833600000000  0.5476750000000 1.0
C      1  0.5496080000000  0.5515920000000  0.4199630000000 1.0
C      1  0.5421850000000  0.4090800000000  0.4281390000000 1.0
C      1  0.5500140000000  0.4543210000000  0.5876900000000 1.0
C      1  0.4976040000000  0.4114630000000  0.4493410000000 1.0
C      1  0.4953300000000  0.4582030000000  0.5949680000000 1.0
C      1  0.4873710000000  0.5923820000000  0.5456440000000 1.0
C      1  0.4976000000000  0.5445690000000  0.4143630000000 1.0
C      1  0.5144770000000  0.5330210000000  0.5974370000000 1.0
C      1  0.5186080000000  0.5894690000000  0.4745520000000 1.0
C      1  0.5131580000000  0.4692850000000  0.4041190000000 1.0
C      1  0.5177290000000  0.4074370000000  0.5258570000000 1.0
C      1  0.4528340000000  0.5249850000000  0.5956780000000 1.0
C      1  0.4589090000000  0.5938960000000  0.4783530000000 1.0
C      1  0.4548640000000  0.4800520000000  0.4071580000000 1.0
C      1  0.4576660000000  0.4057100000000  0.5287560000000 1.0
C      1  0.4524030000000  0.4206600000000  0.4687420000000 1.0
C      1  0.4456820000000  0.4693130000000  0.5716130000000 1.0
C      1  0.4455160000000  0.5710800000000  0.5307310000000 1.0
C      1  0.4552770000000  0.5300320000000  0.4217170000000 1.0
C      1  0.4973460000000  0.4753410000000  0.4383090000000 1.0
C      1  0.5000960000000  0.4349640000000  0.5194570000000 1.0
C      1  0.4937710000000  0.5263340000000  0.5641600000000 1.0
C      1  0.4954680000000  0.5596390000000  0.4791310000000 1.0
C      1  0.4977670000000  0.4941710000000  0.5538000000000 1.0
C      1  0.5039540000000  0.5506790000000  0.5089510000000 1.0
C      1  0.5022120000000  0.5065760000000  0.4508510000000 1.0
C      1  0.5016860000000  0.4475280000000  0.4907300000000 1.0
C      1  0.5120910000000  0.5881790000000  0.5644320000000 1.0
C      1  0.5233630000000  0.5612450000000  0.4192300000000 1.0
C      1  0.5153860000000  0.4109260000000  0.4248940000000 1.0
C      1  0.5257240000000  0.4436290000000  0.5979880000000 1.0
C      1  0.4891690000000  0.5587010000000  0.5504500000000 1.0
C      1  0.4921120000000  0.5388680000000  0.4474290000000 1.0
C      1  0.4941920000000  0.4430050000000  0.4580530000000 1.0
C      1  0.4952080000000  0.4615200000000  0.5629520000000 1.0
C      1  0.5627970000000  0.5611120000000  0.5340600000000 1.0
C      1  0.5546420000000  0.5264800000000  0.4504880000000 1.0
C      1  0.5602760000000  0.4420110000000  0.4632760000000 1.0
C      1  0.5429350000000  0.4686400000000  0.5511230000000 1.0
C      1  0.5452740000000  0.4532000000000  0.5110610000000 1.0
C      1  0.5384160000000  0.5161300000000  0.5561320000000 1.0
C      1  0.5493360000000  0.5475760000000  0.4959200000000 1.0
C      1  0.5478470000000  0.4777370000000  0.4399780000000 1.0
C      1  0.5648680000000  0.5589750000000  0.4463860000000 1.0
C      1  0.5539330000000  0.4325180000000  0.4347300000000 1.0
C      1  0.5581230000000  0.4396820000000  0.5604460000000 1.0
C      1  0.5662310000000  0.5444940000000  0.5567410000000 1.0
C      1  0.5879230000000  0.4842860000000  0.4773610000000 1.0
C      1  0.5911330000000  0.4824360000000  0.5079370000000 1.0
C      1  0.6074590000000  0.5094360000000  0.5116530000000 1.0
C      1  0.5932590000000  0.5138520000000  0.4837400000000 1.0
C      1  0.4163260000000  0.4676710000000  0.4555950000000 1.0
C      1  0.4168260000000  0.4571910000000  0.5316260000000 1.0
C      1  0.4134740000000  0.5311720000000  0.5455980000000 1.0
C      1  0.4194590000000  0.5419250000000  0.4700630000000 1.0
C      1  0.5355530000000  0.4828220000000  0.5011570000000 1.0
C      1  0.5468170000000  0.5156730000000  0.5013360000000 1.0
C      1  0.5248620000000  0.5115000000000  0.4757460000000 1.0
C      1  0.5445810000000  0.4865130000000  0.4700910000000 1.0
C      1  0.4207530000000  0.4723690000000  0.5578380000000 1.0
C      1  0.4210720000000  0.5559540000000  0.5285360000000 1.0
C      1  0.4313460000000  0.5249380000000  0.4453270000000 1.0
C      1  0.4345130000000  0.4485860000000  0.4728500000000 1.0
C      1  0.4823300000000  0.5869510000000  0.4352480000000 1.0
C      1  0.4739460000000  0.4333440000000  0.4111400000000 1.0
C      1  0.4831180000000  0.4187800000000  0.5685720000000 1.0
C      1  0.4721160000000  0.5694820000000  0.5864460000000 1.0
C      1  0.5853260000000  0.4308480000000  0.5122370000000 1.0
C      1  0.5777870000000  0.4997920000000  0.5760710000000 1.0
C      1  0.5921430000000  0.5781760000000  0.4947070000000 1.0
C      1  0.5777190000000  0.5016690000000  0.4102750000000 1.0
END
