TITL C-2622966-9038-546 0.00106345576882023 125000 -816.017805149132 0 0 146 (C1) n - 1
REM
REM in /nfs/bkarasulu/CARBON/AIRSS/Generating-Clusters/AIREBO/with-SteepDescent/Higher-Symm/SD-CG/HFTN-CG
REM
REM
REM
REM
REM
REM ./C.cell (b20cbc046b6831c77cfcea5457e17084)
REM
REM compiler GCC version 9.2.1 20190827 (Red Hat 9.2.1-1)
REM options -cpp -mtune=generic -march=x86-64 -g -O0 -fpre-include=/usr/include/finclude/math-vector-fortran.h
REM seed 136345919 -600625767 -236944704 -1428614522 1758693201 278078802 1664490288 1521613993 1536949855 -1293787112 -352174201 1618849993 -20297901 1638692769 1925400425 425448056 1149851856 -1588028412 1137509735 1499504311 -1967686676 -2140475301 410888506 -890714860 -612830234 -1794381693 2109279858 -2103624120 -1758166139 -1794385216 502635589 1074212565 -368771098
REM
CELL 1.54180   50.00000   50.00000   50.00000   90.00000   90.00000   90.00000
LATT -1
SFAC C  
C      1  0.4276270000000  0.4605010000000  0.5721170000000 1.0
C      1  0.5723200000000  0.5335310000000  0.4295680000000 1.0
C      1  0.4728980000000  0.4096020000000  0.5139260000000 1.0
C      1  0.5289600000000  0.5875590000000  0.4815080000000 1.0
C      1  0.5665400000000  0.5210500000000  0.5653800000000 1.0
C      1  0.4301700000000  0.4816850000000  0.4376010000000 1.0
C      1  0.4820170000000  0.6007230000000  0.5114480000000 1.0
C      1  0.5150530000000  0.3941240000000  0.4890230000000 1.0
C      1  0.4229000000000  0.5278220000000  0.5413420000000 1.0
C      1  0.5758890000000  0.4742650000000  0.4568500000000 1.0
C      1  0.4971330000000  0.4551200000000  0.4308160000000 1.0
C      1  0.5003610000000  0.5449100000000  0.5694440000000 1.0
C      1  0.4990810000000  0.4218730000000  0.5475560000000 1.0
C      1  0.5015830000000  0.5854550000000  0.4526820000000 1.0
C      1  0.5308800000000  0.4392330000000  0.5642960000000 1.0
C      1  0.4710290000000  0.5624220000000  0.4415230000000 1.0
C      1  0.4163660000000  0.5388880000000  0.4739910000000 1.0
C      1  0.5861540000000  0.4621710000000  0.5352540000000 1.0
C      1  0.5971760000000  0.5256820000000  0.5162290000000 1.0
C      1  0.4017710000000  0.4744690000000  0.4874330000000 1.0
C      1  0.5218720000000  0.4542820000000  0.5202250000000 1.0
C      1  0.4773690000000  0.5449590000000  0.4769040000000 1.0
C      1  0.5388030000000  0.5013950000000  0.4035590000000 1.0
C      1  0.4596240000000  0.4950920000000  0.5963140000000 1.0
C      1  0.5811130000000  0.5358670000000  0.5390820000000 1.0
C      1  0.4168240000000  0.4657900000000  0.4631410000000 1.0
C      1  0.4282250000000  0.5367740000000  0.4481540000000 1.0
C      1  0.5693590000000  0.4686910000000  0.5570150000000 1.0
C      1  0.5926780000000  0.5389500000000  0.4486640000000 1.0
C      1  0.4079890000000  0.4557000000000  0.5521330000000 1.0
C      1  0.4491210000000  0.4692030000000  0.4702900000000 1.0
C      1  0.5490760000000  0.5324210000000  0.5314240000000 1.0
C      1  0.5169850000000  0.4488600000000  0.4659750000000 1.0
C      1  0.4832650000000  0.5506000000000  0.5338270000000 1.0
C      1  0.4407590000000  0.5072330000000  0.4476940000000 1.0
C      1  0.5604710000000  0.4967500000000  0.5468360000000 1.0
C      1  0.4185820000000  0.5612260000000  0.4915470000000 1.0
C      1  0.5806790000000  0.4447180000000  0.5099310000000 1.0
C      1  0.4905920000000  0.4613920000000  0.4798700000000 1.0
C      1  0.5085170000000  0.5391010000000  0.5179930000000 1.0
C      1  0.5784150000000  0.5115790000000  0.4916150000000 1.0
C      1  0.4228790000000  0.4866380000000  0.5111590000000 1.0
C      1  0.4557210000000  0.5841510000000  0.4620220000000 1.0
C      1  0.5466980000000  0.4208100000000  0.5403020000000 1.0
C      1  0.4925080000000  0.5369690000000  0.4484930000000 1.0
C      1  0.5050230000000  0.4553270000000  0.5491540000000 1.0
C      1  0.5312440000000  0.4609650000000  0.4909680000000 1.0
C      1  0.4686940000000  0.5404660000000  0.5071140000000 1.0
C      1  0.5036750000000  0.5179870000000  0.4913130000000 1.0
C      1  0.4970180000000  0.4817110000000  0.5067670000000 1.0
C      1  0.5727040000000  0.5632900000000  0.4860920000000 1.0
C      1  0.4290920000000  0.4349600000000  0.5133440000000 1.0
C      1  0.4616880000000  0.4744770000000  0.5466260000000 1.0
C      1  0.5396940000000  0.5264930000000  0.4539900000000 1.0
C      1  0.5278940000000  0.5015100000000  0.5503240000000 1.0
C      1  0.4741590000000  0.5012360000000  0.4498310000000 1.0
C      1  0.5064070000000  0.5068710000000  0.4457010000000 1.0
C      1  0.4990790000000  0.4872430000000  0.5501640000000 1.0
C      1  0.5122870000000  0.6084190000000  0.4997130000000 1.0
C      1  0.4862650000000  0.3967680000000  0.4872970000000 1.0
C      1  0.4480130000000  0.5606590000000  0.5183980000000 1.0
C      1  0.5529770000000  0.4413790000000  0.4815770000000 1.0
C      1  0.5254060000000  0.5021400000000  0.4715020000000 1.0
C      1  0.4775200000000  0.4977970000000  0.5276080000000 1.0
C      1  0.5269650000000  0.5407000000000  0.4813280000000 1.0
C      1  0.4743210000000  0.4592530000000  0.5184730000000 1.0
C      1  0.4797830000000  0.5826530000000  0.5378830000000 1.0
C      1  0.5232670000000  0.4170610000000  0.4653040000000 1.0
C      1  0.4523780000000  0.5411870000000  0.4300630000000 1.0
C      1  0.5481350000000  0.4615070000000  0.5743220000000 1.0
C      1  0.5154840000000  0.5158280000000  0.4079240000000 1.0
C      1  0.4841240000000  0.4827910000000  0.5909120000000 1.0
C      1  0.5492790000000  0.4752420000000  0.5230950000000 1.0
C      1  0.4522050000000  0.5215830000000  0.4763210000000 1.0
C      1  0.4447190000000  0.4189250000000  0.5571890000000 1.0
C      1  0.5575130000000  0.5768710000000  0.4404250000000 1.0
C      1  0.5659490000000  0.5058190000000  0.4604910000000 1.0
C      1  0.4362760000000  0.4965010000000  0.5408450000000 1.0
C      1  0.4532590000000  0.5894340000000  0.5125530000000 1.0
C      1  0.5476790000000  0.4117690000000  0.4884030000000 1.0
C      1  0.5270890000000  0.5641120000000  0.5223650000000 1.0
C      1  0.4705460000000  0.4364200000000  0.4717010000000 1.0
C      1  0.4507850000000  0.4670730000000  0.4151400000000 1.0
C      1  0.5454480000000  0.5353430000000  0.5866140000000 1.0
C      1  0.4221370000000  0.5133660000000  0.4899530000000 1.0
C      1  0.5792450000000  0.4818900000000  0.5084300000000 1.0
C      1  0.5333780000000  0.4247130000000  0.4136530000000 1.0
C      1  0.4618110000000  0.5704100000000  0.5858360000000 1.0
C      1  0.5226800000000  0.3868230000000  0.5172010000000 1.0
C      1  0.4851100000000  0.6181440000000  0.4835590000000 1.0
C      1  0.5439820000000  0.4913360000000  0.4937260000000 1.0
C      1  0.4569240000000  0.5099500000000  0.5079200000000 1.0
C      1  0.4788820000000  0.4115690000000  0.4654380000000 1.0
C      1  0.5173570000000  0.5895530000000  0.5261570000000 1.0
C      1  0.4486730000000  0.4420360000000  0.5729830000000 1.0
C      1  0.5522020000000  0.5528040000000  0.4266150000000 1.0
C      1  0.5280930000000  0.4624130000000  0.4398850000000 1.0
C      1  0.4693460000000  0.5367670000000  0.5585110000000 1.0
C      1  0.5517010000000  0.5909680000000  0.5059410000000 1.0
C      1  0.4481300000000  0.4081430000000  0.4906760000000 1.0
C      1  0.5591120000000  0.4635230000000  0.4352860000000 1.0
C      1  0.4431070000000  0.5316520000000  0.5627260000000 1.0
C      1  0.5021090000000  0.5690650000000  0.4270240000000 1.0
C      1  0.5010370000000  0.4313320000000  0.5801590000000 1.0
C      1  0.4796090000000  0.6019930000000  0.4608180000000 1.0
C      1  0.5228460000000  0.4046520000000  0.5378020000000 1.0
C      1  0.4118340000000  0.4461620000000  0.4380870000000 1.0
C      1  0.5845800000000  0.5566720000000  0.5639250000000 1.0
C      1  0.5059450000000  0.5633440000000  0.4751420000000 1.0
C      1  0.4941340000000  0.4346780000000  0.5171200000000 1.0
C      1  0.4824340000000  0.4944030000000  0.4790970000000 1.0
C      1  0.5178600000000  0.5064600000000  0.5199840000000 1.0
C      1  0.5705810000000  0.5555740000000  0.5850640000000 1.0
C      1  0.4251260000000  0.4480150000000  0.4166430000000 1.0
C      1  0.4214410000000  0.5488700000000  0.5224380000000 1.0
C      1  0.5785110000000  0.4560760000000  0.4779490000000 1.0
C      1  0.6231600000000  0.5228220000000  0.5161710000000 1.0
C      1  0.3760610000000  0.4787850000000  0.4887210000000 1.0
C      1  0.5567980000000  0.5786730000000  0.4684730000000 1.0
C      1  0.4455420000000  0.4181680000000  0.5290780000000 1.0
C      1  0.4831380000000  0.5727440000000  0.5679620000000 1.0
C      1  0.5141390000000  0.4258010000000  0.4336270000000 1.0
C      1  0.4159780000000  0.4563670000000  0.5250270000000 1.0
C      1  0.5860000000000  0.5408840000000  0.4761180000000 1.0
C      1  0.4893090000000  0.5038520000000  0.4076070000000 1.0
C      1  0.5090610000000  0.4965930000000  0.5925030000000 1.0
C      1  0.5314630000000  0.4838190000000  0.5791430000000 1.0
C      1  0.4684920000000  0.5194960000000  0.4217140000000 1.0
C      1  0.5616930000000  0.4222410000000  0.5156020000000 1.0
C      1  0.4393140000000  0.5815010000000  0.4854580000000 1.0
C      1  0.5205930000000  0.5406360000000  0.4296590000000 1.0
C      1  0.4785250000000  0.4569230000000  0.5704210000000 1.0
C      1  0.5136640000000  0.5248600000000  0.5927300000000 1.0
C      1  0.4828450000000  0.4757150000000  0.4078010000000 1.0
C      1  0.5637790000000  0.5037560000000  0.4265320000000 1.0
C      1  0.4357100000000  0.4895490000000  0.5738550000000 1.0
C      1  0.4490710000000  0.5493700000000  0.5980320000000 1.0
C      1  0.5503210000000  0.4450260000000  0.4094390000000 1.0
C      1  0.5600010000000  0.5607050000000  0.5160360000000 1.0
C      1  0.4391960000000  0.4391700000000  0.4827710000000 1.0
C      1  0.5292940000000  0.5336040000000  0.5573370000000 1.0
C      1  0.4685430000000  0.4683680000000  0.4438610000000 1.0
C      1  0.4538010000000  0.4771010000000  0.5007150000000 1.0
C      1  0.5478890000000  0.5237250000000  0.5004030000000 1.0
C      1  0.4375310000000  0.5192580000000  0.5909250000000 1.0
C      1  0.5610990000000  0.4771320000000  0.4055430000000 1.0
END
