TITL C-2622966-9038-2 1.84882796982458e-05 125000 -211.022187283434 0 0 40 (C1) n - 1
REM
REM in /nfs/bkarasulu/CARBON/AIRSS/Generating-Clusters/AIREBO/with-SteepDescent/Higher-Symm/SD-CG/HFTN-CG
REM
REM
REM
REM
REM
REM ./C.cell (b20cbc046b6831c77cfcea5457e17084)
REM
REM compiler GCC version 9.2.1 20190827 (Red Hat 9.2.1-1)
REM options -cpp -mtune=generic -march=x86-64 -g -O0 -fpre-include=/usr/include/finclude/math-vector-fortran.h
REM seed -853343522 782924892 2055383940 -288131322 -1943424937 -1707195963 -1547062090 -1905679159 -1370718787 80491885 -968172188 413537426 1367717892 2055457959 16081698 -1799390766 -1529892922 -1904485912 1245323904 320438507 -761932408 1489844722 -1542340462 773348506 1589425711 478896273 1842306032 -420303669 1911604698 307791899 726977090 624036135 -1340315938
REM
CELL 1.54180   50.00000   50.00000   50.00000   90.00000   90.00000   90.00000
LATT -1
SFAC C  
C      1  0.4489500000000  0.4926900000000  0.5210000000000 1.0
C      1  0.4638690000000  0.4604330000000  0.4834650000000 1.0
C      1  0.5086830000000  0.4876270000000  0.5281810000000 1.0
C      1  0.4964000000000  0.5192590000000  0.5303990000000 1.0
C      1  0.4686750000000  0.4844480000000  0.4625480000000 1.0
C      1  0.5691250000000  0.5037810000000  0.5262510000000 1.0
C      1  0.5168500000000  0.5534100000000  0.5280560000000 1.0
C      1  0.4925820000000  0.5307070000000  0.4372560000000 1.0
C      1  0.4639930000000  0.5735620000000  0.4887930000000 1.0
C      1  0.4619170000000  0.5567300000000  0.5133510000000 1.0
C      1  0.4681320000000  0.4905010000000  0.4369220000000 1.0
C      1  0.4420510000000  0.4690770000000  0.5043570000000 1.0
C      1  0.4772350000000  0.5125760000000  0.4236260000000 1.0
C      1  0.5161510000000  0.4715690000000  0.4845060000000 1.0
C      1  0.4958120000000  0.5210970000000  0.4875480000000 1.0
C      1  0.5529070000000  0.5014970000000  0.4642140000000 1.0
C      1  0.4905640000000  0.5393680000000  0.4635300000000 1.0
C      1  0.4437990000000  0.5139190000000  0.5378260000000 1.0
C      1  0.4666320000000  0.4179230000000  0.5235190000000 1.0
C      1  0.4846990000000  0.5498820000000  0.5376480000000 1.0
C      1  0.4898700000000  0.4904520000000  0.4867430000000 1.0
C      1  0.5342550000000  0.4818310000000  0.4587720000000 1.0
C      1  0.5215630000000  0.5257300000000  0.5000420000000 1.0
C      1  0.5381360000000  0.5553330000000  0.5015700000000 1.0
C      1  0.5717800000000  0.5050420000000  0.4923130000000 1.0
C      1  0.4723490000000  0.5250530000000  0.5091690000000 1.0
C      1  0.5287670000000  0.5216380000000  0.5326640000000 1.0
C      1  0.4796290000000  0.4359380000000  0.5466380000000 1.0
C      1  0.5775830000000  0.4767520000000  0.5090120000000 1.0
C      1  0.5401340000000  0.4932640000000  0.5398990000000 1.0
C      1  0.4785500000000  0.4805210000000  0.5157720000000 1.0
C      1  0.4923410000000  0.4532270000000  0.4684670000000 1.0
C      1  0.4744740000000  0.4495690000000  0.5171020000000 1.0
C      1  0.4914880000000  0.4363670000000  0.5699410000000 1.0
C      1  0.5493060000000  0.5276990000000  0.4847950000000 1.0
C      1  0.5128780000000  0.4611770000000  0.4465680000000 1.0
C      1  0.4524550000000  0.5392120000000  0.5406580000000 1.0
C      1  0.5325210000000  0.4572590000000  0.5057840000000 1.0
C      1  0.4816860000000  0.5652200000000  0.4697020000000 1.0
C      1  0.5512110000000  0.4686580000000  0.5213920000000 1.0
END
