TITL C-2622959-7779-374 0.00132700145681973 125000 -901.604274882446 0 0 157 (C1) n - 1
REM
REM in /nfs/bkarasulu/CARBON/AIRSS/Generating-Clusters/AIREBO/with-SteepDescent/Higher-Symm/SD-CG/HFTN-CG
REM
REM
REM
REM
REM
REM ./C.cell (b20cbc046b6831c77cfcea5457e17084)
REM
REM compiler GCC version 9.2.1 20190827 (Red Hat 9.2.1-1)
REM options -cpp -mtune=generic -march=x86-64 -g -O0 -fpre-include=/usr/include/finclude/math-vector-fortran.h
REM seed 477147451 438114979 -889565371 1842856113 1424040869 1045807628 478006453 -924865630 -443611665 -1852734129 779395406 -1649805346 -693708780 -2078671075 25074434 -220575018 1235066263 -725153801 104697969 -245827470 1297689828 -666050029 -1449954688 1615676978 -215198115 -1624201010 118496032 1244729767 -1107480484 -1202624336 1779192660 1924887697 -96155212
REM
CELL 1.54180   50.00000   50.00000   50.00000   90.00000   90.00000   90.00000
LATT -1
SFAC C  
C      1  0.5045970000000  0.5413460000000  0.5337020000000 1.0
C      1  0.5569880000000  0.5125130000000  0.5469500000000 1.0
C      1  0.5287140000000  0.4523420000000  0.5476720000000 1.0
C      1  0.4694130000000  0.4612180000000  0.5366400000000 1.0
C      1  0.4445660000000  0.5207320000000  0.5366790000000 1.0
C      1  0.5079360000000  0.4418950000000  0.4509890000000 1.0
C      1  0.5574270000000  0.4896420000000  0.4538810000000 1.0
C      1  0.5313560000000  0.5503940000000  0.4536980000000 1.0
C      1  0.4555840000000  0.5345570000000  0.4656740000000 1.0
C      1  0.4521130000000  0.4790120000000  0.4510940000000 1.0
C      1  0.5241090000000  0.3751060000000  0.4769920000000 1.0
C      1  0.3973070000000  0.4387150000000  0.4802450000000 1.0
C      1  0.4075730000000  0.5931510000000  0.4699530000000 1.0
C      1  0.5503890000000  0.6081360000000  0.4825470000000 1.0
C      1  0.6128010000000  0.4861550000000  0.4811560000000 1.0
C      1  0.5245680000000  0.6171300000000  0.5211070000000 1.0
C      1  0.3942910000000  0.5647670000000  0.5321700000000 1.0
C      1  0.4093470000000  0.4186580000000  0.5260060000000 1.0
C      1  0.5491350000000  0.3840050000000  0.5258670000000 1.0
C      1  0.6097970000000  0.5093390000000  0.5226850000000 1.0
C      1  0.4682680000000  0.5018420000000  0.4000870000000 1.0
C      1  0.4836560000000  0.5280370000000  0.4157140000000 1.0
C      1  0.5159370000000  0.5175170000000  0.4135590000000 1.0
C      1  0.5229910000000  0.4878950000000  0.3995400000000 1.0
C      1  0.4923680000000  0.4780720000000  0.4033580000000 1.0
C      1  0.4702580000000  0.5008770000000  0.5986660000000 1.0
C      1  0.4839370000000  0.4731170000000  0.5844610000000 1.0
C      1  0.5164070000000  0.4827060000000  0.5877370000000 1.0
C      1  0.5218410000000  0.5132600000000  0.5943470000000 1.0
C      1  0.4929910000000  0.5259470000000  0.6021100000000 1.0
C      1  0.5217070000000  0.5696780000000  0.4290200000000 1.0
C      1  0.5702080000000  0.5054570000000  0.4296220000000 1.0
C      1  0.5242820000000  0.4337340000000  0.4246910000000 1.0
C      1  0.4457750000000  0.4576800000000  0.4277130000000 1.0
C      1  0.4351120000000  0.5322820000000  0.4242470000000 1.0
C      1  0.5196030000000  0.4324410000000  0.5727380000000 1.0
C      1  0.5688680000000  0.4945040000000  0.5716460000000 1.0
C      1  0.5236390000000  0.5649260000000  0.5718480000000 1.0
C      1  0.4441710000000  0.5464380000000  0.5766230000000 1.0
C      1  0.4397210000000  0.4657760000000  0.5789870000000 1.0
C      1  0.5181710000000  0.5457420000000  0.5905950000000 1.0
C      1  0.5483830000000  0.4923750000000  0.5940970000000 1.0
C      1  0.5085110000000  0.4504460000000  0.5936030000000 1.0
C      1  0.4469040000000  0.4794480000000  0.6014560000000 1.0
C      1  0.4618120000000  0.5334790000000  0.5932600000000 1.0
C      1  0.5171290000000  0.4546110000000  0.4034100000000 1.0
C      1  0.5482510000000  0.5078210000000  0.4084460000000 1.0
C      1  0.5092480000000  0.5505920000000  0.4093920000000 1.0
C      1  0.4411720000000  0.5189590000000  0.4012250000000 1.0
C      1  0.4608640000000  0.4687620000000  0.4040580000000 1.0
C      1  0.4645220000000  0.4518460000000  0.5658530000000 1.0
C      1  0.4282760000000  0.5292600000000  0.5611230000000 1.0
C      1  0.5039540000000  0.5670860000000  0.5515760000000 1.0
C      1  0.5800610000000  0.5261050000000  0.5657070000000 1.0
C      1  0.5509400000000  0.4305990000000  0.5614580000000 1.0
C      1  0.4608050000000  0.5468470000000  0.4348080000000 1.0
C      1  0.4196870000000  0.4742520000000  0.4420350000000 1.0
C      1  0.5005700000000  0.4127000000000  0.4377210000000 1.0
C      1  0.5810520000000  0.4742340000000  0.4397420000000 1.0
C      1  0.5525600000000  0.5732190000000  0.4431190000000 1.0
C      1  0.5269690000000  0.4050310000000  0.5156980000000 1.0
C      1  0.4152690000000  0.4492230000000  0.5142890000000 1.0
C      1  0.4193970000000  0.5602030000000  0.5135300000000 1.0
C      1  0.5367510000000  0.5880790000000  0.5142930000000 1.0
C      1  0.5873640000000  0.4895140000000  0.5118320000000 1.0
C      1  0.5221200000000  0.5920860000000  0.4841800000000 1.0
C      1  0.4097050000000  0.5622550000000  0.4822610000000 1.0
C      1  0.4301800000000  0.4455430000000  0.4856040000000 1.0
C      1  0.5334970000000  0.4047250000000  0.4844530000000 1.0
C      1  0.5928480000000  0.5108680000000  0.4864930000000 1.0
C      1  0.5038000000000  0.4544850000000  0.4990850000000 1.0
C      1  0.4763560000000  0.4971870000000  0.5065520000000 1.0
C      1  0.4715750000000  0.5372120000000  0.5021900000000 1.0
C      1  0.5264040000000  0.5283950000000  0.5101830000000 1.0
C      1  0.5431620000000  0.4928870000000  0.5029490000000 1.0
C      1  0.5019980000000  0.5439910000000  0.4923580000000 1.0
C      1  0.4551280000000  0.5120570000000  0.4883930000000 1.0
C      1  0.4884450000000  0.4789980000000  0.4835890000000 1.0
C      1  0.5335550000000  0.4632800000000  0.4940770000000 1.0
C      1  0.5253910000000  0.5103040000000  0.4804480000000 1.0
C      1  0.4155930000000  0.5276820000000  0.4423350000000 1.0
C      1  0.5023580000000  0.5923480000000  0.4362300000000 1.0
C      1  0.5864690000000  0.5304800000000  0.4427580000000 1.0
C      1  0.5534450000000  0.4261320000000  0.4363430000000 1.0
C      1  0.4475440000000  0.4286950000000  0.4396580000000 1.0
C      1  0.4178500000000  0.4734410000000  0.5630930000000 1.0
C      1  0.5028970000000  0.4081260000000  0.5643690000000 1.0
C      1  0.5855390000000  0.4708090000000  0.5585290000000 1.0
C      1  0.5497170000000  0.5733230000000  0.5640150000000 1.0
C      1  0.4474740000000  0.5721400000000  0.5641990000000 1.0
C      1  0.5744490000000  0.5743820000000  0.4607230000000 1.0
C      1  0.5877280000000  0.4527000000000  0.4578010000000 1.0
C      1  0.4828090000000  0.4008860000000  0.4568240000000 1.0
C      1  0.4019860000000  0.4837350000000  0.4621910000000 1.0
C      1  0.4581950000000  0.5764650000000  0.4517580000000 1.0
C      1  0.5722880000000  0.4275390000000  0.5438590000000 1.0
C      1  0.5885610000000  0.5477560000000  0.5489040000000 1.0
C      1  0.4863740000000  0.5860730000000  0.5397340000000 1.0
C      1  0.4055890000000  0.5166720000000  0.5459860000000 1.0
C      1  0.4620590000000  0.4234890000000  0.5468740000000 1.0
C      1  0.5103060000000  0.4235820000000  0.4747690000000 1.0
C      1  0.4374610000000  0.4735740000000  0.4776190000000 1.0
C      1  0.4425630000000  0.5552030000000  0.4815510000000 1.0
C      1  0.5382400000000  0.5633930000000  0.4809280000000 1.0
C      1  0.5640720000000  0.5005020000000  0.4813760000000 1.0
C      1  0.5134320000000  0.5661210000000  0.5129060000000 1.0
C      1  0.4266930000000  0.5269930000000  0.5136400000000 1.0
C      1  0.4481260000000  0.4547540000000  0.5197240000000 1.0
C      1  0.5379720000000  0.4333650000000  0.5242210000000 1.0
C      1  0.5699180000000  0.5177470000000  0.5192240000000 1.0
C      1  0.3918960000000  0.5328180000000  0.5223520000000 1.0
C      1  0.4984520000000  0.5994020000000  0.5155010000000 1.0
C      1  0.6002500000000  0.5384190000000  0.5223810000000 1.0
C      1  0.5663310000000  0.4106660000000  0.5180860000000 1.0
C      1  0.4426140000000  0.4212200000000  0.5208050000000 1.0
C      1  0.3968010000000  0.4678270000000  0.4841300000000 1.0
C      1  0.4960590000000  0.3909290000000  0.4837720000000 1.0
C      1  0.5999550000000  0.4617130000000  0.4822540000000 1.0
C      1  0.5700340000000  0.5884690000000  0.4857130000000 1.0
C      1  0.4398330000000  0.5879500000000  0.4780610000000 1.0
C      1  0.5336510000000  0.5020500000000  0.5304370000000 1.0
C      1  0.5164980000000  0.4798780000000  0.5419400000000 1.0
C      1  0.4928850000000  0.4721370000000  0.5224320000000 1.0
C      1  0.4710540000000  0.5010350000000  0.5393840000000 1.0
C      1  0.4759060000000  0.5319880000000  0.5317980000000 1.0
C      1  0.5315210000000  0.4815700000000  0.4667260000000 1.0
C      1  0.5157110000000  0.5271060000000  0.4587940000000 1.0
C      1  0.4859930000000  0.5368690000000  0.4650500000000 1.0
C      1  0.4796950000000  0.4875190000000  0.4537390000000 1.0
C      1  0.5059150000000  0.4689690000000  0.4572560000000 1.0
C      1  0.4829130000000  0.5906040000000  0.4546580000000 1.0
C      1  0.5876500000000  0.5499140000000  0.4622760000000 1.0
C      1  0.5705640000000  0.4298860000000  0.4575400000000 1.0
C      1  0.4589430000000  0.4147720000000  0.4600360000000 1.0
C      1  0.4050480000000  0.5138580000000  0.4688490000000 1.0
C      1  0.4852670000000  0.4077990000000  0.5439300000000 1.0
C      1  0.5861010000000  0.4512210000000  0.5394410000000 1.0
C      1  0.5705700000000  0.5686690000000  0.5454620000000 1.0
C      1  0.4583250000000  0.5840810000000  0.5406470000000 1.0
C      1  0.4066680000000  0.4893460000000  0.5427000000000 1.0
C      1  0.5836200000000  0.4593190000000  0.5099270000000 1.0
C      1  0.4954110000000  0.4033680000000  0.5154890000000 1.0
C      1  0.4056770000000  0.4798470000000  0.5142410000000 1.0
C      1  0.4436510000000  0.5815970000000  0.5112770000000 1.0
C      1  0.5646000000000  0.5738200000000  0.5160590000000 1.0
C      1  0.5875760000000  0.5407870000000  0.4909930000000 1.0
C      1  0.4913490000000  0.5904040000000  0.4836150000000 1.0
C      1  0.3954620000000  0.5351150000000  0.4901480000000 1.0
C      1  0.4546340000000  0.4255090000000  0.4891020000000 1.0
C      1  0.5616630000000  0.4197380000000  0.4855600000000 1.0
C      1  0.4704660000000  0.5699170000000  0.4960500000000 1.0
C      1  0.4860700000000  0.4275220000000  0.4962660000000 1.0
C      1  0.5557610000000  0.5438520000000  0.5026340000000 1.0
C      1  0.4238590000000  0.4997860000000  0.4934350000000 1.0
C      1  0.5571320000000  0.4460990000000  0.5023690000000 1.0
C      1  0.4914400000000  0.4906720000000  0.5575840000000 1.0
C      1  0.4897640000000  0.5133020000000  0.4441770000000 1.0
END
