TITL C-2622959-7779-559 4.04922874250127e-05 125000 -75.1933700565001 0 0 15 (Cs) n - 1
REM
REM in /nfs/bkarasulu/CARBON/AIRSS/Generating-Clusters/AIREBO/with-SteepDescent/Higher-Symm/SD-CG/HFTN-CG
REM
REM
REM
REM
REM
REM ./C.cell (b20cbc046b6831c77cfcea5457e17084)
REM
REM compiler GCC version 9.2.1 20190827 (Red Hat 9.2.1-1)
REM options -cpp -mtune=generic -march=x86-64 -g -O0 -fpre-include=/usr/include/finclude/math-vector-fortran.h
REM seed 1456917722 681783427 -550821637 -2040321388 1998125795 -633001584 -36219679 -1008548714 -297444608 1563222138 695469526 -1506361718 391703515 -322016670 428414275 -2012953058 763927866 1604954198 640981111 322002005 1451443182 1435376572 80687087 326886674 -1202719764 590471523 -2050114752 615518234 -129201908 130610647 714988292 387367410 791770482
REM
CELL 1.54180   50.00000   50.00000   50.00000   90.00000   90.00000   90.00000
LATT -1
SFAC C  
C      1  0.5465130000000  0.5014240000000  0.5261970000000 1.0
C      1  0.4542190000000  0.5006580000000  0.5267910000000 1.0
C      1  0.5464230000000  0.4995250000000  0.4715600000000 1.0
C      1  0.4541280000000  0.4987290000000  0.4713230000000 1.0
C      1  0.5459930000000  0.5153300000000  0.5473920000000 1.0
C      1  0.4540340000000  0.5016280000000  0.5521500000000 1.0
C      1  0.5458320000000  0.5119270000000  0.4494530000000 1.0
C      1  0.4538600000000  0.4979350000000  0.4459590000000 1.0
C      1  0.4365630000000  0.4934590000000  0.4993030000000 1.0
C      1  0.5636900000000  0.4917090000000  0.4991550000000 1.0
C      1  0.4094730000000  0.4924260000000  0.4993830000000 1.0
C      1  0.5879470000000  0.4796350000000  0.4995340000000 1.0
C      1  0.4705560000000  0.4913570000000  0.4993200000000 1.0
C      1  0.5297780000000  0.4906360000000  0.4992480000000 1.0
C      1  0.5001810000000  0.4924750000000  0.4992320000000 1.0
END
