TITL C-2622961-1971-674 -0.00158888337378753 125000 -927.528802570625 0 0 164 (C1) n - 1
REM
REM in /nfs/bkarasulu/CARBON/AIRSS/Generating-Clusters/AIREBO/with-SteepDescent/Higher-Symm/SD-CG/HFTN-CG
REM
REM
REM
REM
REM
REM ./C.cell (b20cbc046b6831c77cfcea5457e17084)
REM
REM compiler GCC version 9.2.1 20190827 (Red Hat 9.2.1-1)
REM options -cpp -mtune=generic -march=x86-64 -g -O0 -fpre-include=/usr/include/finclude/math-vector-fortran.h
REM seed 1265444935 -1736574943 -647327412 -1677744268 555465378 -669499987 468430978 3010401 272510181 -1569234104 -1862269670 1805057665 -2036904183 1116608085 558684193 64012857 -294345133 419953039 333775235 -1287569452 -2007739890 738531543 258506183 -1628917989 1745079661 -1131595575 1082917275 -1932033912 915341961 1580382872 -205111684 1690610113 304065572
REM
CELL 1.54180   50.00000   50.00000   50.00000   90.00000   90.00000   90.00000
LATT -1
SFAC C  
C      1  0.4392080000000  0.4914700000000  0.5930450000000 1.0
C      1  0.5167280000000  0.4412350000000  0.5985130000000 1.0
C      1  0.5640960000000  0.5082780000000  0.5924300000000 1.0
C      1  0.4908590000000  0.5654350000000  0.5982620000000 1.0
C      1  0.4407880000000  0.4911660000000  0.3899300000000 1.0
C      1  0.5252390000000  0.4455840000000  0.3982660000000 1.0
C      1  0.5643410000000  0.5158860000000  0.4005920000000 1.0
C      1  0.4958340000000  0.5602500000000  0.4014400000000 1.0
C      1  0.5676770000000  0.4212940000000  0.4836900000000 1.0
C      1  0.5738760000000  0.5672250000000  0.4865050000000 1.0
C      1  0.4334760000000  0.5822400000000  0.4831540000000 1.0
C      1  0.4203850000000  0.4266780000000  0.4875170000000 1.0
C      1  0.5753660000000  0.4264170000000  0.5116560000000 1.0
C      1  0.5799040000000  0.5747270000000  0.5148510000000 1.0
C      1  0.4262350000000  0.5837310000000  0.5109750000000 1.0
C      1  0.4189300000000  0.4178770000000  0.5145710000000 1.0
C      1  0.5458730000000  0.5541340000000  0.4816880000000 1.0
C      1  0.4389400000000  0.5534950000000  0.4779970000000 1.0
C      1  0.4492650000000  0.4375980000000  0.4814970000000 1.0
C      1  0.5452890000000  0.4450240000000  0.4740710000000 1.0
C      1  0.5504780000000  0.5581810000000  0.5207810000000 1.0
C      1  0.4228460000000  0.5536140000000  0.5145630000000 1.0
C      1  0.4478980000000  0.4173630000000  0.5227470000000 1.0
C      1  0.5710150000000  0.4558540000000  0.5147490000000 1.0
C      1  0.4421630000000  0.5148980000000  0.4349640000000 1.0
C      1  0.4819740000000  0.4474090000000  0.4307610000000 1.0
C      1  0.5598840000000  0.4878630000000  0.4475880000000 1.0
C      1  0.5117990000000  0.5536750000000  0.4485590000000 1.0
C      1  0.4411000000000  0.5205800000000  0.5513920000000 1.0
C      1  0.4794870000000  0.4519690000000  0.5631720000000 1.0
C      1  0.5598000000000  0.4827880000000  0.5421730000000 1.0
C      1  0.5155430000000  0.5587320000000  0.5457180000000 1.0
C      1  0.4721330000000  0.5900490000000  0.4530960000000 1.0
C      1  0.4123200000000  0.4675340000000  0.4555630000000 1.0
C      1  0.5275220000000  0.4144180000000  0.4554400000000 1.0
C      1  0.5893970000000  0.5341820000000  0.4527140000000 1.0
C      1  0.4707640000000  0.5910600000000  0.5524260000000 1.0
C      1  0.4147500000000  0.4616360000000  0.5556870000000 1.0
C      1  0.5369010000000  0.4174180000000  0.5602060000000 1.0
C      1  0.5862170000000  0.5342970000000  0.5534600000000 1.0
C      1  0.5055690000000  0.4319880000000  0.5729690000000 1.0
C      1  0.5717940000000  0.5003240000000  0.5687300000000 1.0
C      1  0.5056610000000  0.5702020000000  0.5761690000000 1.0
C      1  0.4271770000000  0.4983600000000  0.5704390000000 1.0
C      1  0.5148050000000  0.4393370000000  0.4271230000000 1.0
C      1  0.5716090000000  0.5110260000000  0.4301900000000 1.0
C      1  0.4914350000000  0.5691240000000  0.4296040000000 1.0
C      1  0.4302930000000  0.4920540000000  0.4160180000000 1.0
C      1  0.4875790000000  0.4889170000000  0.5757990000000 1.0
C      1  0.5185210000000  0.4821110000000  0.5738990000000 1.0
C      1  0.5182100000000  0.5144340000000  0.5756130000000 1.0
C      1  0.4871980000000  0.5212290000000  0.5789210000000 1.0
C      1  0.4810480000000  0.4849390000000  0.4170910000000 1.0
C      1  0.5121840000000  0.4871760000000  0.4154050000000 1.0
C      1  0.5188500000000  0.5184090000000  0.4151620000000 1.0
C      1  0.4854890000000  0.5161050000000  0.4213530000000 1.0
C      1  0.5602340000000  0.4995810000000  0.4795590000000 1.0
C      1  0.4996430000000  0.5547920000000  0.4803120000000 1.0
C      1  0.4389400000000  0.4965000000000  0.4612380000000 1.0
C      1  0.4945330000000  0.4453290000000  0.4607210000000 1.0
C      1  0.5498070000000  0.4927320000000  0.5112100000000 1.0
C      1  0.5025040000000  0.5540100000000  0.5146480000000 1.0
C      1  0.4470540000000  0.5013460000000  0.5239770000000 1.0
C      1  0.4939390000000  0.4430670000000  0.5366000000000 1.0
C      1  0.5238850000000  0.4569270000000  0.4548580000000 1.0
C      1  0.5453740000000  0.5246320000000  0.4694910000000 1.0
C      1  0.4675700000000  0.5470870000000  0.4720540000000 1.0
C      1  0.4446860000000  0.4631970000000  0.4650330000000 1.0
C      1  0.5248210000000  0.4481420000000  0.5303550000000 1.0
C      1  0.5491400000000  0.5193080000000  0.5300060000000 1.0
C      1  0.4739070000000  0.5412820000000  0.5273920000000 1.0
C      1  0.4502570000000  0.4682900000000  0.5256430000000 1.0
C      1  0.6022010000000  0.4585000000000  0.5448060000000 1.0
C      1  0.5500430000000  0.5942780000000  0.5496920000000 1.0
C      1  0.4020670000000  0.5483190000000  0.5396460000000 1.0
C      1  0.4527130000000  0.4133060000000  0.5549500000000 1.0
C      1  0.5767020000000  0.4571120000000  0.4692550000000 1.0
C      1  0.5376620000000  0.5832150000000  0.4558820000000 1.0
C      1  0.4188220000000  0.5387140000000  0.4594570000000 1.0
C      1  0.4547480000000  0.4191820000000  0.4382360000000 1.0
C      1  0.4003260000000  0.4428850000000  0.4729420000000 1.0
C      1  0.5437650000000  0.4052050000000  0.4772680000000 1.0
C      1  0.5951270000000  0.5531130000000  0.4743220000000 1.0
C      1  0.4554560000000  0.5972940000000  0.4765380000000 1.0
C      1  0.4081200000000  0.4378130000000  0.5367860000000 1.0
C      1  0.5616200000000  0.4122360000000  0.5373750000000 1.0
C      1  0.5969140000000  0.5549680000000  0.5329480000000 1.0
C      1  0.4452440000000  0.5945570000000  0.5302150000000 1.0
C      1  0.4718920000000  0.5988570000000  0.4988230000000 1.0
C      1  0.4035020000000  0.4618420000000  0.4961920000000 1.0
C      1  0.5291880000000  0.4025210000000  0.5006940000000 1.0
C      1  0.6022870000000  0.5376830000000  0.4973870000000 1.0
C      1  0.4689960000000  0.5740640000000  0.5196690000000 1.0
C      1  0.4214070000000  0.4575370000000  0.5167780000000 1.0
C      1  0.5371010000000  0.4197880000000  0.5206770000000 1.0
C      1  0.5751730000000  0.5353780000000  0.5156340000000 1.0
C      1  0.5004550000000  0.5871800000000  0.4699650000000 1.0
C      1  0.4060790000000  0.4988620000000  0.4675520000000 1.0
C      1  0.4965800000000  0.4140670000000  0.4701580000000 1.0
C      1  0.5919240000000  0.5041570000000  0.4680890000000 1.0
C      1  0.5014240000000  0.5886800000000  0.5379220000000 1.0
C      1  0.4180840000000  0.4908290000000  0.5385550000000 1.0
C      1  0.5066150000000  0.4131290000000  0.5453500000000 1.0
C      1  0.5859280000000  0.5041020000000  0.5377640000000 1.0
C      1  0.5663190000000  0.5491250000000  0.5695470000000 1.0
C      1  0.4461070000000  0.5692100000000  0.5608510000000 1.0
C      1  0.4316530000000  0.4522430000000  0.5765750000000 1.0
C      1  0.5611720000000  0.4374010000000  0.5683050000000 1.0
C      1  0.5672230000000  0.5447460000000  0.4310800000000 1.0
C      1  0.4576270000000  0.5707620000000  0.4311950000000 1.0
C      1  0.4285300000000  0.4665060000000  0.4286380000000 1.0
C      1  0.5468680000000  0.4314390000000  0.4352430000000 1.0
C      1  0.5638110000000  0.4548150000000  0.4402670000000 1.0
C      1  0.5444510000000  0.5586950000000  0.4404150000000 1.0
C      1  0.4420650000000  0.5487330000000  0.4384800000000 1.0
C      1  0.4481730000000  0.4466520000000  0.4270120000000 1.0
C      1  0.5761400000000  0.4563720000000  0.5560150000000 1.0
C      1  0.5455760000000  0.5669410000000  0.5594120000000 1.0
C      1  0.4299250000000  0.5482540000000  0.5534790000000 1.0
C      1  0.4542050000000  0.4366960000000  0.5693010000000 1.0
C      1  0.5408880000000  0.5241960000000  0.3951510000000 1.0
C      1  0.4884690000000  0.5363240000000  0.3963700000000 1.0
C      1  0.4667020000000  0.4819120000000  0.3895080000000 1.0
C      1  0.5247510000000  0.4703680000000  0.3932890000000 1.0
C      1  0.5395730000000  0.5192720000000  0.5977890000000 1.0
C      1  0.4800970000000  0.5405790000000  0.6007820000000 1.0
C      1  0.4652300000000  0.4846680000000  0.5984080000000 1.0
C      1  0.5259980000000  0.4649710000000  0.5984270000000 1.0
C      1  0.4731830000000  0.5160190000000  0.5501890000000 1.0
C      1  0.4714810000000  0.4816920000000  0.5485770000000 1.0
C      1  0.5308180000000  0.4726440000000  0.5481710000000 1.0
C      1  0.5266270000000  0.5276640000000  0.5498220000000 1.0
C      1  0.4720300000000  0.5233690000000  0.4488510000000 1.0
C      1  0.4689920000000  0.4746590000000  0.4464140000000 1.0
C      1  0.5261450000000  0.4897570000000  0.4463000000000 1.0
C      1  0.5257700000000  0.5238500000000  0.4461270000000 1.0
C      1  0.3972740000000  0.5287890000000  0.4774030000000 1.0
C      1  0.4650690000000  0.4185640000000  0.4636160000000 1.0
C      1  0.5913980000000  0.4753400000000  0.4843650000000 1.0
C      1  0.5283380000000  0.5813570000000  0.4885370000000 1.0
C      1  0.3990740000000  0.5321950000000  0.5096740000000 1.0
C      1  0.4657630000000  0.3930210000000  0.5331850000000 1.0
C      1  0.5962590000000  0.4784130000000  0.5178960000000 1.0
C      1  0.5318440000000  0.5863340000000  0.5220890000000 1.0
C      1  0.4920060000000  0.3952640000000  0.5257910000000 1.0
C      1  0.6230070000000  0.4940930000000  0.5070650000000 1.0
C      1  0.5122490000000  0.6135970000000  0.5174580000000 1.0
C      1  0.3984120000000  0.5026830000000  0.5172370000000 1.0
C      1  0.5012720000000  0.3978910000000  0.4991650000000 1.0
C      1  0.6144750000000  0.5133410000000  0.4898820000000 1.0
C      1  0.4976250000000  0.6112220000000  0.4938400000000 1.0
C      1  0.3953740000000  0.4874570000000  0.4940340000000 1.0
C      1  0.4688480000000  0.4928130000000  0.4759510000000 1.0
C      1  0.4896090000000  0.4682570000000  0.4798930000000 1.0
C      1  0.5094800000000  0.4938950000000  0.4748070000000 1.0
C      1  0.4960690000000  0.5216270000000  0.4728140000000 1.0
C      1  0.4698700000000  0.5107460000000  0.5020230000000 1.0
C      1  0.4932150000000  0.4572480000000  0.5080270000000 1.0
C      1  0.5194030000000  0.4793150000000  0.5038880000000 1.0
C      1  0.5015680000000  0.5229950000000  0.5043460000000 1.0
C      1  0.4492530000000  0.5374890000000  0.5060600000000 1.0
C      1  0.4625690000000  0.4433800000000  0.5103820000000 1.0
C      1  0.5416940000000  0.4549450000000  0.5026600000000 1.0
C      1  0.5342070000000  0.5325970000000  0.5052900000000 1.0
END
