TITL C-2622956-4641-459 0.00103023528309796 125000 -356.34714595708 0 0 65 (C1) n - 1
REM
REM in /nfs/bkarasulu/CARBON/AIRSS/Generating-Clusters/AIREBO/with-SteepDescent/Higher-Symm/SD-CG/HFTN-CG
REM
REM
REM
REM
REM
REM ./C.cell (b20cbc046b6831c77cfcea5457e17084)
REM
REM compiler GCC version 9.2.1 20190827 (Red Hat 9.2.1-1)
REM options -cpp -mtune=generic -march=x86-64 -g -O0 -fpre-include=/usr/include/finclude/math-vector-fortran.h
REM seed 1645842346 1517153073 52584318 412231855 840869216 507635711 -1108905611 1323378717 -2041511673 -1644247352 -1789612369 607898568 2096516797 91824962 -890344172 158553997 1087554250 1063780747 -524770957 1914795526 -1752852084 1008269200 84651571 -1179195204 -1001380759 -2111067639 1977014680 -56967796 1626807180 1353510540 -651282956 202213294 819218477
REM
CELL 1.54180   50.00000   50.00000   50.00000   90.00000   90.00000   90.00000
LATT -1
SFAC C  
C      1  0.4321140000000  0.4761280000000  0.5255770000000 1.0
C      1  0.5697600000000  0.5233370000000  0.5336680000000 1.0
C      1  0.4271840000000  0.5292480000000  0.4685940000000 1.0
C      1  0.5762570000000  0.4769200000000  0.4730360000000 1.0
C      1  0.4787070000000  0.5254600000000  0.4681440000000 1.0
C      1  0.5239850000000  0.4578450000000  0.4675110000000 1.0
C      1  0.4803140000000  0.4602220000000  0.5323660000000 1.0
C      1  0.5141100000000  0.5337790000000  0.5444380000000 1.0
C      1  0.5455260000000  0.4434940000000  0.4863080000000 1.0
C      1  0.4640750000000  0.5498110000000  0.4868460000000 1.0
C      1  0.5315140000000  0.5460620000000  0.5201660000000 1.0
C      1  0.4596000000000  0.4421910000000  0.5090410000000 1.0
C      1  0.5116750000000  0.4733470000000  0.5338840000000 1.0
C      1  0.4838010000000  0.5456880000000  0.5396980000000 1.0
C      1  0.5096600000000  0.5390920000000  0.4645800000000 1.0
C      1  0.4913150000000  0.4643240000000  0.4633190000000 1.0
C      1  0.5382540000000  0.5450750000000  0.5635270000000 1.0
C      1  0.4866690000000  0.4586190000000  0.5717620000000 1.0
C      1  0.5261230000000  0.4588640000000  0.4345120000000 1.0
C      1  0.4669360000000  0.5434190000000  0.4417740000000 1.0
C      1  0.4551030000000  0.4963920000000  0.4481770000000 1.0
C      1  0.5392620000000  0.4849890000000  0.4408440000000 1.0
C      1  0.4735180000000  0.4837330000000  0.5639290000000 1.0
C      1  0.5428270000000  0.4977490000000  0.5626810000000 1.0
C      1  0.4890360000000  0.4512770000000  0.4946340000000 1.0
C      1  0.5122190000000  0.5456780000000  0.4964780000000 1.0
C      1  0.4836690000000  0.5547120000000  0.5083110000000 1.0
C      1  0.5205170000000  0.4542780000000  0.5071550000000 1.0
C      1  0.4964250000000  0.4236910000000  0.5226380000000 1.0
C      1  0.5052420000000  0.5719600000000  0.5366540000000 1.0
C      1  0.5033960000000  0.5693830000000  0.4577490000000 1.0
C      1  0.4957300000000  0.4302070000000  0.4614840000000 1.0
C      1  0.4846750000000  0.4335550000000  0.5516500000000 1.0
C      1  0.5252160000000  0.5714680000000  0.5568510000000 1.0
C      1  0.4819630000000  0.5670430000000  0.4385310000000 1.0
C      1  0.5143980000000  0.4314280000000  0.4390910000000 1.0
C      1  0.4906850000000  0.4176800000000  0.4896650000000 1.0
C      1  0.5084080000000  0.5871830000000  0.4796070000000 1.0
C      1  0.5017780000000  0.5826970000000  0.5070150000000 1.0
C      1  0.5267400000000  0.4261840000000  0.5252750000000 1.0
C      1  0.4340160000000  0.4521430000000  0.5097600000000 1.0
C      1  0.5585280000000  0.5460380000000  0.5206560000000 1.0
C      1  0.4374500000000  0.5519150000000  0.4824310000000 1.0
C      1  0.5712860000000  0.4504690000000  0.4823480000000 1.0
C      1  0.4731690000000  0.4794270000000  0.5052310000000 1.0
C      1  0.5213880000000  0.5160340000000  0.4948730000000 1.0
C      1  0.4688290000000  0.5117140000000  0.4976410000000 1.0
C      1  0.5226200000000  0.4825580000000  0.4885760000000 1.0
C      1  0.4332350000000  0.5017440000000  0.5127570000000 1.0
C      1  0.5642340000000  0.4982690000000  0.5193270000000 1.0
C      1  0.4248780000000  0.5041470000000  0.4849410000000 1.0
C      1  0.5663580000000  0.4974760000000  0.4900500000000 1.0
C      1  0.5442160000000  0.4834220000000  0.5348810000000 1.0
C      1  0.4565620000000  0.5182050000000  0.5260560000000 1.0
C      1  0.5461730000000  0.5117160000000  0.4756450000000 1.0
C      1  0.4347620000000  0.4838730000000  0.4652470000000 1.0
C      1  0.4454190000000  0.5234700000000  0.4457380000000 1.0
C      1  0.5673050000000  0.4829540000000  0.4462540000000 1.0
C      1  0.4520730000000  0.4741190000000  0.5452470000000 1.0
C      1  0.5574440000000  0.5230280000000  0.5607990000000 1.0
C      1  0.4868060000000  0.4945090000000  0.4565880000000 1.0
C      1  0.5187110000000  0.5074440000000  0.4559690000000 1.0
C      1  0.4801900000000  0.5134860000000  0.5500460000000 1.0
C      1  0.5120720000000  0.5014960000000  0.5500690000000 1.0
C      1  0.4966900000000  0.4974920000000  0.4951880000000 1.0
END
