TITL C-2622967-6265-538 -0.0017036749686211 125000 -594.696085901152 0 0 113 (C1) n - 1
REM
REM in /nfs/bkarasulu/CARBON/AIRSS/Generating-Clusters/AIREBO/with-SteepDescent/Higher-Symm/SD-CG/HFTN-CG
REM
REM
REM
REM
REM
REM ./C.cell (b20cbc046b6831c77cfcea5457e17084)
REM
REM compiler GCC version 9.2.1 20190827 (Red Hat 9.2.1-1)
REM options -cpp -mtune=generic -march=x86-64 -g -O0 -fpre-include=/usr/include/finclude/math-vector-fortran.h
REM seed 1821510362 848016288 1478223892 1960249599 -1760880584 -1011640507 1827656391 475795543 359592251 -661117636 -634518202 -1441211181 339254504 447273497 1710537596 -2119196484 -683677086 1900948824 -805278608 1826281699 -1176062699 1877034179 931808932 -1416777829 -346738437 -664296618 1536821792 1327126391 1621146125 638862424 1475468055 -432480907 478396910
REM
CELL 1.54180   50.00000   50.00000   50.00000   90.00000   90.00000   90.00000
LATT -1
SFAC C  
C      1  0.4912460000000  0.4216090000000  0.4997750000000 1.0
C      1  0.5170800000000  0.4392530000000  0.4596240000000 1.0
C      1  0.4992790000000  0.4620750000000  0.4169370000000 1.0
C      1  0.5066930000000  0.5163580000000  0.4113860000000 1.0
C      1  0.4911940000000  0.5645280000000  0.4384280000000 1.0
C      1  0.5063280000000  0.5827360000000  0.4951330000000 1.0
C      1  0.4925140000000  0.5654580000000  0.5484910000000 1.0
C      1  0.5133920000000  0.5294710000000  0.5810790000000 1.0
C      1  0.4904110000000  0.4793770000000  0.5840280000000 1.0
C      1  0.5056390000000  0.4353770000000  0.5501160000000 1.0
C      1  0.4778180000000  0.4869500000000  0.4811430000000 1.0
C      1  0.5228780000000  0.4919200000000  0.4648060000000 1.0
C      1  0.4714830000000  0.5163260000000  0.4650630000000 1.0
C      1  0.5275890000000  0.5231010000000  0.4763780000000 1.0
C      1  0.4645920000000  0.5306540000000  0.4938240000000 1.0
C      1  0.5373480000000  0.5288790000000  0.5192230000000 1.0
C      1  0.4676670000000  0.5108560000000  0.5308240000000 1.0
C      1  0.5211630000000  0.4999620000000  0.5259400000000 1.0
C      1  0.4728980000000  0.4829270000000  0.5144290000000 1.0
C      1  0.5156680000000  0.4752430000000  0.4901440000000 1.0
C      1  0.5317790000000  0.5769220000000  0.5103240000000 1.0
C      1  0.4687970000000  0.5595910000000  0.5635650000000 1.0
C      1  0.5393600000000  0.5079320000000  0.5768550000000 1.0
C      1  0.4617820000000  0.4645330000000  0.5838230000000 1.0
C      1  0.5347390000000  0.4418090000000  0.5328030000000 1.0
C      1  0.4683060000000  0.4280730000000  0.4814010000000 1.0
C      1  0.5467580000000  0.4477210000000  0.4530970000000 1.0
C      1  0.4556320000000  0.4842010000000  0.4239990000000 1.0
C      1  0.5248110000000  0.5343210000000  0.4338660000000 1.0
C      1  0.4647420000000  0.5692530000000  0.4604580000000 1.0
C      1  0.5754930000000  0.5181350000000  0.5579720000000 1.0
C      1  0.4335200000000  0.4783930000000  0.5448250000000 1.0
C      1  0.5546100000000  0.4209970000000  0.5524010000000 1.0
C      1  0.4425830000000  0.4405740000000  0.4996270000000 1.0
C      1  0.5774980000000  0.4858340000000  0.4614410000000 1.0
C      1  0.4321900000000  0.4898420000000  0.4437350000000 1.0
C      1  0.5496500000000  0.5176580000000  0.4176810000000 1.0
C      1  0.4312400000000  0.5551390000000  0.4228130000000 1.0
C      1  0.5527160000000  0.5680600000000  0.4906610000000 1.0
C      1  0.4432810000000  0.5574180000000  0.5463180000000 1.0
C      1  0.5744930000000  0.5415610000000  0.4378280000000 1.0
C      1  0.4343910000000  0.5761080000000  0.5015100000000 1.0
C      1  0.5831540000000  0.5482200000000  0.5582600000000 1.0
C      1  0.4360360000000  0.5009350000000  0.5613150000000 1.0
C      1  0.5586580000000  0.4326340000000  0.5772650000000 1.0
C      1  0.4381770000000  0.4277880000000  0.5518930000000 1.0
C      1  0.5756890000000  0.4282870000000  0.4978160000000 1.0
C      1  0.4430630000000  0.4408540000000  0.4398530000000 1.0
C      1  0.5835460000000  0.4819980000000  0.4320320000000 1.0
C      1  0.4199400000000  0.5375570000000  0.4372510000000 1.0
C      1  0.4650990000000  0.4553320000000  0.4285810000000 1.0
C      1  0.5491380000000  0.4879260000000  0.4206520000000 1.0
C      1  0.4595710000000  0.5580900000000  0.4301570000000 1.0
C      1  0.5396990000000  0.5639240000000  0.4659310000000 1.0
C      1  0.4500530000000  0.5776600000000  0.5242710000000 1.0
C      1  0.5453410000000  0.5353040000000  0.5575770000000 1.0
C      1  0.4543830000000  0.4964480000000  0.5826330000000 1.0
C      1  0.5420770000000  0.4576360000000  0.5619980000000 1.0
C      1  0.4515680000000  0.4281670000000  0.5260370000000 1.0
C      1  0.5480990000000  0.4383020000000  0.4839760000000 1.0
C      1  0.5619690000000  0.4310260000000  0.4330570000000 1.0
C      1  0.4492000000000  0.4893230000000  0.3969680000000 1.0
C      1  0.5249610000000  0.5627520000000  0.4205810000000 1.0
C      1  0.4705770000000  0.5845560000000  0.4867640000000 1.0
C      1  0.5390140000000  0.5958830000000  0.5290020000000 1.0
C      1  0.4705800000000  0.5432080000000  0.5852870000000 1.0
C      1  0.5505690000000  0.5074460000000  0.6038390000000 1.0
C      1  0.4546810000000  0.4471730000000  0.6041040000000 1.0
C      1  0.5300970000000  0.4113040000000  0.5199190000000 1.0
C      1  0.4604720000000  0.4057910000000  0.4623490000000 1.0
C      1  0.5011710000000  0.5322360000000  0.4594160000000 1.0
C      1  0.4896180000000  0.5433220000000  0.5050780000000 1.0
C      1  0.5208750000000  0.5460110000000  0.5006410000000 1.0
C      1  0.4902520000000  0.5117960000000  0.5482760000000 1.0
C      1  0.5158400000000  0.4944900000000  0.5562980000000 1.0
C      1  0.4789340000000  0.4593240000000  0.5325990000000 1.0
C      1  0.5086490000000  0.4560890000000  0.5162870000000 1.0
C      1  0.4711990000000  0.4595940000000  0.4685590000000 1.0
C      1  0.5038450000000  0.4877990000000  0.4391920000000 1.0
C      1  0.4777610000000  0.5029270000000  0.4353280000000 1.0
C      1  0.5067400000000  0.5647480000000  0.4676840000000 1.0
C      1  0.4818750000000  0.5735100000000  0.5168930000000 1.0
C      1  0.5161550000000  0.5529700000000  0.5600700000000 1.0
C      1  0.4840760000000  0.5128460000000  0.5802720000000 1.0
C      1  0.5104770000000  0.4640870000000  0.5653910000000 1.0
C      1  0.4833270000000  0.4267370000000  0.5283960000000 1.0
C      1  0.5168230000000  0.4353280000000  0.4910560000000 1.0
C      1  0.4930580000000  0.4495130000000  0.4466810000000 1.0
C      1  0.5197870000000  0.4869790000000  0.4098500000000 1.0
C      1  0.4819400000000  0.5347970000000  0.4245720000000 1.0
C      1  0.5771560000000  0.4925340000000  0.5435030000000 1.0
C      1  0.4305370000000  0.4833450000000  0.5172960000000 1.0
C      1  0.5733930000000  0.4804130000000  0.5132040000000 1.0
C      1  0.4230730000000  0.4674630000000  0.4909140000000 1.0
C      1  0.5774630000000  0.4992640000000  0.4851900000000 1.0
C      1  0.4234530000000  0.4976110000000  0.4758380000000 1.0
C      1  0.5684300000000  0.5254990000000  0.4829820000000 1.0
C      1  0.4248330000000  0.5283850000000  0.4904760000000 1.0
C      1  0.5676030000000  0.5469230000000  0.5003370000000 1.0
C      1  0.4247740000000  0.5415160000000  0.5218460000000 1.0
C      1  0.4451060000000  0.5542570000000  0.4816940000000 1.0
C      1  0.5639930000000  0.5442460000000  0.5305850000000 1.0
C      1  0.4415620000000  0.5250090000000  0.5447250000000 1.0
C      1  0.5558190000000  0.4835550000000  0.5610610000000 1.0
C      1  0.4537840000000  0.4568440000000  0.5538140000000 1.0
C      1  0.5600210000000  0.4525140000000  0.5125580000000 1.0
C      1  0.4385140000000  0.4502840000000  0.4672950000000 1.0
C      1  0.5487150000000  0.4775930000000  0.4506550000000 1.0
C      1  0.4391930000000  0.5190150000000  0.4546260000000 1.0
C      1  0.5513410000000  0.5349840000000  0.4551450000000 1.0
C      1  0.4435440000000  0.5089610000000  0.5083480000000 1.0
C      1  0.5506270000000  0.5002790000000  0.5146510000000 1.0
C      1  0.4983880000000  0.5005470000000  0.5048930000000 1.0
END
