TITL C-2622957-9142-414 0.000230546518450374 125000 -661.734891018114 0 0 123 (C1) n - 1
REM
REM in /nfs/bkarasulu/CARBON/AIRSS/Generating-Clusters/AIREBO/with-SteepDescent/Higher-Symm/SD-CG/HFTN-CG
REM
REM
REM
REM
REM
REM ./C.cell (b20cbc046b6831c77cfcea5457e17084)
REM
REM compiler GCC version 9.2.1 20190827 (Red Hat 9.2.1-1)
REM options -cpp -mtune=generic -march=x86-64 -g -O0 -fpre-include=/usr/include/finclude/math-vector-fortran.h
REM seed 1711659563 125783667 -1124288011 475942848 -1879597797 252578856 -1159268708 -90263112 -887030633 1430071642 1928813929 1504681893 115698704 -693792885 1484419021 1159524698 -112286662 462667773 -546156109 1801054849 -182055541 -882852755 502097804 651210257 1031205303 1689551631 -1005486808 -1239267784 119045 -546456952 626413988 169268251 -1569005946
REM
CELL 1.54180   50.00000   50.00000   50.00000   90.00000   90.00000   90.00000
LATT -1
SFAC C  
C      1  0.4699990000000  0.4563620000000  0.5715370000000 1.0
C      1  0.4484110000000  0.4909050000000  0.4311640000000 1.0
C      1  0.5129620000000  0.4931580000000  0.5551410000000 1.0
C      1  0.4240850000000  0.5452630000000  0.4451170000000 1.0
C      1  0.5765210000000  0.4768270000000  0.5130670000000 1.0
C      1  0.4060780000000  0.5445480000000  0.5056890000000 1.0
C      1  0.4279810000000  0.5257200000000  0.5424780000000 1.0
C      1  0.5489400000000  0.4531390000000  0.5520070000000 1.0
C      1  0.4609240000000  0.4624120000000  0.4226160000000 1.0
C      1  0.5335260000000  0.4357620000000  0.5325090000000 1.0
C      1  0.5087390000000  0.5750010000000  0.5531640000000 1.0
C      1  0.4923170000000  0.4427650000000  0.4772890000000 1.0
C      1  0.5335590000000  0.5486960000000  0.5856660000000 1.0
C      1  0.4310530000000  0.5561690000000  0.5411930000000 1.0
C      1  0.5250310000000  0.5459520000000  0.4182220000000 1.0
C      1  0.4961150000000  0.5006300000000  0.4842210000000 1.0
C      1  0.4944220000000  0.4427450000000  0.5607080000000 1.0
C      1  0.5210730000000  0.5122070000000  0.4166560000000 1.0
C      1  0.4448060000000  0.5183380000000  0.5156920000000 1.0
C      1  0.4056950000000  0.5130400000000  0.5201350000000 1.0
C      1  0.4643170000000  0.4863150000000  0.5293090000000 1.0
C      1  0.5510260000000  0.5257970000000  0.4268400000000 1.0
C      1  0.5821630000000  0.5190950000000  0.4394990000000 1.0
C      1  0.5068350000000  0.4727200000000  0.4842330000000 1.0
C      1  0.4876040000000  0.4691710000000  0.4102090000000 1.0
C      1  0.4098580000000  0.4611390000000  0.4554670000000 1.0
C      1  0.4212910000000  0.5194560000000  0.4910350000000 1.0
C      1  0.5463200000000  0.4834680000000  0.5224150000000 1.0
C      1  0.5080870000000  0.5138350000000  0.5284900000000 1.0
C      1  0.5609870000000  0.5207850000000  0.4651890000000 1.0
C      1  0.4979390000000  0.5008870000000  0.5913200000000 1.0
C      1  0.5722000000000  0.5328690000000  0.4917920000000 1.0
C      1  0.5950790000000  0.5384070000000  0.5163320000000 1.0
C      1  0.4930430000000  0.4975650000000  0.4039340000000 1.0
C      1  0.5583110000000  0.5889480000000  0.4751330000000 1.0
C      1  0.4794650000000  0.4942140000000  0.4446230000000 1.0
C      1  0.5609740000000  0.5040260000000  0.5765850000000 1.0
C      1  0.5981570000000  0.5068190000000  0.4659340000000 1.0
C      1  0.4616550000000  0.6023910000000  0.4966410000000 1.0
C      1  0.5122880000000  0.4113080000000  0.5265630000000 1.0
C      1  0.5655900000000  0.5300750000000  0.5310630000000 1.0
C      1  0.4901260000000  0.4152120000000  0.5437690000000 1.0
C      1  0.4802220000000  0.5520410000000  0.4303780000000 1.0
C      1  0.4454330000000  0.4572260000000  0.5489190000000 1.0
C      1  0.5797240000000  0.4552690000000  0.4891770000000 1.0
C      1  0.4054420000000  0.4835450000000  0.4768190000000 1.0
C      1  0.5622430000000  0.4733560000000  0.4259270000000 1.0
C      1  0.4568320000000  0.5662010000000  0.5518220000000 1.0
C      1  0.4688100000000  0.5082680000000  0.4729740000000 1.0
C      1  0.5210980000000  0.5599730000000  0.4842930000000 1.0
C      1  0.4920870000000  0.5633220000000  0.4668430000000 1.0
C      1  0.5110520000000  0.4020600000000  0.4674620000000 1.0
C      1  0.4863200000000  0.4304060000000  0.4396510000000 1.0
C      1  0.5130950000000  0.4932760000000  0.4396880000000 1.0
C      1  0.5274450000000  0.4726840000000  0.4579560000000 1.0
C      1  0.4474090000000  0.5332260000000  0.4643050000000 1.0
C      1  0.5475210000000  0.5869920000000  0.5054500000000 1.0
C      1  0.5028630000000  0.4499150000000  0.5285580000000 1.0
C      1  0.5093920000000  0.5618810000000  0.4375830000000 1.0
C      1  0.5357050000000  0.5327150000000  0.5346750000000 1.0
C      1  0.4233710000000  0.5649210000000  0.5154390000000 1.0
C      1  0.4671680000000  0.3958110000000  0.5041840000000 1.0
C      1  0.4147010000000  0.4832410000000  0.5064200000000 1.0
C      1  0.5606400000000  0.3984980000000  0.5018020000000 1.0
C      1  0.4281630000000  0.4449020000000  0.4977670000000 1.0
C      1  0.5488290000000  0.4520390000000  0.4983490000000 1.0
C      1  0.5337850000000  0.5602600000000  0.5545150000000 1.0
C      1  0.4999510000000  0.5851160000000  0.5293100000000 1.0
C      1  0.4893160000000  0.5267660000000  0.4442520000000 1.0
C      1  0.4887730000000  0.6042340000000  0.4960200000000 1.0
C      1  0.5302540000000  0.5044050000000  0.5044960000000 1.0
C      1  0.5735360000000  0.5581160000000  0.5582000000000 1.0
C      1  0.5424430000000  0.4221610000000  0.5033590000000 1.0
C      1  0.4674430000000  0.5088540000000  0.4094240000000 1.0
C      1  0.5211120000000  0.4635010000000  0.5612180000000 1.0
C      1  0.4727680000000  0.5640820000000  0.4949060000000 1.0
C      1  0.4900810000000  0.4622710000000  0.4495030000000 1.0
C      1  0.4559680000000  0.4422890000000  0.4496710000000 1.0
C      1  0.4873180000000  0.5604150000000  0.5657230000000 1.0
C      1  0.4232150000000  0.4907960000000  0.4476100000000 1.0
C      1  0.5341330000000  0.4402220000000  0.4503640000000 1.0
C      1  0.5735800000000  0.5289340000000  0.5633770000000 1.0
C      1  0.4548800000000  0.5015610000000  0.5765650000000 1.0
C      1  0.5561050000000  0.5688090000000  0.5320580000000 1.0
C      1  0.4542060000000  0.4327480000000  0.5109260000000 1.0
C      1  0.4847640000000  0.5277330000000  0.5754450000000 1.0
C      1  0.4743520000000  0.5753570000000  0.5245750000000 1.0
C      1  0.5109560000000  0.4193880000000  0.4935450000000 1.0
C      1  0.4184780000000  0.5177550000000  0.4610400000000 1.0
C      1  0.4812150000000  0.5006970000000  0.5550730000000 1.0
C      1  0.5452680000000  0.4828130000000  0.4829300000000 1.0
C      1  0.4789970000000  0.5140440000000  0.5177600000000 1.0
C      1  0.4180890000000  0.4568910000000  0.5279470000000 1.0
C      1  0.4654580000000  0.5345690000000  0.4942650000000 1.0
C      1  0.5499900000000  0.5532120000000  0.5024430000000 1.0
C      1  0.5107370000000  0.4570850000000  0.4229740000000 1.0
C      1  0.5800620000000  0.4904110000000  0.5556130000000 1.0
C      1  0.5402650000000  0.4576100000000  0.4232210000000 1.0
C      1  0.5629720000000  0.4545950000000  0.4610410000000 1.0
C      1  0.5911870000000  0.5083450000000  0.5327910000000 1.0
C      1  0.5389690000000  0.5396500000000  0.4548550000000 1.0
C      1  0.5430670000000  0.5701070000000  0.4603990000000 1.0
C      1  0.4606110000000  0.5507180000000  0.5821390000000 1.0
C      1  0.4428530000000  0.5792540000000  0.5005430000000 1.0
C      1  0.5209190000000  0.4658560000000  0.5095390000000 1.0
C      1  0.4614950000000  0.4568940000000  0.4798900000000 1.0
C      1  0.5119750000000  0.5292760000000  0.4604510000000 1.0
C      1  0.5899120000000  0.5047380000000  0.4989990000000 1.0
C      1  0.4721120000000  0.4533050000000  0.5292370000000 1.0
C      1  0.4273250000000  0.4415930000000  0.4663050000000 1.0
C      1  0.4307170000000  0.5041880000000  0.5638230000000 1.0
C      1  0.4468790000000  0.4723420000000  0.5050520000000 1.0
C      1  0.5121700000000  0.5279810000000  0.4916040000000 1.0
C      1  0.4247150000000  0.4823130000000  0.5478670000000 1.0
C      1  0.5642940000000  0.4882160000000  0.4559670000000 1.0
C      1  0.5731660000000  0.4647660000000  0.5447220000000 1.0
C      1  0.4743670000000  0.4796910000000  0.5881710000000 1.0
C      1  0.5157310000000  0.5879330000000  0.5028920000000 1.0
C      1  0.4660150000000  0.4087500000000  0.5319780000000 1.0
C      1  0.5123290000000  0.4191630000000  0.4461680000000 1.0
C      1  0.5299730000000  0.5007900000000  0.5902190000000 1.0
C      1  0.5275000000000  0.5223270000000  0.5648520000000 1.0
C      1  0.4701330000000  0.4181990000000  0.4850840000000 1.0
END
