TITL C-2622968-4806-116 0.00217480194408559 125000 -675.029636517667 0 0 125 (C1) n - 1
REM
REM in /nfs/bkarasulu/CARBON/AIRSS/Generating-Clusters/AIREBO/with-SteepDescent/Higher-Symm/SD-CG/HFTN-CG
REM
REM
REM
REM
REM
REM ./C.cell (b20cbc046b6831c77cfcea5457e17084)
REM
REM compiler GCC version 9.2.1 20190827 (Red Hat 9.2.1-1)
REM options -cpp -mtune=generic -march=x86-64 -g -O0 -fpre-include=/usr/include/finclude/math-vector-fortran.h
REM seed 22641472 326381405 -731729460 699437498 -1469520342 -1833358818 558444227 522144419 -670953015 -215519620 359356237 -447343217 -638997966 -100548120 -2134024725 106239193 -1991208042 -554358772 276296101 183831581 696866811 2055135267 1983017412 -2075837565 637848138 -1939528755 -1302380845 918130729 807277491 895074565 851114662 -1031314862 2014250438
REM
CELL 1.54180   50.00000   50.00000   50.00000   90.00000   90.00000   90.00000
LATT -1
SFAC C  
C      1  0.4565720000000  0.4328360000000  0.5048310000000 1.0
C      1  0.5084280000000  0.4605780000000  0.4214570000000 1.0
C      1  0.4210030000000  0.5168590000000  0.4585370000000 1.0
C      1  0.5413340000000  0.5806770000000  0.5162310000000 1.0
C      1  0.5483720000000  0.4205080000000  0.4840840000000 1.0
C      1  0.4606060000000  0.5710190000000  0.4842180000000 1.0
C      1  0.4890310000000  0.5398430000000  0.4206940000000 1.0
C      1  0.4760340000000  0.4531670000000  0.5720740000000 1.0
C      1  0.5077800000000  0.5458290000000  0.5668810000000 1.0
C      1  0.5773230000000  0.4826860000000  0.4563980000000 1.0
C      1  0.5740850000000  0.5142100000000  0.5431990000000 1.0
C      1  0.4326290000000  0.4794060000000  0.5477960000000 1.0
C      1  0.5444660000000  0.5263130000000  0.5671760000000 1.0
C      1  0.5668990000000  0.5611150000000  0.5272480000000 1.0
C      1  0.5133970000000  0.5679000000000  0.5416210000000 1.0
C      1  0.4634920000000  0.4861620000000  0.5536400000000 1.0
C      1  0.4443870000000  0.5176430000000  0.4335060000000 1.0
C      1  0.5490770000000  0.4849610000000  0.4371430000000 1.0
C      1  0.4338210000000  0.4481220000000  0.5216910000000 1.0
C      1  0.4347310000000  0.5502830000000  0.4777020000000 1.0
C      1  0.5744380000000  0.4401060000000  0.4907810000000 1.0
C      1  0.4731500000000  0.4284330000000  0.5487730000000 1.0
C      1  0.4763180000000  0.5603610000000  0.4448590000000 1.0
C      1  0.5160130000000  0.4425770000000  0.4493120000000 1.0
C      1  0.4322670000000  0.5822220000000  0.4723330000000 1.0
C      1  0.4471340000000  0.4356520000000  0.5683100000000 1.0
C      1  0.5664760000000  0.4557800000000  0.4386460000000 1.0
C      1  0.5685890000000  0.4294670000000  0.4593030000000 1.0
C      1  0.5668760000000  0.5947430000000  0.5315010000000 1.0
C      1  0.4213600000000  0.4304150000000  0.5463970000000 1.0
C      1  0.5116290000000  0.5775280000000  0.5730940000000 1.0
C      1  0.5435710000000  0.4311190000000  0.4371030000000 1.0
C      1  0.4679740000000  0.5642740000000  0.4132950000000 1.0
C      1  0.4234270000000  0.5434420000000  0.4377170000000 1.0
C      1  0.4234750000000  0.4580030000000  0.5622730000000 1.0
C      1  0.5775060000000  0.5282860000000  0.5682030000000 1.0
C      1  0.5335200000000  0.5025480000000  0.5141390000000 1.0
C      1  0.5187380000000  0.5330190000000  0.5175560000000 1.0
C      1  0.5222310000000  0.4901320000000  0.5501900000000 1.0
C      1  0.4761200000000  0.4982610000000  0.5187980000000 1.0
C      1  0.4566760000000  0.5135370000000  0.5010040000000 1.0
C      1  0.5454760000000  0.4825540000000  0.4892500000000 1.0
C      1  0.4913900000000  0.4475230000000  0.5178530000000 1.0
C      1  0.4981130000000  0.5381850000000  0.4910140000000 1.0
C      1  0.5059970000000  0.4593780000000  0.4915190000000 1.0
C      1  0.5008410000000  0.4840370000000  0.5299150000000 1.0
C      1  0.4771010000000  0.5097560000000  0.4610830000000 1.0
C      1  0.5063180000000  0.4948610000000  0.4686530000000 1.0
C      1  0.5515160000000  0.4945850000000  0.5418800000000 1.0
C      1  0.5412450000000  0.5528290000000  0.4980880000000 1.0
C      1  0.4920170000000  0.5345230000000  0.5389510000000 1.0
C      1  0.4625540000000  0.5175840000000  0.5406820000000 1.0
C      1  0.4534200000000  0.4906900000000  0.4760340000000 1.0
C      1  0.5329820000000  0.5098570000000  0.4538020000000 1.0
C      1  0.4642980000000  0.4598040000000  0.4855810000000 1.0
C      1  0.4676850000000  0.5421790000000  0.4991480000000 1.0
C      1  0.5378410000000  0.4502760000000  0.4942490000000 1.0
C      1  0.5006870000000  0.4567880000000  0.5492670000000 1.0
C      1  0.5014640000000  0.5334700000000  0.4604220000000 1.0
C      1  0.4875550000000  0.4548860000000  0.4632850000000 1.0
C      1  0.4365060000000  0.5328560000000  0.5491300000000 1.0
C      1  0.5471540000000  0.4363480000000  0.5215260000000 1.0
C      1  0.5223120000000  0.5496040000000  0.4402080000000 1.0
C      1  0.5679330000000  0.4684990000000  0.5488780000000 1.0
C      1  0.5562270000000  0.5325560000000  0.4520000000000 1.0
C      1  0.4373550000000  0.4760280000000  0.4498830000000 1.0
C      1  0.4532280000000  0.5626250000000  0.5221770000000 1.0
C      1  0.4510490000000  0.4351750000000  0.4662310000000 1.0
C      1  0.5493970000000  0.5593820000000  0.4678770000000 1.0
C      1  0.4714650000000  0.4518280000000  0.4334830000000 1.0
C      1  0.4700380000000  0.5530450000000  0.5571860000000 1.0
C      1  0.5273970000000  0.4492990000000  0.5633630000000 1.0
C      1  0.3987370000000  0.5173580000000  0.4836160000000 1.0
C      1  0.4748030000000  0.4117940000000  0.5110180000000 1.0
C      1  0.5125640000000  0.4896580000000  0.4029620000000 1.0
C      1  0.6018070000000  0.4814490000000  0.4745000000000 1.0
C      1  0.5832180000000  0.5169730000000  0.5176100000000 1.0
C      1  0.4224540000000  0.4870180000000  0.5233720000000 1.0
C      1  0.5157880000000  0.5983060000000  0.5056250000000 1.0
C      1  0.5306310000000  0.3979770000000  0.4927800000000 1.0
C      1  0.4827170000000  0.5916920000000  0.4922980000000 1.0
C      1  0.4874250000000  0.5126070000000  0.4002340000000 1.0
C      1  0.4785710000000  0.4771470000000  0.5926020000000 1.0
C      1  0.5150340000000  0.5201780000000  0.5821220000000 1.0
C      1  0.4939550000000  0.4066240000000  0.4833960000000 1.0
C      1  0.4900500000000  0.4868230000000  0.4282900000000 1.0
C      1  0.4199310000000  0.4919560000000  0.4817920000000 1.0
C      1  0.5141870000000  0.5681290000000  0.4898760000000 1.0
C      1  0.5118760000000  0.4228060000000  0.5064830000000 1.0
C      1  0.4922120000000  0.5687670000000  0.5158170000000 1.0
C      1  0.5058030000000  0.5139940000000  0.4337160000000 1.0
C      1  0.5101700000000  0.4809890000000  0.5806380000000 1.0
C      1  0.4894260000000  0.5040290000000  0.5665690000000 1.0
C      1  0.5888360000000  0.5126630000000  0.4782460000000 1.0
C      1  0.5733900000000  0.4923870000000  0.4994980000000 1.0
C      1  0.4292630000000  0.5128360000000  0.5144170000000 1.0
C      1  0.4609390000000  0.4994040000000  0.4169860000000 1.0
C      1  0.4167570000000  0.4646410000000  0.4992180000000 1.0
C      1  0.4956640000000  0.4163800000000  0.4568870000000 1.0
C      1  0.5390180000000  0.5035770000000  0.4118610000000 1.0
C      1  0.5398710000000  0.4970750000000  0.5845470000000 1.0
C      1  0.4639170000000  0.5073970000000  0.5874420000000 1.0
C      1  0.5806190000000  0.5427740000000  0.5074240000000 1.0
C      1  0.5904280000000  0.4642380000000  0.5017790000000 1.0
C      1  0.4161940000000  0.5389320000000  0.5007380000000 1.0
C      1  0.4943650000000  0.5772460000000  0.4637940000000 1.0
C      1  0.4982170000000  0.4130680000000  0.5360570000000 1.0
C      1  0.4911420000000  0.5997550000000  0.5297660000000 1.0
C      1  0.5279610000000  0.4284940000000  0.5421610000000 1.0
C      1  0.5415680000000  0.5314360000000  0.4215620000000 1.0
C      1  0.4281000000000  0.5501150000000  0.5286300000000 1.0
C      1  0.4663210000000  0.5806810000000  0.5430470000000 1.0
C      1  0.4697220000000  0.4234780000000  0.4463490000000 1.0
C      1  0.5267160000000  0.5775120000000  0.4531900000000 1.0
C      1  0.4532180000000  0.4713600000000  0.4278090000000 1.0
C      1  0.4533580000000  0.5330100000000  0.5763340000000 1.0
C      1  0.5475670000000  0.4670540000000  0.5705480000000 1.0
C      1  0.5722740000000  0.4511200000000  0.5273870000000 1.0
C      1  0.5779060000000  0.5424300000000  0.4762620000000 1.0
C      1  0.4282300000000  0.4549680000000  0.4691250000000 1.0
C      1  0.4636910000000  0.4579050000000  0.5346620000000 1.0
C      1  0.5294990000000  0.4711710000000  0.4614320000000 1.0
C      1  0.4576160000000  0.5374410000000  0.4577790000000 1.0
C      1  0.5395890000000  0.5462150000000  0.5409660000000 1.0
C      1  0.5076690000000  0.4905430000000  0.4986890000000 1.0
END
