TITL C-2622967-6265-8 -5.03671575009548e-07 125000 -279.589151762794 0 0 44 (Th) n - 1
REM
REM in /nfs/bkarasulu/CARBON/AIRSS/Generating-Clusters/AIREBO/with-SteepDescent/Higher-Symm/SD-CG/HFTN-CG
REM
REM
REM
REM
REM
REM ./C.cell (b20cbc046b6831c77cfcea5457e17084)
REM
REM compiler GCC version 9.2.1 20190827 (Red Hat 9.2.1-1)
REM options -cpp -mtune=generic -march=x86-64 -g -O0 -fpre-include=/usr/include/finclude/math-vector-fortran.h
REM seed 888911892 -1586484379 1276295899 -1432922857 -1837389887 -1459778470 -1173528325 -1881967967 -464851104 1578716950 -1844810467 -1637074909 1977356074 -2013123336 -625109950 159180303 1882406976 -1882110293 -708015231 812718509 941360832 -1325290117 1289624459 91063595 1154208386 -320220652 1526456546 364004130 -273763677 1537958181 2113899098 -920781602 -386614852
REM
CELL 1.54180   50.00000   50.00000   50.00000   90.00000   90.00000   90.00000
LATT -1
SFAC C  
C      1  0.4748040000000  0.4849050000000  0.5520950000000 1.0
C      1  0.4842080000000  0.5532570000000  0.4763410000000 1.0
C      1  0.5530900000000  0.4780630000000  0.4863420000000 1.0
C      1  0.5217070000000  0.5150730000000  0.5534350000000 1.0
C      1  0.4764820000000  0.5150760000000  0.4467320000000 1.0
C      1  0.5246980000000  0.4870310000000  0.4475150000000 1.0
C      1  0.5156890000000  0.4482650000000  0.4759790000000 1.0
C      1  0.4855370000000  0.4471360000000  0.5228980000000 1.0
C      1  0.5122570000000  0.5534270000000  0.5245590000000 1.0
C      1  0.4463980000000  0.5232730000000  0.4844400000000 1.0
C      1  0.5513750000000  0.5253380000000  0.5159040000000 1.0
C      1  0.4468270000000  0.4754110000000  0.5130910000000 1.0
C      1  0.4771380000000  0.4859690000000  0.4464530000000 1.0
C      1  0.4831560000000  0.5527770000000  0.5239090000000 1.0
C      1  0.5524470000000  0.4777690000000  0.5154480000000 1.0
C      1  0.5240420000000  0.5161370000000  0.4477930000000 1.0
C      1  0.4741480000000  0.5140120000000  0.5523730000000 1.0
C      1  0.5223630000000  0.4859670000000  0.5531560000000 1.0
C      1  0.5146380000000  0.4477860000000  0.5235470000000 1.0
C      1  0.4865890000000  0.4476160000000  0.4753290000000 1.0
C      1  0.5133080000000  0.5539060000000  0.4769900000000 1.0
C      1  0.4457550000000  0.5229800000000  0.5135460000000 1.0
C      1  0.5520180000000  0.5256310000000  0.4867970000000 1.0
C      1  0.4474700000000  0.4757050000000  0.4839840000000 1.0
C      1  0.4339240000000  0.4992870000000  0.4746560000000 1.0
C      1  0.5659740000000  0.5022350000000  0.4776030000000 1.0
C      1  0.4328720000000  0.4988070000000  0.5222850000000 1.0
C      1  0.5649210000000  0.5017550000000  0.5252320000000 1.0
C      1  0.4741250000000  0.5660280000000  0.5000450000000 1.0
C      1  0.5247210000000  0.4350150000000  0.4998430000000 1.0
C      1  0.5014190000000  0.4773720000000  0.4336780000000 1.0
C      1  0.4771020000000  0.4339520000000  0.4987800000000 1.0
C      1  0.5003450000000  0.5250010000000  0.4341340000000 1.0
C      1  0.4974270000000  0.5236700000000  0.5662100000000 1.0
C      1  0.4985000000000  0.4760420000000  0.5657540000000 1.0
C      1  0.5217440000000  0.5670910000000  0.5011080000000 1.0
C      1  0.4676310000000  0.5319160000000  0.4677550000000 1.0
C      1  0.4676590000000  0.4677080000000  0.5307140000000 1.0
C      1  0.5326190000000  0.4697670000000  0.4685650000000 1.0
C      1  0.5312140000000  0.4691270000000  0.5321330000000 1.0
C      1  0.4662260000000  0.5312760000000  0.5313230000000 1.0
C      1  0.5311860000000  0.5333350000000  0.4691740000000 1.0
C      1  0.5297820000000  0.5326950000000  0.5327420000000 1.0
C      1  0.4690640000000  0.4683480000000  0.4671460000000 1.0
END
