TITL C-2622954-8726-148 0.00162046483902191 125000 -1020.60181022208 0 0 189 (C1) n - 1
REM
REM in /nfs/bkarasulu/CARBON/AIRSS/Generating-Clusters/AIREBO/with-SteepDescent/Higher-Symm/SD-CG/HFTN-CG
REM
REM
REM
REM
REM
REM ./C.cell (b20cbc046b6831c77cfcea5457e17084)
REM
REM compiler GCC version 9.2.1 20190827 (Red Hat 9.2.1-1)
REM options -cpp -mtune=generic -march=x86-64 -g -O0 -fpre-include=/usr/include/finclude/math-vector-fortran.h
REM seed -1268219485 -704261723 2024851117 1848043785 331741731 401837197 -365925394 1400556824 -7185651 -731899139 -1882193019 686342735 -665079193 -662743432 -1344753662 -248393458 -1075762832 -1798430053 -2035094386 1162864853 -1800106371 872637556 -325069714 -438277080 -1983125394 -169425903 494288548 -1715568276 -1048445321 -1935377545 1422590678 2110420035 -1735823020
REM
CELL 1.54180   50.00000   50.00000   50.00000   90.00000   90.00000   90.00000
LATT -1
SFAC C  
C      1  0.4886000000000  0.4576870000000  0.4749580000000 1.0
C      1  0.4865680000000  0.5383010000000  0.4716460000000 1.0
C      1  0.4777250000000  0.4973720000000  0.5647020000000 1.0
C      1  0.5250450000000  0.5393730000000  0.4817610000000 1.0
C      1  0.5246600000000  0.4412580000000  0.4702280000000 1.0
C      1  0.5176950000000  0.5086350000000  0.5484300000000 1.0
C      1  0.4549730000000  0.5044160000000  0.3797880000000 1.0
C      1  0.4490980000000  0.5957040000000  0.5658200000000 1.0
C      1  0.4570210000000  0.3994110000000  0.5561950000000 1.0
C      1  0.5445400000000  0.4939790000000  0.3847100000000 1.0
C      1  0.5412230000000  0.4115100000000  0.5624320000000 1.0
C      1  0.5391990000000  0.5974690000000  0.5573860000000 1.0
C      1  0.5387420000000  0.4491880000000  0.4236340000000 1.0
C      1  0.5366940000000  0.5824620000000  0.5067860000000 1.0
C      1  0.5442670000000  0.4598370000000  0.5659350000000 1.0
C      1  0.4697200000000  0.5395230000000  0.4220120000000 1.0
C      1  0.4628890000000  0.4145790000000  0.5067540000000 1.0
C      1  0.4586450000000  0.5472260000000  0.5732270000000 1.0
C      1  0.3849890000000  0.4903540000000  0.4602940000000 1.0
C      1  0.3946940000000  0.5431310000000  0.5147500000000 1.0
C      1  0.3823660000000  0.4738170000000  0.5227600000000 1.0
C      1  0.6193990000000  0.5028830000000  0.4582000000000 1.0
C      1  0.6137760000000  0.4672740000000  0.5078420000000 1.0
C      1  0.6207770000000  0.5265550000000  0.5321800000000 1.0
C      1  0.4955720000000  0.4767980000000  0.5772410000000 1.0
C      1  0.5066380000000  0.4571110000000  0.4461380000000 1.0
C      1  0.4868350000000  0.5653240000000  0.4929620000000 1.0
C      1  0.4934800000000  0.5274640000000  0.5631090000000 1.0
C      1  0.5125860000000  0.5448840000000  0.4506000000000 1.0
C      1  0.5005160000000  0.4280190000000  0.4870780000000 1.0
C      1  0.5172820000000  0.5136860000000  0.4057300000000 1.0
C      1  0.5191720000000  0.5643580000000  0.5668850000000 1.0
C      1  0.5239350000000  0.4118120000000  0.5266050000000 1.0
C      1  0.4835460000000  0.4746130000000  0.4096620000000 1.0
C      1  0.4791830000000  0.4457560000000  0.5583600000000 1.0
C      1  0.4685380000000  0.5830150000000  0.5337960000000 1.0
C      1  0.5921980000000  0.4181740000000  0.4862490000000 1.0
C      1  0.5922180000000  0.5451540000000  0.4388430000000 1.0
C      1  0.5835300000000  0.5317980000000  0.5695730000000 1.0
C      1  0.4064820000000  0.5781940000000  0.4900550000000 1.0
C      1  0.4202940000000  0.4605990000000  0.4356120000000 1.0
C      1  0.4075350000000  0.4651180000000  0.5676830000000 1.0
C      1  0.5534890000000  0.5656860000000  0.5868550000000 1.0
C      1  0.5551280000000  0.3981840000000  0.5057190000000 1.0
C      1  0.5479500000000  0.5483070000000  0.4109610000000 1.0
C      1  0.4473170000000  0.4389760000000  0.5814540000000 1.0
C      1  0.4472620000000  0.6019710000000  0.4927720000000 1.0
C      1  0.4484760000000  0.4560600000000  0.4076890000000 1.0
C      1  0.4383890000000  0.5017980000000  0.5683810000000 1.0
C      1  0.4493180000000  0.4514090000000  0.4759070000000 1.0
C      1  0.4421700000000  0.5495250000000  0.4725750000000 1.0
C      1  0.5555990000000  0.4961470000000  0.5489030000000 1.0
C      1  0.5630020000000  0.5505280000000  0.4767450000000 1.0
C      1  0.5629160000000  0.4494360000000  0.4629380000000 1.0
C      1  0.4552100000000  0.4847850000000  0.5455860000000 1.0
C      1  0.4640890000000  0.4770260000000  0.4614690000000 1.0
C      1  0.4487510000000  0.5382980000000  0.5039910000000 1.0
C      1  0.5443170000000  0.5264460000000  0.5419770000000 1.0
C      1  0.5489830000000  0.5207540000000  0.4689100000000 1.0
C      1  0.5452910000000  0.4564380000000  0.4902120000000 1.0
C      1  0.4183880000000  0.5249050000000  0.5076200000000 1.0
C      1  0.4144970000000  0.4875220000000  0.5212230000000 1.0
C      1  0.4151820000000  0.4875660000000  0.4778340000000 1.0
C      1  0.5824780000000  0.4720250000000  0.4936110000000 1.0
C      1  0.5912480000000  0.5102230000000  0.5231680000000 1.0
C      1  0.5886590000000  0.5094910000000  0.4732410000000 1.0
C      1  0.5489500000000  0.5047720000000  0.4143400000000 1.0
C      1  0.5615630000000  0.5867810000000  0.5459760000000 1.0
C      1  0.5540450000000  0.4244080000000  0.5374560000000 1.0
C      1  0.4366730000000  0.5108070000000  0.3990290000000 1.0
C      1  0.4335750000000  0.4102320000000  0.5438590000000 1.0
C      1  0.4387090000000  0.5736050000000  0.5449260000000 1.0
C      1  0.5697710000000  0.4570740000000  0.4207150000000 1.0
C      1  0.5829640000000  0.5809510000000  0.5033110000000 1.0
C      1  0.5749670000000  0.4568620000000  0.5718290000000 1.0
C      1  0.4217070000000  0.5443620000000  0.4290600000000 1.0
C      1  0.4181810000000  0.4177290000000  0.4987120000000 1.0
C      1  0.4274780000000  0.5589460000000  0.5802610000000 1.0
C      1  0.5442810000000  0.5369230000000  0.4407640000000 1.0
C      1  0.5484180000000  0.5506180000000  0.5567920000000 1.0
C      1  0.5513610000000  0.4261670000000  0.4981490000000 1.0
C      1  0.4582070000000  0.4776090000000  0.4321400000000 1.0
C      1  0.4474280000000  0.4564210000000  0.5538810000000 1.0
C      1  0.4553940000000  0.5709800000000  0.5048380000000 1.0
C      1  0.5104370000000  0.4210560000000  0.5559570000000 1.0
C      1  0.5140560000000  0.4857520000000  0.3864930000000 1.0
C      1  0.5092570000000  0.5876570000000  0.5455730000000 1.0
C      1  0.4807130000000  0.5932420000000  0.5631900000000 1.0
C      1  0.4832590000000  0.5001000000000  0.3903920000000 1.0
C      1  0.4816780000000  0.4072290000000  0.5479310000000 1.0
C      1  0.4603130000000  0.5185700000000  0.5835940000000 1.0
C      1  0.4613070000000  0.4238160000000  0.4806670000000 1.0
C      1  0.4642090000000  0.5511450000000  0.4521620000000 1.0
C      1  0.5329530000000  0.4889810000000  0.5716820000000 1.0
C      1  0.5386090000000  0.5705460000000  0.4800800000000 1.0
C      1  0.5454260000000  0.4232430000000  0.4533160000000 1.0
C      1  0.6019320000000  0.5513470000000  0.5339710000000 1.0
C      1  0.5998050000000  0.4488610000000  0.5279450000000 1.0
C      1  0.5973680000000  0.5000280000000  0.4354100000000 1.0
C      1  0.4004340000000  0.4489330000000  0.5274970000000 1.0
C      1  0.4016620000000  0.5608290000000  0.5376140000000 1.0
C      1  0.4044120000000  0.5013340000000  0.4382450000000 1.0
C      1  0.5316800000000  0.4160480000000  0.4264600000000 1.0
C      1  0.5221710000000  0.5885090000000  0.4628660000000 1.0
C      1  0.5249820000000  0.4921300000000  0.5996790000000 1.0
C      1  0.4691800000000  0.5812960000000  0.4406040000000 1.0
C      1  0.4750350000000  0.4096700000000  0.4623270000000 1.0
C      1  0.4723020000000  0.5161790000000  0.6121680000000 1.0
C      1  0.6028850000000  0.4453520000000  0.4882790000000 1.0
C      1  0.6084760000000  0.5317760000000  0.4569060000000 1.0
C      1  0.6014960000000  0.5172890000000  0.5548090000000 1.0
C      1  0.3844540000000  0.5596910000000  0.4934770000000 1.0
C      1  0.4027520000000  0.4655120000000  0.4558220000000 1.0
C      1  0.3960620000000  0.4820750000000  0.5492720000000 1.0
C      1  0.4333540000000  0.5410900000000  0.5519270000000 1.0
C      1  0.4378340000000  0.4076380000000  0.5160040000000 1.0
C      1  0.4416910000000  0.5354960000000  0.4114350000000 1.0
C      1  0.5511210000000  0.4572860000000  0.5327310000000 1.0
C      1  0.5605660000000  0.5885750000000  0.5181490000000 1.0
C      1  0.5513530000000  0.4817740000000  0.4350940000000 1.0
C      1  0.5439000000000  0.5180240000000  0.5101630000000 1.0
C      1  0.5354680000000  0.4854690000000  0.5049380000000 1.0
C      1  0.5388750000000  0.4926460000000  0.4722110000000 1.0
C      1  0.4646500000000  0.4805050000000  0.5150260000000 1.0
C      1  0.4688630000000  0.5136980000000  0.5088940000000 1.0
C      1  0.4608240000000  0.5066740000000  0.4764010000000 1.0
C      1  0.5090680000000  0.5554630000000  0.6131070000000 1.0
C      1  0.5109630000000  0.3767450000000  0.4933030000000 1.0
C      1  0.5052590000000  0.5597240000000  0.3974810000000 1.0
C      1  0.4920000000000  0.4453840000000  0.6099480000000 1.0
C      1  0.4919200000000  0.6144320000000  0.5013940000000 1.0
C      1  0.4878920000000  0.4263900000000  0.3994520000000 1.0
C      1  0.5118660000000  0.4550190000000  0.5568250000000 1.0
C      1  0.5155250000000  0.4717720000000  0.4168900000000 1.0
C      1  0.5094070000000  0.5719940000000  0.5176860000000 1.0
C      1  0.4855850000000  0.5605290000000  0.5624030000000 1.0
C      1  0.4875410000000  0.5136320000000  0.4213060000000 1.0
C      1  0.4928230000000  0.4238310000000  0.5199530000000 1.0
C      1  0.4223940000000  0.5729200000000  0.4687110000000 1.0
C      1  0.4228250000000  0.4802180000000  0.5846480000000 1.0
C      1  0.4399990000000  0.4444690000000  0.4450120000000 1.0
C      1  0.5765250000000  0.4195950000000  0.4629570000000 1.0
C      1  0.5624080000000  0.5156710000000  0.5758720000000 1.0
C      1  0.5785380000000  0.5640470000000  0.4531250000000 1.0
C      1  0.4279610000000  0.5132760000000  0.5381110000000 1.0
C      1  0.4351790000000  0.4710380000000  0.4998190000000 1.0
C      1  0.4288130000000  0.5183320000000  0.4759180000000 1.0
C      1  0.5752270000000  0.4803490000000  0.5260670000000 1.0
C      1  0.5747710000000  0.5273210000000  0.4986650000000 1.0
C      1  0.5702170000000  0.4825540000000  0.4636730000000 1.0
C      1  0.5263200000000  0.5692090000000  0.5978610000000 1.0
C      1  0.5291890000000  0.3846250000000  0.5115490000000 1.0
C      1  0.5255300000000  0.5416460000000  0.3963830000000 1.0
C      1  0.4740530000000  0.4388450000000  0.5915440000000 1.0
C      1  0.4680210000000  0.6079490000000  0.5131200000000 1.0
C      1  0.4728840000000  0.4478170000000  0.3939260000000 1.0
C      1  0.4941090000000  0.5627160000000  0.4282840000000 1.0
C      1  0.4956780000000  0.5311030000000  0.5970610000000 1.0
C      1  0.5018770000000  0.3974480000000  0.4722480000000 1.0
C      1  0.5031910000000  0.4291120000000  0.4271210000000 1.0
C      1  0.5004960000000  0.4751310000000  0.6092010000000 1.0
C      1  0.4968570000000  0.5943220000000  0.4782430000000 1.0
C      1  0.5192480000000  0.4621940000000  0.5237320000000 1.0
C      1  0.5116600000000  0.4885230000000  0.4581650000000 1.0
C      1  0.5183450000000  0.5400270000000  0.5150960000000 1.0
C      1  0.4886900000000  0.5319630000000  0.5297320000000 1.0
C      1  0.4858680000000  0.5095140000000  0.4535200000000 1.0
C      1  0.4856700000000  0.4563940000000  0.5266980000000 1.0
C      1  0.5800250000000  0.4284340000000  0.5163010000000 1.0
C      1  0.5723750000000  0.5221050000000  0.4286070000000 1.0
C      1  0.5803740000000  0.5622140000000  0.5574800000000 1.0
C      1  0.4232670000000  0.5754830000000  0.5157980000000 1.0
C      1  0.4285970000000  0.4884170000000  0.4193900000000 1.0
C      1  0.4205070000000  0.4385390000000  0.5518750000000 1.0
C      1  0.4044210000000  0.5662370000000  0.5645760000000 1.0
C      1  0.4139240000000  0.4447360000000  0.5033690000000 1.0
C      1  0.4136610000000  0.5258640000000  0.4482100000000 1.0
C      1  0.5908470000000  0.4634700000000  0.5511220000000 1.0
C      1  0.5914990000000  0.5551160000000  0.5084590000000 1.0
C      1  0.5896500000000  0.4719080000000  0.4378700000000 1.0
C      1  0.5191760000000  0.3942270000000  0.4457920000000 1.0
C      1  0.5178390000000  0.5859410000000  0.4356020000000 1.0
C      1  0.5230300000000  0.5184260000000  0.6077170000000 1.0
C      1  0.4752530000000  0.6017790000000  0.4572070000000 1.0
C      1  0.4762190000000  0.4147210000000  0.4358520000000 1.0
C      1  0.4799580000000  0.4929060000000  0.6246270000000 1.0
C      1  0.4917020000000  0.4827540000000  0.4945430000000 1.0
C      1  0.5032990000000  0.5142090000000  0.4888560000000 1.0
C      1  0.5081290000000  0.4996230000000  0.5191870000000 1.0
END
