TITL C-2622962-9663-280 0.000336239999123378 125000 -531.687506917753 0 0 94 (C1) n - 1
REM
REM in /nfs/bkarasulu/CARBON/AIRSS/Generating-Clusters/AIREBO/with-SteepDescent/Higher-Symm/SD-CG/HFTN-CG
REM
REM
REM
REM
REM
REM ./C.cell (b20cbc046b6831c77cfcea5457e17084)
REM
REM compiler GCC version 9.2.1 20190827 (Red Hat 9.2.1-1)
REM options -cpp -mtune=generic -march=x86-64 -g -O0 -fpre-include=/usr/include/finclude/math-vector-fortran.h
REM seed 1981746971 1440080105 -147942165 -7758976 -270666648 2009739625 905699711 1102505382 -1592192325 880227361 410396874 -1291440842 -1500994987 1516092555 -1340043950 -646414881 1105488727 -1870355744 648857796 -824830922 -1084063479 -1515302878 620670407 -812222759 1370548959 -2009401119 1048474012 154622223 118420817 1536780413 252796035 1574145398 1755726842
REM
CELL 1.54180   50.00000   50.00000   50.00000   90.00000   90.00000   90.00000
LATT -1
SFAC C  
C      1  0.5215000000000  0.5602390000000  0.5410500000000 1.0
C      1  0.5413990000000  0.5142420000000  0.5629300000000 1.0
C      1  0.5511890000000  0.5442100000000  0.5200170000000 1.0
C      1  0.4998680000000  0.4235500000000  0.4543420000000 1.0
C      1  0.4849540000000  0.4299290000000  0.5490510000000 1.0
C      1  0.4678930000000  0.5718420000000  0.4661110000000 1.0
C      1  0.5440270000000  0.4528870000000  0.4373530000000 1.0
C      1  0.4554350000000  0.4680800000000  0.5575180000000 1.0
C      1  0.4732210000000  0.5279320000000  0.4429600000000 1.0
C      1  0.5638480000000  0.4671900000000  0.4741310000000 1.0
C      1  0.4255930000000  0.4352230000000  0.5217180000000 1.0
C      1  0.4268690000000  0.5443300000000  0.4769530000000 1.0
C      1  0.4970680000000  0.5305440000000  0.5191550000000 1.0
C      1  0.5185270000000  0.4957450000000  0.5285100000000 1.0
C      1  0.5198010000000  0.5255000000000  0.4870370000000 1.0
C      1  0.5073410000000  0.4557660000000  0.4765390000000 1.0
C      1  0.4953360000000  0.4709230000000  0.5286220000000 1.0
C      1  0.5117500000000  0.5475490000000  0.4690810000000 1.0
C      1  0.5185070000000  0.4988130000000  0.4682580000000 1.0
C      1  0.4732390000000  0.5068700000000  0.5187200000000 1.0
C      1  0.4883120000000  0.4962000000000  0.4788970000000 1.0
C      1  0.5225560000000  0.4691770000000  0.5106250000000 1.0
C      1  0.4867330000000  0.4702720000000  0.4895870000000 1.0
C      1  0.4712670000000  0.5296000000000  0.4962370000000 1.0
C      1  0.5032130000000  0.4129770000000  0.4796570000000 1.0
C      1  0.4835730000000  0.5371510000000  0.4157010000000 1.0
C      1  0.4102020000000  0.4586180000000  0.5253750000000 1.0
C      1  0.5248050000000  0.5891900000000  0.5307060000000 1.0
C      1  0.4592040000000  0.5952130000000  0.4583770000000 1.0
C      1  0.4636940000000  0.4143330000000  0.5561970000000 1.0
C      1  0.4369210000000  0.4609070000000  0.5742370000000 1.0
C      1  0.5373300000000  0.4699380000000  0.4137540000000 1.0
C      1  0.5469780000000  0.5278280000000  0.5861550000000 1.0
C      1  0.4220830000000  0.5246930000000  0.4621880000000 1.0
C      1  0.5714770000000  0.5554700000000  0.5307150000000 1.0
C      1  0.5783580000000  0.4811110000000  0.4549850000000 1.0
C      1  0.5317250000000  0.5817140000000  0.4641460000000 1.0
C      1  0.4827430000000  0.5188710000000  0.5698800000000 1.0
C      1  0.5656700000000  0.4872310000000  0.5268720000000 1.0
C      1  0.5095710000000  0.4213710000000  0.5361270000000 1.0
C      1  0.4623200000000  0.4073110000000  0.4334160000000 1.0
C      1  0.4757380000000  0.5763380000000  0.5266430000000 1.0
C      1  0.4684880000000  0.4730340000000  0.4247690000000 1.0
C      1  0.5362540000000  0.4649040000000  0.5870590000000 1.0
C      1  0.5315550000000  0.5202480000000  0.4260660000000 1.0
C      1  0.5735280000000  0.5226280000000  0.4783300000000 1.0
C      1  0.4212510000000  0.5304390000000  0.5332540000000 1.0
C      1  0.4276960000000  0.4787810000000  0.4852960000000 1.0
C      1  0.4634400000000  0.4333340000000  0.4414410000000 1.0
C      1  0.4460280000000  0.4761040000000  0.4410560000000 1.0
C      1  0.4357820000000  0.4519290000000  0.4789390000000 1.0
C      1  0.4764040000000  0.5660670000000  0.5533670000000 1.0
C      1  0.5358030000000  0.5673290000000  0.4391060000000 1.0
C      1  0.5300360000000  0.4338460000000  0.5524240000000 1.0
C      1  0.4548800000000  0.5252250000000  0.5651900000000 1.0
C      1  0.5588120000000  0.5251330000000  0.4339170000000 1.0
C      1  0.5582930000000  0.4688610000000  0.5688220000000 1.0
C      1  0.4341230000000  0.5566120000000  0.5347850000000 1.0
C      1  0.5648500000000  0.5498650000000  0.4741410000000 1.0
C      1  0.5643480000000  0.4588730000000  0.5229140000000 1.0
C      1  0.5204580000000  0.5524690000000  0.5077580000000 1.0
C      1  0.5150740000000  0.5213230000000  0.5465660000000 1.0
C      1  0.5359010000000  0.5161550000000  0.5128400000000 1.0
C      1  0.5276240000000  0.4405890000000  0.4951150000000 1.0
C      1  0.4671510000000  0.4619240000000  0.5128970000000 1.0
C      1  0.4538910000000  0.5552890000000  0.4881610000000 1.0
C      1  0.5168560000000  0.4715610000000  0.4479730000000 1.0
C      1  0.4875690000000  0.4621150000000  0.5597280000000 1.0
C      1  0.4877500000000  0.5553790000000  0.4507950000000 1.0
C      1  0.5393800000000  0.4848930000000  0.4882730000000 1.0
C      1  0.4516160000000  0.4867250000000  0.5302270000000 1.0
C      1  0.4654190000000  0.5128990000000  0.4673340000000 1.0
C      1  0.5163330000000  0.4502730000000  0.5729490000000 1.0
C      1  0.5741230000000  0.5089100000000  0.4528850000000 1.0
C      1  0.4509330000000  0.5691000000000  0.5148130000000 1.0
C      1  0.5129750000000  0.5474480000000  0.4292910000000 1.0
C      1  0.4994990000000  0.5468160000000  0.5601320000000 1.0
C      1  0.4914050000000  0.4517250000000  0.4372480000000 1.0
C      1  0.5583690000000  0.4936230000000  0.5535430000000 1.0
C      1  0.4381920000000  0.4977330000000  0.4628760000000 1.0
C      1  0.4374560000000  0.5109950000000  0.5472530000000 1.0
C      1  0.4466530000000  0.4410670000000  0.5030770000000 1.0
C      1  0.5568770000000  0.4501710000000  0.4974080000000 1.0
C      1  0.5428720000000  0.5659230000000  0.4860010000000 1.0
C      1  0.5637760000000  0.5050750000000  0.5006680000000 1.0
C      1  0.5001050000000  0.5791650000000  0.5132130000000 1.0
C      1  0.4907320000000  0.4930590000000  0.5735050000000 1.0
C      1  0.4237540000000  0.4811550000000  0.5131300000000 1.0
C      1  0.5126430000000  0.4174210000000  0.5085510000000 1.0
C      1  0.5224340000000  0.4944240000000  0.4234200000000 1.0
C      1  0.4512600000000  0.5538980000000  0.5593720000000 1.0
C      1  0.5567890000000  0.4461860000000  0.5483050000000 1.0
C      1  0.5606240000000  0.5525370000000  0.4439800000000 1.0
C      1  0.4432650000000  0.4498900000000  0.4522630000000 1.0
END
