TITL C-2622958-629-529 -37389.0391865562 125000 -972.086934442187 0 0 173 (C1) n - 1
REM
REM in /nfs/bkarasulu/CARBON/AIRSS/Generating-Clusters/AIREBO/with-SteepDescent/Higher-Symm/SD-CG/HFTN-CG
REM
REM
REM
REM
REM
REM ./C.cell (b20cbc046b6831c77cfcea5457e17084)
REM
REM compiler GCC version 9.2.1 20190827 (Red Hat 9.2.1-1)
REM options -cpp -mtune=generic -march=x86-64 -g -O0 -fpre-include=/usr/include/finclude/math-vector-fortran.h
REM seed -485002962 2040669054 -890635612 2057991634 1533942714 -1818748620 -280361098 -657422939 -430092020 353450968 1889737640 -1113107130 -1058653569 -1708905750 1272157056 -1964559705 1644278822 1224807369 2064637318 368840591 1868538992 852123120 2028186328 -1871834871 -1699701842 1752088496 533496508 -1278373629 -1953702968 -1558983890 22584583 -408189601 -668542149
REM
CELL 1.54180   50.00000   50.00000   50.00000   90.00000   90.00000   90.00000
LATT -1
SFAC C  
C      1  0.5643040000000  0.5120280000000  0.4547050000000 1.0
C      1  0.5567260000000  0.4838130000000  0.4569440000000 1.0
C      1  0.5654600000000  0.4636220000000  0.4825610000000 1.0
C      1  0.5514040000000  0.4597130000000  0.5073870000000 1.0
C      1  0.5552690000000  0.4779400000000  0.5290880000000 1.0
C      1  0.5547720000000  0.4994370000000  0.5451850000000 1.0
C      1  0.5620490000000  0.5245820000000  0.5310680000000 1.0
C      1  0.5563280000000  0.5342490000000  0.5051480000000 1.0
C      1  0.5577510000000  0.5291570000000  0.4803700000000 1.0
C      1  0.4896930000000  0.5559490000000  0.5714740000000 1.0
C      1  0.4894140000000  0.5900550000000  0.5263300000000 1.0
C      1  0.4919060000000  0.5783840000000  0.4570970000000 1.0
C      1  0.4888460000000  0.5293800000000  0.4188300000000 1.0
C      1  0.4958220000000  0.4717870000000  0.4030090000000 1.0
C      1  0.4944040000000  0.4249980000000  0.4501960000000 1.0
C      1  0.4955790000000  0.4080860000000  0.5088960000000 1.0
C      1  0.4832590000000  0.4377080000000  0.5641330000000 1.0
C      1  0.4880760000000  0.4912810000000  0.5964750000000 1.0
C      1  0.5309340000000  0.4385610000000  0.5084170000000 1.0
C      1  0.5512380000000  0.4524850000000  0.5467020000000 1.0
C      1  0.5507010000000  0.4992740000000  0.5773080000000 1.0
C      1  0.5437010000000  0.5397470000000  0.5553570000000 1.0
C      1  0.5480690000000  0.5642350000000  0.5092240000000 1.0
C      1  0.5464120000000  0.5550800000000  0.4615120000000 1.0
C      1  0.5497150000000  0.5264770000000  0.4281410000000 1.0
C      1  0.5580400000000  0.4703030000000  0.4272190000000 1.0
C      1  0.5452940000000  0.4459390000000  0.4616570000000 1.0
C      1  0.5481960000000  0.5905640000000  0.4911730000000 1.0
C      1  0.5509310000000  0.5691550000000  0.4326620000000 1.0
C      1  0.5371010000000  0.5219920000000  0.3995730000000 1.0
C      1  0.5564830000000  0.4378370000000  0.4237070000000 1.0
C      1  0.5614340000000  0.4198630000000  0.4763680000000 1.0
C      1  0.5550230000000  0.4071560000000  0.5445040000000 1.0
C      1  0.5597520000000  0.4604620000000  0.5748270000000 1.0
C      1  0.5498350000000  0.5279810000000  0.5929890000000 1.0
C      1  0.5470020000000  0.5733730000000  0.5528400000000 1.0
C      1  0.5719900000000  0.5697770000000  0.4784390000000 1.0
C      1  0.5756210000000  0.5454410000000  0.4360690000000 1.0
C      1  0.5884170000000  0.4834260000000  0.4326630000000 1.0
C      1  0.5773820000000  0.4448910000000  0.4496570000000 1.0
C      1  0.5872100000000  0.4274400000000  0.4861840000000 1.0
C      1  0.5731650000000  0.4318150000000  0.5379580000000 1.0
C      1  0.5798400000000  0.4827000000000  0.5714530000000 1.0
C      1  0.5735430000000  0.5302680000000  0.5686540000000 1.0
C      1  0.5713400000000  0.5633730000000  0.5311530000000 1.0
C      1  0.4207780000000  0.5417140000000  0.5587780000000 1.0
C      1  0.4307770000000  0.5680750000000  0.5173850000000 1.0
C      1  0.4271460000000  0.5627530000000  0.4658500000000 1.0
C      1  0.4276280000000  0.5251100000000  0.4454570000000 1.0
C      1  0.4268310000000  0.4712700000000  0.4387130000000 1.0
C      1  0.4343770000000  0.4440260000000  0.4670010000000 1.0
C      1  0.4265330000000  0.4332850000000  0.5041710000000 1.0
C      1  0.4285420000000  0.4586690000000  0.5509340000000 1.0
C      1  0.4190510000000  0.4876630000000  0.5660090000000 1.0
C      1  0.4935540000000  0.6160650000000  0.5065290000000 1.0
C      1  0.4935580000000  0.5914290000000  0.4274190000000 1.0
C      1  0.4849720000000  0.5302370000000  0.3865770000000 1.0
C      1  0.5001190000000  0.4428380000000  0.3939240000000 1.0
C      1  0.4930080000000  0.3921440000000  0.4522830000000 1.0
C      1  0.4985840000000  0.3859770000000  0.5304450000000 1.0
C      1  0.4863920000000  0.4446000000000  0.5956130000000 1.0
C      1  0.4898880000000  0.5175870000000  0.6161370000000 1.0
C      1  0.4917530000000  0.5866870000000  0.5793450000000 1.0
C      1  0.5226230000000  0.5212980000000  0.5360800000000 1.0
C      1  0.5198420000000  0.5469280000000  0.5147480000000 1.0
C      1  0.5177350000000  0.5284360000000  0.4865530000000 1.0
C      1  0.5277060000000  0.5276580000000  0.4540500000000 1.0
C      1  0.5194050000000  0.4950760000000  0.4483450000000 1.0
C      1  0.5280560000000  0.4730710000000  0.4727780000000 1.0
C      1  0.5147780000000  0.4747180000000  0.5036630000000 1.0
C      1  0.5206630000000  0.4592390000000  0.5333830000000 1.0
C      1  0.5134090000000  0.4898760000000  0.5464300000000 1.0
C      1  0.5238590000000  0.3957610000000  0.4541200000000 1.0
C      1  0.5249740000000  0.3890300000000  0.5426230000000 1.0
C      1  0.5090230000000  0.4599650000000  0.6010590000000 1.0
C      1  0.5175620000000  0.5234620000000  0.6035100000000 1.0
C      1  0.5222650000000  0.5820380000000  0.5747300000000 1.0
C      1  0.5231100000000  0.6085570000000  0.5054800000000 1.0
C      1  0.5256920000000  0.5920490000000  0.4313940000000 1.0
C      1  0.5150890000000  0.5402000000000  0.3889610000000 1.0
C      1  0.5248860000000  0.4339570000000  0.4094200000000 1.0
C      1  0.5158000000000  0.5763640000000  0.5280320000000 1.0
C      1  0.5199540000000  0.5756060000000  0.4673990000000 1.0
C      1  0.5125390000000  0.5408250000000  0.4288140000000 1.0
C      1  0.5314950000000  0.4838550000000  0.4217380000000 1.0
C      1  0.5219430000000  0.4339180000000  0.4428740000000 1.0
C      1  0.5212150000000  0.4160150000000  0.4982160000000 1.0
C      1  0.5102580000000  0.4358290000000  0.5532750000000 1.0
C      1  0.5202820000000  0.4867700000000  0.5772110000000 1.0
C      1  0.5169260000000  0.5424760000000  0.5761540000000 1.0
C      1  0.4653950000000  0.3938290000000  0.5305190000000 1.0
C      1  0.4548940000000  0.4440430000000  0.5915770000000 1.0
C      1  0.4572880000000  0.5146500000000  0.6060620000000 1.0
C      1  0.4583890000000  0.5802310000000  0.5759700000000 1.0
C      1  0.4609480000000  0.6066660000000  0.5039240000000 1.0
C      1  0.4626130000000  0.5774860000000  0.4301920000000 1.0
C      1  0.4573700000000  0.5148760000000  0.3992570000000 1.0
C      1  0.4669170000000  0.4444780000000  0.4010620000000 1.0
C      1  0.4646380000000  0.4022370000000  0.4638750000000 1.0
C      1  0.4821430000000  0.5470660000000  0.4540110000000 1.0
C      1  0.4844740000000  0.4996850000000  0.4291730000000 1.0
C      1  0.4889600000000  0.4601900000000  0.4304220000000 1.0
C      1  0.4857550000000  0.4328560000000  0.4784840000000 1.0
C      1  0.4827060000000  0.4315480000000  0.5246380000000 1.0
C      1  0.4736010000000  0.4690100000000  0.5666320000000 1.0
C      1  0.4842000000000  0.5169510000000  0.5768420000000 1.0
C      1  0.4822560000000  0.5526850000000  0.5384390000000 1.0
C      1  0.4874340000000  0.5778830000000  0.4964690000000 1.0
C      1  0.4056740000000  0.5504020000000  0.5094290000000 1.0
C      1  0.4024660000000  0.5436820000000  0.4796660000000 1.0
C      1  0.4070680000000  0.5125750000000  0.4666770000000 1.0
C      1  0.4050490000000  0.4813500000000  0.4628740000000 1.0
C      1  0.4093880000000  0.4566770000000  0.4863480000000 1.0
C      1  0.3958690000000  0.4674060000000  0.5156920000000 1.0
C      1  0.3985370000000  0.4820050000000  0.5390600000000 1.0
C      1  0.4033350000000  0.5130190000000  0.5521450000000 1.0
C      1  0.3969500000000  0.5399370000000  0.5345780000000 1.0
C      1  0.4682740000000  0.5813560000000  0.5471250000000 1.0
C      1  0.4680280000000  0.5937820000000  0.4752500000000 1.0
C      1  0.4643770000000  0.5472020000000  0.4252210000000 1.0
C      1  0.4656220000000  0.4850750000000  0.4067080000000 1.0
C      1  0.4690610000000  0.4359780000000  0.4320990000000 1.0
C      1  0.4686320000000  0.4083330000000  0.4934490000000 1.0
C      1  0.4610360000000  0.4202570000000  0.5482830000000 1.0
C      1  0.4607390000000  0.4753840000000  0.5955140000000 1.0
C      1  0.4649560000000  0.5412430000000  0.5879560000000 1.0
C      1  0.4438900000000  0.4766770000000  0.4663090000000 1.0
C      1  0.4550010000000  0.4749670000000  0.4965180000000 1.0
C      1  0.4348850000000  0.4593750000000  0.5169560000000 1.0
C      1  0.4455490000000  0.4823960000000  0.5369970000000 1.0
C      1  0.4550500000000  0.5116560000000  0.5335510000000 1.0
C      1  0.4365920000000  0.5375000000000  0.5311730000000 1.0
C      1  0.4513340000000  0.5371870000000  0.5032080000000 1.0
C      1  0.4401310000000  0.5330250000000  0.4760860000000 1.0
C      1  0.4539770000000  0.5056250000000  0.4680580000000 1.0
C      1  0.4433410000000  0.4106900000000  0.5108060000000 1.0
C      1  0.4433860000000  0.4378960000000  0.5665530000000 1.0
C      1  0.4357210000000  0.4942390000000  0.5925090000000 1.0
C      1  0.4384840000000  0.5564190000000  0.5790370000000 1.0
C      1  0.4493740000000  0.5881630000000  0.5221230000000 1.0
C      1  0.4475970000000  0.5806500000000  0.4548200000000 1.0
C      1  0.4409100000000  0.5284580000000  0.4218850000000 1.0
C      1  0.4443660000000  0.4638500000000  0.4176280000000 1.0
C      1  0.4502340000000  0.4244790000000  0.4528420000000 1.0
C      1  0.4704860000000  0.4611060000000  0.5345540000000 1.0
C      1  0.4802820000000  0.4963900000000  0.5504920000000 1.0
C      1  0.4947840000000  0.5259170000000  0.5459710000000 1.0
C      1  0.4764370000000  0.5505800000000  0.5091410000000 1.0
C      1  0.4950560000000  0.5486450000000  0.4834460000000 1.0
C      1  0.4738750000000  0.5163050000000  0.4534240000000 1.0
C      1  0.4903990000000  0.4787380000000  0.4552960000000 1.0
C      1  0.4793860000000  0.4632230000000  0.4785170000000 1.0
C      1  0.4893170000000  0.4588060000000  0.5086720000000 1.0
C      1  0.5396610000000  0.5968920000000  0.5305160000000 1.0
C      1  0.5418060000000  0.5982780000000  0.4588550000000 1.0
C      1  0.5283480000000  0.5588700000000  0.4114300000000 1.0
C      1  0.5307810000000  0.4951090000000  0.3974220000000 1.0
C      1  0.5391260000000  0.4088530000000  0.4276200000000 1.0
C      1  0.5364490000000  0.4042720000000  0.4782990000000 1.0
C      1  0.5277760000000  0.4155180000000  0.5589110000000 1.0
C      1  0.5383570000000  0.4642390000000  0.5920150000000 1.0
C      1  0.5416670000000  0.5608980000000  0.5904580000000 1.0
C      1  0.5927330000000  0.5295680000000  0.4610610000000 1.0
C      1  0.6010230000000  0.4968740000000  0.4563820000000 1.0
C      1  0.5951750000000  0.4660390000000  0.4694730000000 1.0
C      1  0.5994380000000  0.4525770000000  0.5004340000000 1.0
C      1  0.5954510000000  0.4564900000000  0.5303590000000 1.0
C      1  0.5985580000000  0.4856650000000  0.5479120000000 1.0
C      1  0.5924680000000  0.5189240000000  0.5421990000000 1.0
C      1  0.5943220000000  0.5453490000000  0.5206590000000 1.0
C      1  0.5969120000000  0.5510940000000  0.4871610000000 1.0
C      1  0.5125110000000  0.5022330000000  0.4953100000000 1.0
C      1  0.4647160000000  0.4997260000000  0.5067820000000 1.0
END
