TITL C-2622961-1971-616 0.000893869318197723 125000 -459.253338759685 0 0 83 (C1) n - 1
REM
REM in /nfs/bkarasulu/CARBON/AIRSS/Generating-Clusters/AIREBO/with-SteepDescent/Higher-Symm/SD-CG/HFTN-CG
REM
REM
REM
REM
REM
REM ./C.cell (b20cbc046b6831c77cfcea5457e17084)
REM
REM compiler GCC version 9.2.1 20190827 (Red Hat 9.2.1-1)
REM options -cpp -mtune=generic -march=x86-64 -g -O0 -fpre-include=/usr/include/finclude/math-vector-fortran.h
REM seed 1179184420 1565682971 -1160366248 800022525 -439605716 -1958715279 427902436 -1346126689 -169623935 -730699516 1642344575 1080515667 514274883 1564885871 -1460352428 2092533332 283220263 1856577265 1011057408 -1331789353 -2093382260 2012001352 461840740 1710107046 564893558 2007300018 -1843196087 819366849 -1099666104 1731989426 -861125091 -1442573259 -2096774350
REM
CELL 1.54180   50.00000   50.00000   50.00000   90.00000   90.00000   90.00000
LATT -1
SFAC C  
C      1  0.5331130000000  0.5159920000000  0.4853770000000 1.0
C      1  0.5429600000000  0.4838100000000  0.4902340000000 1.0
C      1  0.5211410000000  0.4633140000000  0.4803520000000 1.0
C      1  0.4905160000000  0.4632190000000  0.4801500000000 1.0
C      1  0.4639380000000  0.4843060000000  0.4823870000000 1.0
C      1  0.4729940000000  0.5168170000000  0.4867070000000 1.0
C      1  0.4912950000000  0.5446790000000  0.4874040000000 1.0
C      1  0.5215400000000  0.4328570000000  0.5110000000000 1.0
C      1  0.4514580000000  0.4433730000000  0.5025320000000 1.0
C      1  0.4108630000000  0.4895520000000  0.5013820000000 1.0
C      1  0.4470530000000  0.5543270000000  0.5110190000000 1.0
C      1  0.5153070000000  0.5860890000000  0.5038860000000 1.0
C      1  0.5653690000000  0.5306080000000  0.5037090000000 1.0
C      1  0.5688780000000  0.4678530000000  0.5054250000000 1.0
C      1  0.5445380000000  0.5330120000000  0.4591080000000 1.0
C      1  0.5609520000000  0.4855520000000  0.4614380000000 1.0
C      1  0.5345340000000  0.4413060000000  0.4596630000000 1.0
C      1  0.4818530000000  0.4435450000000  0.4540270000000 1.0
C      1  0.4381540000000  0.4842240000000  0.4629890000000 1.0
C      1  0.4515730000000  0.5335380000000  0.4662700000000 1.0
C      1  0.4968400000000  0.5631850000000  0.4620660000000 1.0
C      1  0.5110880000000  0.4630820000000  0.5225910000000 1.0
C      1  0.4790560000000  0.4612350000000  0.5112450000000 1.0
C      1  0.4621390000000  0.4905800000000  0.5148580000000 1.0
C      1  0.4590130000000  0.5239730000000  0.5158650000000 1.0
C      1  0.5066690000000  0.5541140000000  0.5115870000000 1.0
C      1  0.5324860000000  0.5341470000000  0.5117190000000 1.0
C      1  0.5370920000000  0.4850080000000  0.5221690000000 1.0
C      1  0.4958670000000  0.5430290000000  0.4396390000000 1.0
C      1  0.5214350000000  0.5315010000000  0.4341920000000 1.0
C      1  0.5428420000000  0.5048710000000  0.4400790000000 1.0
C      1  0.5352660000000  0.4715850000000  0.4440300000000 1.0
C      1  0.5032050000000  0.4669760000000  0.4426100000000 1.0
C      1  0.4601820000000  0.5002420000000  0.4460040000000 1.0
C      1  0.4693510000000  0.5318030000000  0.4386740000000 1.0
C      1  0.5579990000000  0.4478680000000  0.5282110000000 1.0
C      1  0.4918310000000  0.4251900000000  0.5226180000000 1.0
C      1  0.4316360000000  0.4543290000000  0.5271020000000 1.0
C      1  0.4243500000000  0.5074560000000  0.5269940000000 1.0
C      1  0.4690760000000  0.5726160000000  0.5227840000000 1.0
C      1  0.5416310000000  0.5724300000000  0.5181670000000 1.0
C      1  0.5735870000000  0.5116080000000  0.5282610000000 1.0
C      1  0.5538790000000  0.4309670000000  0.5023380000000 1.0
C      1  0.4749980000000  0.4229100000000  0.4996060000000 1.0
C      1  0.4165420000000  0.4621500000000  0.5017670000000 1.0
C      1  0.4217980000000  0.5347120000000  0.5068130000000 1.0
C      1  0.4826940000000  0.5869210000000  0.5022590000000 1.0
C      1  0.5584390000000  0.5610000000000  0.4977110000000 1.0
C      1  0.5819710000000  0.4944890000000  0.5047430000000 1.0
C      1  0.5346890000000  0.5524870000000  0.5398870000000 1.0
C      1  0.5506480000000  0.5014570000000  0.5402340000000 1.0
C      1  0.5343940000000  0.4526110000000  0.5450440000000 1.0
C      1  0.4794410000000  0.4454540000000  0.5413650000000 1.0
C      1  0.4423570000000  0.4810220000000  0.5388800000000 1.0
C      1  0.4498360000000  0.5193170000000  0.5462190000000 1.0
C      1  0.4875470000000  0.5558930000000  0.5374650000000 1.0
C      1  0.4898550000000  0.4231910000000  0.4758920000000 1.0
C      1  0.4356090000000  0.4530140000000  0.4751210000000 1.0
C      1  0.4231660000000  0.5271110000000  0.4786390000000 1.0
C      1  0.4733020000000  0.5786100000000  0.4766800000000 1.0
C      1  0.5462020000000  0.5622190000000  0.4722240000000 1.0
C      1  0.5756990000000  0.5118900000000  0.4771020000000 1.0
C      1  0.5608520000000  0.4380430000000  0.4762350000000 1.0
C      1  0.4506200000000  0.5619860000000  0.4800200000000 1.0
C      1  0.5224260000000  0.5771890000000  0.4727270000000 1.0
C      1  0.5777510000000  0.5323380000000  0.4518110000000 1.0
C      1  0.5781040000000  0.4578100000000  0.4667270000000 1.0
C      1  0.5174100000000  0.4237060000000  0.4806810000000 1.0
C      1  0.4512990000000  0.4422110000000  0.4495800000000 1.0
C      1  0.4164280000000  0.5006150000000  0.4761260000000 1.0
C      1  0.4717390000000  0.5190320000000  0.5659020000000 1.0
C      1  0.4934020000000  0.5388070000000  0.5589360000000 1.0
C      1  0.5222300000000  0.5391120000000  0.5612130000000 1.0
C      1  0.5335460000000  0.5121040000000  0.5639580000000 1.0
C      1  0.5137910000000  0.4614820000000  0.5698120000000 1.0
C      1  0.4832580000000  0.4633710000000  0.5620150000000 1.0
C      1  0.4657690000000  0.4859390000000  0.5613390000000 1.0
C      1  0.5217340000000  0.4895000000000  0.5848420000000 1.0
C      1  0.4996460000000  0.4950250000000  0.5202260000000 1.0
C      1  0.5112770000000  0.4902580000000  0.5518720000000 1.0
C      1  0.5040450000000  0.5033050000000  0.4875140000000 1.0
C      1  0.4823110000000  0.4866710000000  0.4250870000000 1.0
C      1  0.4921580000000  0.4956550000000  0.4568380000000 1.0
END
