TITL C-2622959-7779-345 0.00123166840528825 125000 -309.722576912466 0 0 58 (C1) n - 1
REM
REM in /nfs/bkarasulu/CARBON/AIRSS/Generating-Clusters/AIREBO/with-SteepDescent/Higher-Symm/SD-CG/HFTN-CG
REM
REM
REM
REM
REM
REM ./C.cell (b20cbc046b6831c77cfcea5457e17084)
REM
REM compiler GCC version 9.2.1 20190827 (Red Hat 9.2.1-1)
REM options -cpp -mtune=generic -march=x86-64 -g -O0 -fpre-include=/usr/include/finclude/math-vector-fortran.h
REM seed 1607016741 759695650 742913071 1420027217 1127183985 -549596805 -755985373 -1779963509 -514976887 -1575431359 511624492 1187125411 1837887229 1646109901 -424311363 421239455 -403681079 -2056732782 -672297944 1790484883 -1668600514 1745016792 -2021445821 1032504358 903846807 -1814482939 -765881496 797007545 -1978691132 547317239 -868221305 1356407047 1270179338
REM
CELL 1.54180   50.00000   50.00000   50.00000   90.00000   90.00000   90.00000
LATT -1
SFAC C  
C      1  0.4775600000000  0.4508490000000  0.5626620000000 1.0
C      1  0.5245950000000  0.5473480000000  0.4385040000000 1.0
C      1  0.5195310000000  0.5316880000000  0.4978260000000 1.0
C      1  0.4734140000000  0.4688420000000  0.5063200000000 1.0
C      1  0.4936300000000  0.5242600000000  0.4770760000000 1.0
C      1  0.5046550000000  0.4665870000000  0.5195500000000 1.0
C      1  0.4356430000000  0.5397130000000  0.4976920000000 1.0
C      1  0.5668310000000  0.4622590000000  0.5049810000000 1.0
C      1  0.5491550000000  0.5346320000000  0.5464960000000 1.0
C      1  0.4398950000000  0.4606240000000  0.4551770000000 1.0
C      1  0.4825200000000  0.5351730000000  0.5207130000000 1.0
C      1  0.5160820000000  0.4655170000000  0.4875360000000 1.0
C      1  0.4653810000000  0.5470270000000  0.4938260000000 1.0
C      1  0.5417080000000  0.4484660000000  0.5020300000000 1.0
C      1  0.5518710000000  0.5403850000000  0.5037550000000 1.0
C      1  0.4421260000000  0.4602030000000  0.5012010000000 1.0
C      1  0.5294540000000  0.5519090000000  0.5501360000000 1.0
C      1  0.4691020000000  0.4593560000000  0.4471420000000 1.0
C      1  0.4672870000000  0.4875980000000  0.5340640000000 1.0
C      1  0.5346120000000  0.5153370000000  0.4721100000000 1.0
C      1  0.4689910000000  0.4961900000000  0.4407640000000 1.0
C      1  0.5418370000000  0.5005120000000  0.5660370000000 1.0
C      1  0.5702460000000  0.4960510000000  0.5086560000000 1.0
C      1  0.4333490000000  0.5063330000000  0.4921500000000 1.0
C      1  0.5400960000000  0.4722240000000  0.5706670000000 1.0
C      1  0.4667390000000  0.5345760000000  0.4100610000000 1.0
C      1  0.4358070000000  0.5198750000000  0.5221580000000 1.0
C      1  0.5645040000000  0.4816290000000  0.4804560000000 1.0
C      1  0.5320140000000  0.4564550000000  0.5465820000000 1.0
C      1  0.4674840000000  0.5250150000000  0.4348700000000 1.0
C      1  0.4949750000000  0.4489520000000  0.4666230000000 1.0
C      1  0.5020860000000  0.5599260000000  0.5324900000000 1.0
C      1  0.5521160000000  0.5038800000000  0.5341010000000 1.0
C      1  0.4443670000000  0.4888820000000  0.4575470000000 1.0
C      1  0.4870520000000  0.5659180000000  0.4766280000000 1.0
C      1  0.5017230000000  0.4268450000000  0.5171380000000 1.0
C      1  0.5236650000000  0.4867470000000  0.5334400000000 1.0
C      1  0.4637620000000  0.5080130000000  0.4778990000000 1.0
C      1  0.5026860000000  0.5622570000000  0.5655790000000 1.0
C      1  0.5022080000000  0.4558760000000  0.4350280000000 1.0
C      1  0.5379150000000  0.4880610000000  0.4742680000000 1.0
C      1  0.4613530000000  0.5146220000000  0.5320460000000 1.0
C      1  0.4975750000000  0.5457950000000  0.4510560000000 1.0
C      1  0.4946690000000  0.4431500000000  0.5424690000000 1.0
C      1  0.5055680000000  0.5613440000000  0.5011840000000 1.0
C      1  0.4870530000000  0.4394320000000  0.4960430000000 1.0
C      1  0.4250920000000  0.4770550000000  0.4928350000000 1.0
C      1  0.5729530000000  0.5277470000000  0.5099260000000 1.0
C      1  0.4975820000000  0.4864500000000  0.4492350000000 1.0
C      1  0.5170790000000  0.5153460000000  0.5605040000000 1.0
C      1  0.5106620000000  0.5172580000000  0.5273930000000 1.0
C      1  0.4892670000000  0.4868500000000  0.4822170000000 1.0
C      1  0.5433540000000  0.5317360000000  0.4510180000000 1.0
C      1  0.4616450000000  0.4726300000000  0.5572480000000 1.0
C      1  0.5302980000000  0.4366020000000  0.5255470000000 1.0
C      1  0.4650520000000  0.5457210000000  0.4598500000000 1.0
C      1  0.5179090000000  0.4818080000000  0.4227790000000 1.0
C      1  0.5042160000000  0.5344650000000  0.5767110000000 1.0
END
