TITL C-2622954-8726-237 -0.00121654179165152 125000 -775.565565845657 0 0 129 (C1) n - 1
REM
REM in /nfs/bkarasulu/CARBON/AIRSS/Generating-Clusters/AIREBO/with-SteepDescent/Higher-Symm/SD-CG/HFTN-CG
REM
REM
REM
REM
REM
REM ./C.cell (b20cbc046b6831c77cfcea5457e17084)
REM
REM compiler GCC version 9.2.1 20190827 (Red Hat 9.2.1-1)
REM options -cpp -mtune=generic -march=x86-64 -g -O0 -fpre-include=/usr/include/finclude/math-vector-fortran.h
REM seed -585403379 -1071953402 -1031618047 -842888101 -1755087087 1025143331 1640150113 -1185664055 1494616503 136243900 481082389 1556883594 -175831810 -40851477 -355404854 1144079936 -509214451 -127061405 -1257761885 240931660 91141840 -1015789570 -386835186 899252422 97129212 -458613270 98548088 -1881281627 -11851135 951018755 -2096448938 -2058508654 278909895
REM
CELL 1.54180   50.00000   50.00000   50.00000   90.00000   90.00000   90.00000
LATT -1
SFAC C  
C      1  0.4209960000000  0.4792340000000  0.4670800000000 1.0
C      1  0.4724470000000  0.4333990000000  0.4802980000000 1.0
C      1  0.4828250000000  0.4739090000000  0.4310530000000 1.0
C      1  0.4266970000000  0.5100090000000  0.5317410000000 1.0
C      1  0.5825430000000  0.5081000000000  0.4806440000000 1.0
C      1  0.5856350000000  0.4867860000000  0.5327190000000 1.0
C      1  0.4697850000000  0.5685730000000  0.5073230000000 1.0
C      1  0.5365250000000  0.5849200000000  0.4847900000000 1.0
C      1  0.5282920000000  0.4302150000000  0.5198590000000 1.0
C      1  0.4885580000000  0.5235860000000  0.5687030000000 1.0
C      1  0.5156380000000  0.5396180000000  0.4165670000000 1.0
C      1  0.5207660000000  0.4696350000000  0.5786980000000 1.0
C      1  0.5774660000000  0.4783280000000  0.4781850000000 1.0
C      1  0.5302750000000  0.4270300000000  0.4892350000000 1.0
C      1  0.5134070000000  0.4718610000000  0.4261120000000 1.0
C      1  0.5953000000000  0.5152090000000  0.5363130000000 1.0
C      1  0.4082980000000  0.5081410000000  0.4746560000000 1.0
C      1  0.4198370000000  0.4792330000000  0.5322740000000 1.0
C      1  0.5363570000000  0.5735210000000  0.5130000000000 1.0
C      1  0.4653880000000  0.5812030000000  0.4803920000000 1.0
C      1  0.4684560000000  0.4324460000000  0.5122420000000 1.0
C      1  0.5182590000000  0.5294770000000  0.5751680000000 1.0
C      1  0.4868710000000  0.5343440000000  0.4269620000000 1.0
C      1  0.4912980000000  0.4659120000000  0.5860630000000 1.0
C      1  0.4704760000000  0.4920860000000  0.4093290000000 1.0
C      1  0.4014610000000  0.4646050000000  0.4875260000000 1.0
C      1  0.4889990000000  0.4086440000000  0.4716400000000 1.0
C      1  0.4750420000000  0.5100010000000  0.5934150000000 1.0
C      1  0.5267390000000  0.5167830000000  0.4045260000000 1.0
C      1  0.5343210000000  0.4891720000000  0.5984180000000 1.0
C      1  0.4025270000000  0.5240050000000  0.5180240000000 1.0
C      1  0.6059260000000  0.5204820000000  0.4892360000000 1.0
C      1  0.6031510000000  0.4662860000000  0.5184970000000 1.0
C      1  0.4894340000000  0.5842740000000  0.5243180000000 1.0
C      1  0.5134490000000  0.5978750000000  0.4767220000000 1.0
C      1  0.5078130000000  0.4086430000000  0.5302520000000 1.0
C      1  0.5249400000000  0.4901600000000  0.4103900000000 1.0
C      1  0.5985860000000  0.4622560000000  0.4940390000000 1.0
C      1  0.5127820000000  0.4044560000000  0.4781570000000 1.0
C      1  0.5298980000000  0.5157950000000  0.5950350000000 1.0
C      1  0.4734680000000  0.5164760000000  0.4054690000000 1.0
C      1  0.4797730000000  0.4846080000000  0.6016210000000 1.0
C      1  0.6118130000000  0.5245550000000  0.5157880000000 1.0
C      1  0.3940360000000  0.5212020000000  0.4924850000000 1.0
C      1  0.3992430000000  0.4673190000000  0.5123130000000 1.0
C      1  0.5135440000000  0.5888950000000  0.5273880000000 1.0
C      1  0.4871570000000  0.5955750000000  0.4708180000000 1.0
C      1  0.4830740000000  0.4091860000000  0.5257430000000 1.0
C      1  0.5157140000000  0.4219400000000  0.5784030000000 1.0
C      1  0.5607610000000  0.5122270000000  0.4335880000000 1.0
C      1  0.4186240000000  0.5665260000000  0.5096860000000 1.0
C      1  0.5123510000000  0.5862710000000  0.4234780000000 1.0
C      1  0.4891410000000  0.5729070000000  0.5685230000000 1.0
C      1  0.4860350000000  0.4258140000000  0.4220490000000 1.0
C      1  0.5685500000000  0.4905970000000  0.5779850000000 1.0
C      1  0.4225230000000  0.4872310000000  0.4197920000000 1.0
C      1  0.4238770000000  0.5125360000000  0.5809280000000 1.0
C      1  0.4243550000000  0.4247040000000  0.4834910000000 1.0
C      1  0.5757420000000  0.4181170000000  0.5176290000000 1.0
C      1  0.5822540000000  0.5762580000000  0.4790240000000 1.0
C      1  0.4896480000000  0.4272970000000  0.5716450000000 1.0
C      1  0.4255160000000  0.5148060000000  0.4204670000000 1.0
C      1  0.5851360000000  0.5727570000000  0.5064580000000 1.0
C      1  0.4848330000000  0.5832810000000  0.4230820000000 1.0
C      1  0.5162860000000  0.5756390000000  0.5649920000000 1.0
C      1  0.5119810000000  0.4235540000000  0.4308630000000 1.0
C      1  0.4183510000000  0.4854210000000  0.5815590000000 1.0
C      1  0.5720150000000  0.4877520000000  0.4310690000000 1.0
C      1  0.5760450000000  0.5169190000000  0.5791550000000 1.0
C      1  0.5781720000000  0.4189630000000  0.4900490000000 1.0
C      1  0.4210280000000  0.4339390000000  0.5092100000000 1.0
C      1  0.4189240000000  0.5731300000000  0.4828840000000 1.0
C      1  0.5437540000000  0.5147790000000  0.5103770000000 1.0
C      1  0.5293920000000  0.5422390000000  0.5243880000000 1.0
C      1  0.5187080000000  0.5101140000000  0.5329220000000 1.0
C      1  0.5449730000000  0.4765760000000  0.4880360000000 1.0
C      1  0.4471170000000  0.4819010000000  0.5121330000000 1.0
C      1  0.4386810000000  0.5150090000000  0.4664850000000 1.0
C      1  0.5230080000000  0.4546970000000  0.4740730000000 1.0
C      1  0.4864260000000  0.4582820000000  0.5098000000000 1.0
C      1  0.4671480000000  0.5220540000000  0.4780330000000 1.0
C      1  0.5189600000000  0.4938170000000  0.4809070000000 1.0
C      1  0.4871100000000  0.4720390000000  0.5404240000000 1.0
C      1  0.4902030000000  0.5172460000000  0.4534690000000 1.0
C      1  0.4603320000000  0.5099760000000  0.5260750000000 1.0
C      1  0.4636590000000  0.5349830000000  0.5070710000000 1.0
C      1  0.4867170000000  0.5036650000000  0.5428480000000 1.0
C      1  0.4500520000000  0.4862410000000  0.4806950000000 1.0
C      1  0.5544310000000  0.4855770000000  0.5182760000000 1.0
C      1  0.5576360000000  0.5217230000000  0.4833980000000 1.0
C      1  0.4922050000000  0.4611790000000  0.4787620000000 1.0
C      1  0.5144070000000  0.4568970000000  0.5275840000000 1.0
C      1  0.5135720000000  0.5362080000000  0.4952690000000 1.0
C      1  0.4783160000000  0.4863650000000  0.4617270000000 1.0
C      1  0.5252630000000  0.4809260000000  0.5476470000000 1.0
C      1  0.5199030000000  0.5227850000000  0.4648900000000 1.0
C      1  0.4333060000000  0.5254330000000  0.5579440000000 1.0
C      1  0.5553870000000  0.4291710000000  0.5333460000000 1.0
C      1  0.5282020000000  0.5630820000000  0.4268540000000 1.0
C      1  0.4268050000000  0.4681750000000  0.4401180000000 1.0
C      1  0.5587870000000  0.4761120000000  0.5506560000000 1.0
C      1  0.5475540000000  0.5303990000000  0.4549470000000 1.0
C      1  0.5564160000000  0.5760720000000  0.4672350000000 1.0
C      1  0.4447430000000  0.5577510000000  0.5238010000000 1.0
C      1  0.4452170000000  0.4329010000000  0.4665950000000 1.0
C      1  0.5346280000000  0.4423730000000  0.5744730000000 1.0
C      1  0.4690470000000  0.4470030000000  0.4288970000000 1.0
C      1  0.4735920000000  0.5500690000000  0.5636530000000 1.0
C      1  0.5803900000000  0.5305430000000  0.5547870000000 1.0
C      1  0.4448600000000  0.4495690000000  0.5226610000000 1.0
C      1  0.4711070000000  0.5599990000000  0.4305070000000 1.0
C      1  0.5710070000000  0.4679370000000  0.4505580000000 1.0
C      1  0.4253290000000  0.4687740000000  0.5604300000000 1.0
C      1  0.4349950000000  0.5310810000000  0.4414340000000 1.0
C      1  0.4422030000000  0.5726220000000  0.4667260000000 1.0
C      1  0.5644040000000  0.5656570000000  0.5240450000000 1.0
C      1  0.5573410000000  0.4296770000000  0.4745170000000 1.0
C      1  0.4742220000000  0.4544870000000  0.5622640000000 1.0
C      1  0.5257850000000  0.4492520000000  0.4417130000000 1.0
C      1  0.5320460000000  0.5497670000000  0.5574410000000 1.0
C      1  0.5551330000000  0.4456670000000  0.4520290000000 1.0
C      1  0.4460050000000  0.4505550000000  0.5535440000000 1.0
C      1  0.4465250000000  0.5568030000000  0.4433770000000 1.0
C      1  0.4484650000000  0.5477860000000  0.5524010000000 1.0
C      1  0.5557140000000  0.4450530000000  0.5561740000000 1.0
C      1  0.5471580000000  0.5589570000000  0.4469880000000 1.0
C      1  0.5620700000000  0.5497830000000  0.5461790000000 1.0
C      1  0.4443010000000  0.4460830000000  0.4419120000000 1.0
C      1  0.4939220000000  0.5123320000000  0.4927770000000 1.0
END
