TITL C-2622957-9142-355 -0.000648555065355284 125000 -936.375109912802 0 0 178 (C1) n - 1
REM
REM in /nfs/bkarasulu/CARBON/AIRSS/Generating-Clusters/AIREBO/with-SteepDescent/Higher-Symm/SD-CG/HFTN-CG
REM
REM
REM
REM
REM
REM ./C.cell (b20cbc046b6831c77cfcea5457e17084)
REM
REM compiler GCC version 9.2.1 20190827 (Red Hat 9.2.1-1)
REM options -cpp -mtune=generic -march=x86-64 -g -O0 -fpre-include=/usr/include/finclude/math-vector-fortran.h
REM seed 1304617071 -1990357949 -1486418762 -1803701252 -899921851 2102367934 2105505306 574750095 -1379731724 -962837422 960829694 -1144046393 1751130973 2002345484 -912513334 1983359991 -695542967 1693479557 1142762356 1841618903 184206693 1177883683 1445438779 358327820 166600791 278983363 -556991027 -930564135 801101705 -212498612 -514635333 -218384722 2054434331
REM
CELL 1.54180   50.00000   50.00000   50.00000   90.00000   90.00000   90.00000
LATT -1
SFAC C  
C      1  0.5323540000000  0.5154730000000  0.5856950000000 1.0
C      1  0.5341650000000  0.3997140000000  0.5375140000000 1.0
C      1  0.5351830000000  0.4374210000000  0.4388260000000 1.0
C      1  0.5251180000000  0.5438190000000  0.4196330000000 1.0
C      1  0.5242880000000  0.5978290000000  0.5286060000000 1.0
C      1  0.4737450000000  0.5035550000000  0.5915530000000 1.0
C      1  0.4822980000000  0.3928530000000  0.5323860000000 1.0
C      1  0.4824470000000  0.4397800000000  0.4286900000000 1.0
C      1  0.4913630000000  0.5482710000000  0.4193560000000 1.0
C      1  0.4765920000000  0.5880800000000  0.5246440000000 1.0
C      1  0.5757780000000  0.5687860000000  0.5421100000000 1.0
C      1  0.5602890000000  0.4818160000000  0.5748910000000 1.0
C      1  0.5761790000000  0.4095920000000  0.5003850000000 1.0
C      1  0.5781420000000  0.4692300000000  0.4186670000000 1.0
C      1  0.5661990000000  0.5599160000000  0.4522420000000 1.0
C      1  0.4213560000000  0.5620850000000  0.5545830000000 1.0
C      1  0.4283510000000  0.4695460000000  0.5724850000000 1.0
C      1  0.4247740000000  0.4248310000000  0.4982690000000 1.0
C      1  0.4259020000000  0.4810560000000  0.4245040000000 1.0
C      1  0.4284880000000  0.5651760000000  0.4544640000000 1.0
C      1  0.5834310000000  0.5382410000000  0.4386740000000 1.0
C      1  0.5927090000000  0.5681520000000  0.5173280000000 1.0
C      1  0.5845530000000  0.5041320000000  0.5670940000000 1.0
C      1  0.5876730000000  0.4254880000000  0.5248100000000 1.0
C      1  0.5877500000000  0.4566760000000  0.4487740000000 1.0
C      1  0.4095840000000  0.5453200000000  0.4448970000000 1.0
C      1  0.4044430000000  0.5644350000000  0.5297000000000 1.0
C      1  0.4210280000000  0.5011460000000  0.5668440000000 1.0
C      1  0.4017570000000  0.4321240000000  0.5181340000000 1.0
C      1  0.4025950000000  0.4676260000000  0.4413680000000 1.0
C      1  0.6036090000000  0.4722270000000  0.4956080000000 1.0
C      1  0.5968000000000  0.4954920000000  0.4729650000000 1.0
C      1  0.5993380000000  0.5262750000000  0.4872040000000 1.0
C      1  0.6013100000000  0.5214510000000  0.5206960000000 1.0
C      1  0.5961770000000  0.4886470000000  0.5244620000000 1.0
C      1  0.3948620000000  0.4767700000000  0.4960320000000 1.0
C      1  0.4030560000000  0.5036650000000  0.4790340000000 1.0
C      1  0.3881470000000  0.5304770000000  0.4937190000000 1.0
C      1  0.4010560000000  0.5135810000000  0.5175330000000 1.0
C      1  0.3878300000000  0.4830100000000  0.5271490000000 1.0
C      1  0.4761560000000  0.4263860000000  0.5652770000000 1.0
C      1  0.4705000000000  0.4051440000000  0.4555930000000 1.0
C      1  0.4738790000000  0.5082890000000  0.3973340000000 1.0
C      1  0.4739520000000  0.5958240000000  0.4791280000000 1.0
C      1  0.4693310000000  0.5443860000000  0.5915230000000 1.0
C      1  0.5318640000000  0.4276470000000  0.5747510000000 1.0
C      1  0.5336250000000  0.4045660000000  0.4614650000000 1.0
C      1  0.5371740000000  0.5089950000000  0.3907880000000 1.0
C      1  0.5328950000000  0.6053830000000  0.4815420000000 1.0
C      1  0.5317480000000  0.5540070000000  0.5960660000000 1.0
C      1  0.5191510000000  0.5000990000000  0.4629130000000 1.0
C      1  0.5137890000000  0.5330870000000  0.4883770000000 1.0
C      1  0.5102750000000  0.5169780000000  0.5246080000000 1.0
C      1  0.5221080000000  0.4796110000000  0.5231560000000 1.0
C      1  0.5118790000000  0.4699640000000  0.4875680000000 1.0
C      1  0.4795280000000  0.5038750000000  0.4640440000000 1.0
C      1  0.4836880000000  0.5378870000000  0.4948510000000 1.0
C      1  0.4780150000000  0.5107290000000  0.5243660000000 1.0
C      1  0.4909570000000  0.4826860000000  0.5316560000000 1.0
C      1  0.4811260000000  0.4776710000000  0.4822880000000 1.0
C      1  0.5713860000000  0.5349280000000  0.5117020000000 1.0
C      1  0.5659280000000  0.5046290000000  0.5261440000000 1.0
C      1  0.5745200000000  0.4598770000000  0.5081920000000 1.0
C      1  0.5675980000000  0.4790730000000  0.4809600000000 1.0
C      1  0.5687220000000  0.5234180000000  0.4726330000000 1.0
C      1  0.4279260000000  0.5262180000000  0.5008500000000 1.0
C      1  0.4386800000000  0.5058610000000  0.5250500000000 1.0
C      1  0.4246650000000  0.4783450000000  0.5124250000000 1.0
C      1  0.4298260000000  0.4823940000000  0.4790360000000 1.0
C      1  0.4413730000000  0.5117500000000  0.4731040000000 1.0
C      1  0.5141480000000  0.4627790000000  0.3964090000000 1.0
C      1  0.5162970000000  0.5900500000000  0.4336270000000 1.0
C      1  0.5136140000000  0.5873540000000  0.5589220000000 1.0
C      1  0.5137810000000  0.4668060000000  0.6097100000000 1.0
C      1  0.5161260000000  0.3958960000000  0.5114480000000 1.0
C      1  0.4829040000000  0.4594740000000  0.4065970000000 1.0
C      1  0.4886660000000  0.5763140000000  0.4330600000000 1.0
C      1  0.4822470000000  0.5770360000000  0.5558200000000 1.0
C      1  0.4881050000000  0.4733080000000  0.5975620000000 1.0
C      1  0.4870410000000  0.4075190000000  0.5021140000000 1.0
C      1  0.5266400000000  0.4875930000000  0.5745340000000 1.0
C      1  0.5201190000000  0.4323410000000  0.5127910000000 1.0
C      1  0.5191300000000  0.4630520000000  0.4300700000000 1.0
C      1  0.5349900000000  0.5487590000000  0.4584950000000 1.0
C      1  0.5205210000000  0.5640420000000  0.5279480000000 1.0
C      1  0.4558400000000  0.4835130000000  0.5581490000000 1.0
C      1  0.4521390000000  0.4454900000000  0.5006820000000 1.0
C      1  0.4559200000000  0.4787510000000  0.4403110000000 1.0
C      1  0.4573300000000  0.5500050000000  0.4639430000000 1.0
C      1  0.4503160000000  0.5510760000000  0.5405780000000 1.0
C      1  0.4833500000000  0.5435670000000  0.5618170000000 1.0
C      1  0.4896320000000  0.4547520000000  0.5692920000000 1.0
C      1  0.4825470000000  0.4292650000000  0.4763150000000 1.0
C      1  0.4910370000000  0.4904170000000  0.4137060000000 1.0
C      1  0.4924910000000  0.5774430000000  0.4654790000000 1.0
C      1  0.5146390000000  0.5475770000000  0.5706880000000 1.0
C      1  0.5196090000000  0.4505520000000  0.5599180000000 1.0
C      1  0.5147450000000  0.4260700000000  0.4710200000000 1.0
C      1  0.5204130000000  0.5006390000000  0.4164680000000 1.0
C      1  0.5189020000000  0.5776750000000  0.4807570000000 1.0
C      1  0.5639440000000  0.5105250000000  0.4415340000000 1.0
C      1  0.5612300000000  0.5666140000000  0.5045840000000 1.0
C      1  0.5573350000000  0.5205180000000  0.5549550000000 1.0
C      1  0.5621630000000  0.4449200000000  0.5361270000000 1.0
C      1  0.5612930000000  0.4488770000000  0.4667910000000 1.0
C      1  0.4487990000000  0.5120090000000  0.4398850000000 1.0
C      1  0.4432260000000  0.5561050000000  0.4942880000000 1.0
C      1  0.4449030000000  0.5215400000000  0.5537950000000 1.0
C      1  0.4425970000000  0.4613380000000  0.5360280000000 1.0
C      1  0.4436760000000  0.4530490000000  0.4686310000000 1.0
C      1  0.5301360000000  0.5567020000000  0.5002400000000 1.0
C      1  0.5241080000000  0.5211540000000  0.5531950000000 1.0
C      1  0.5314800000000  0.4525930000000  0.5316990000000 1.0
C      1  0.5289490000000  0.4543530000000  0.4676610000000 1.0
C      1  0.5323510000000  0.5191790000000  0.4419310000000 1.0
C      1  0.4687850000000  0.5574170000000  0.5166850000000 1.0
C      1  0.4767130000000  0.5103600000000  0.5583540000000 1.0
C      1  0.4729660000000  0.4596170000000  0.5208510000000 1.0
C      1  0.4753860000000  0.4561930000000  0.4567270000000 1.0
C      1  0.4766770000000  0.5309160000000  0.4446570000000 1.0
C      1  0.4573920000000  0.4673130000000  0.5891110000000 1.0
C      1  0.4561320000000  0.4119270000000  0.5007840000000 1.0
C      1  0.4524520000000  0.4700580000000  0.4063260000000 1.0
C      1  0.4577780000000  0.5802510000000  0.4460300000000 1.0
C      1  0.4508460000000  0.5741410000000  0.5664910000000 1.0
C      1  0.5384750000000  0.4625910000000  0.5930140000000 1.0
C      1  0.5421880000000  0.4114420000000  0.4998900000000 1.0
C      1  0.5453920000000  0.4665300000000  0.4090090000000 1.0
C      1  0.5394540000000  0.5804520000000  0.4467470000000 1.0
C      1  0.5432450000000  0.5715900000000  0.5516540000000 1.0
C      1  0.4444500000000  0.4186030000000  0.4704680000000 1.0
C      1  0.4455030000000  0.5033310000000  0.4071640000000 1.0
C      1  0.4448400000000  0.5853970000000  0.4770580000000 1.0
C      1  0.4395210000000  0.5443740000000  0.5784100000000 1.0
C      1  0.4512330000000  0.4447340000000  0.5644440000000 1.0
C      1  0.5602040000000  0.4186560000000  0.4731810000000 1.0
C      1  0.5599590000000  0.4969900000000  0.4130140000000 1.0
C      1  0.5579750000000  0.5832890000000  0.4751250000000 1.0
C      1  0.5544750000000  0.5501260000000  0.5714520000000 1.0
C      1  0.5583710000000  0.4483110000000  0.5694260000000 1.0
C      1  0.4193110000000  0.5749660000000  0.5094000000000 1.0
C      1  0.4419310000000  0.5040320000000  0.5927600000000 1.0
C      1  0.4231380000000  0.4334830000000  0.5372300000000 1.0
C      1  0.4220790000000  0.4467020000000  0.4443580000000 1.0
C      1  0.4219460000000  0.5287700000000  0.4274710000000 1.0
C      1  0.5547870000000  0.5953030000000  0.5216630000000 1.0
C      1  0.5637630000000  0.5210930000000  0.5883560000000 1.0
C      1  0.5587300000000  0.4110830000000  0.5362310000000 1.0
C      1  0.5641210000000  0.4405260000000  0.4297610000000 1.0
C      1  0.5574330000000  0.5420020000000  0.4177530000000 1.0
C      1  0.5140750000000  0.5302210000000  0.6067110000000 1.0
C      1  0.5197830000000  0.4048930000000  0.5612570000000 1.0
C      1  0.5178550000000  0.4095920000000  0.4348420000000 1.0
C      1  0.5159220000000  0.5317680000000  0.3918830000000 1.0
C      1  0.5122650000000  0.6097660000000  0.5039950000000 1.0
C      1  0.4869490000000  0.5270360000000  0.6082330000000 1.0
C      1  0.4909850000000  0.4049940000000  0.5568030000000 1.0
C      1  0.4895740000000  0.4133730000000  0.4344580000000 1.0
C      1  0.4864420000000  0.5323030000000  0.3919200000000 1.0
C      1  0.4846340000000  0.6040860000000  0.5035530000000 1.0
C      1  0.3871780000000  0.4708580000000  0.4634360000000 1.0
C      1  0.3932960000000  0.5317380000000  0.4623220000000 1.0
C      1  0.3836570000000  0.5494160000000  0.5203480000000 1.0
C      1  0.3971570000000  0.5041840000000  0.5499700000000 1.0
C      1  0.3818880000000  0.4501540000000  0.5225940000000 1.0
C      1  0.6097980000000  0.4580370000000  0.4686110000000 1.0
C      1  0.6028320000000  0.5140990000000  0.4493880000000 1.0
C      1  0.6100260000000  0.5550410000000  0.5009710000000 1.0
C      1  0.6061560000000  0.5159740000000  0.5516490000000 1.0
C      1  0.6003140000000  0.4555610000000  0.5311700000000 1.0
C      1  0.5004450000000  0.4855410000000  0.5616360000000 1.0
C      1  0.4947890000000  0.4466470000000  0.5028530000000 1.0
C      1  0.4968240000000  0.4809310000000  0.4458470000000 1.0
C      1  0.5024940000000  0.5461720000000  0.4606840000000 1.0
C      1  0.4971130000000  0.5459210000000  0.5315750000000 1.0
C      1  0.4663830000000  0.5126030000000  0.4941620000000 1.0
C      1  0.5543310000000  0.5048520000000  0.4958040000000 1.0
C      1  0.5218840000000  0.5011440000000  0.4968100000000 1.0
END
