TITL C-2622964-2985-340 -0.000950384877966696 125000 -684.051824778897 0 0 125 (C1) n - 1
REM
REM in /nfs/bkarasulu/CARBON/AIRSS/Generating-Clusters/AIREBO/with-SteepDescent/Higher-Symm/SD-CG/HFTN-CG
REM
REM
REM
REM
REM
REM ./C.cell (b20cbc046b6831c77cfcea5457e17084)
REM
REM compiler GCC version 9.2.1 20190827 (Red Hat 9.2.1-1)
REM options -cpp -mtune=generic -march=x86-64 -g -O0 -fpre-include=/usr/include/finclude/math-vector-fortran.h
REM seed 1495401223 -1328827801 -1510205051 1720638155 845877082 -1713818139 -1293888879 1681756890 157367437 523065024 -1474643406 -1346896229 -1659494434 -233061578 597775779 -578802659 1960380853 1806089553 -2127041891 329626354 -1080091404 1655602962 1746974660 1105679358 -2123799885 -1974700050 1984058349 -1086909898 252591509 -1280779851 -564983259 708887107 482189468
REM
CELL 1.54180   50.00000   50.00000   50.00000   90.00000   90.00000   90.00000
LATT -1
SFAC C  
C      1  0.5812490000000  0.5564720000000  0.4915280000000 1.0
C      1  0.5734030000000  0.4336710000000  0.4748790000000 1.0
C      1  0.5202290000000  0.4749420000000  0.5722130000000 1.0
C      1  0.5203420000000  0.5284210000000  0.5800670000000 1.0
C      1  0.5100100000000  0.4763250000000  0.3914990000000 1.0
C      1  0.5235700000000  0.5058120000000  0.4017320000000 1.0
C      1  0.5673230000000  0.4429600000000  0.5334990000000 1.0
C      1  0.5568520000000  0.5586870000000  0.5340440000000 1.0
C      1  0.4672830000000  0.4800410000000  0.4741550000000 1.0
C      1  0.4805270000000  0.5343770000000  0.4734820000000 1.0
C      1  0.4205180000000  0.5652480000000  0.5026290000000 1.0
C      1  0.4374810000000  0.4298020000000  0.4909710000000 1.0
C      1  0.5676280000000  0.5352730000000  0.5118630000000 1.0
C      1  0.5671230000000  0.4786480000000  0.5003810000000 1.0
C      1  0.4808040000000  0.5807700000000  0.5328140000000 1.0
C      1  0.4912380000000  0.4163390000000  0.5348640000000 1.0
C      1  0.5075650000000  0.5714750000000  0.4272510000000 1.0
C      1  0.5067530000000  0.4300590000000  0.4434290000000 1.0
C      1  0.5367780000000  0.5757570000000  0.4182860000000 1.0
C      1  0.5464650000000  0.4244100000000  0.4737370000000 1.0
C      1  0.4874550000000  0.4066460000000  0.4815250000000 1.0
C      1  0.4875930000000  0.5863000000000  0.4697730000000 1.0
C      1  0.4960070000000  0.4792930000000  0.4818580000000 1.0
C      1  0.5053720000000  0.5285540000000  0.4969860000000 1.0
C      1  0.5081370000000  0.5622000000000  0.5408600000000 1.0
C      1  0.5208770000000  0.4312580000000  0.5422960000000 1.0
C      1  0.4342850000000  0.4434640000000  0.5368760000000 1.0
C      1  0.4309790000000  0.5648020000000  0.5574760000000 1.0
C      1  0.5097780000000  0.4451970000000  0.5683730000000 1.0
C      1  0.5070590000000  0.5548570000000  0.5701450000000 1.0
C      1  0.4331750000000  0.4504450000000  0.5094030000000 1.0
C      1  0.4191960000000  0.5500610000000  0.5303130000000 1.0
C      1  0.4815380000000  0.5606970000000  0.5811100000000 1.0
C      1  0.4831070000000  0.4382110000000  0.5730250000000 1.0
C      1  0.4208410000000  0.5148860000000  0.5763840000000 1.0
C      1  0.4189340000000  0.4810840000000  0.5732330000000 1.0
C      1  0.4410320000000  0.5686960000000  0.4885580000000 1.0
C      1  0.4634410000000  0.4217300000000  0.4882670000000 1.0
C      1  0.5236380000000  0.5437540000000  0.4726690000000 1.0
C      1  0.5163110000000  0.4572740000000  0.4934560000000 1.0
C      1  0.5801280000000  0.4740090000000  0.5281370000000 1.0
C      1  0.5849840000000  0.5135160000000  0.5314000000000 1.0
C      1  0.5335340000000  0.5732120000000  0.5279680000000 1.0
C      1  0.5463770000000  0.4258720000000  0.5261250000000 1.0
C      1  0.4695780000000  0.4627230000000  0.5202960000000 1.0
C      1  0.4660090000000  0.5374300000000  0.5294490000000 1.0
C      1  0.5179060000000  0.4727010000000  0.4569640000000 1.0
C      1  0.5022280000000  0.5475990000000  0.4508670000000 1.0
C      1  0.5358960000000  0.4743320000000  0.5104520000000 1.0
C      1  0.5340710000000  0.5308050000000  0.5150920000000 1.0
C      1  0.4470180000000  0.4540780000000  0.4399380000000 1.0
C      1  0.4600400000000  0.5773360000000  0.4322220000000 1.0
C      1  0.4621020000000  0.5331560000000  0.5600510000000 1.0
C      1  0.4625330000000  0.4659200000000  0.5532570000000 1.0
C      1  0.5514350000000  0.4758920000000  0.5801760000000 1.0
C      1  0.5519770000000  0.5275490000000  0.5829830000000 1.0
C      1  0.4911800000000  0.5441190000000  0.5211730000000 1.0
C      1  0.5017190000000  0.4553280000000  0.5305780000000 1.0
C      1  0.5508830000000  0.5551950000000  0.4134660000000 1.0
C      1  0.5337800000000  0.4362910000000  0.4498230000000 1.0
C      1  0.5374960000000  0.4675500000000  0.5437620000000 1.0
C      1  0.5323530000000  0.5305550000000  0.5483300000000 1.0
C      1  0.5449710000000  0.4618690000000  0.4303140000000 1.0
C      1  0.5436000000000  0.5283840000000  0.4283770000000 1.0
C      1  0.4201070000000  0.4585230000000  0.5567400000000 1.0
C      1  0.4156230000000  0.5359560000000  0.5606890000000 1.0
C      1  0.5226220000000  0.5904660000000  0.5087330000000 1.0
C      1  0.5366320000000  0.4171040000000  0.5001440000000 1.0
C      1  0.4674580000000  0.4576220000000  0.5874320000000 1.0
C      1  0.4676700000000  0.5363580000000  0.5928920000000 1.0
C      1  0.4712190000000  0.4775230000000  0.4417260000000 1.0
C      1  0.4692420000000  0.5270350000000  0.4422450000000 1.0
C      1  0.5071300000000  0.4119080000000  0.5050370000000 1.0
C      1  0.4920270000000  0.5860000000000  0.5027320000000 1.0
C      1  0.5639940000000  0.4558090000000  0.5615440000000 1.0
C      1  0.5585920000000  0.5485030000000  0.5618910000000 1.0
C      1  0.4621300000000  0.5670090000000  0.5559110000000 1.0
C      1  0.4651990000000  0.4327590000000  0.5461810000000 1.0
C      1  0.4217890000000  0.5469460000000  0.4351120000000 1.0
C      1  0.3895910000000  0.5249120000000  0.4645970000000 1.0
C      1  0.4417670000000  0.5341590000000  0.5160820000000 1.0
C      1  0.4489470000000  0.4768130000000  0.5002220000000 1.0
C      1  0.5517860000000  0.4743080000000  0.4603510000000 1.0
C      1  0.5498580000000  0.5395550000000  0.4586410000000 1.0
C      1  0.4640460000000  0.4762550000000  0.6091720000000 1.0
C      1  0.4752980000000  0.5075940000000  0.6005240000000 1.0
C      1  0.4696280000000  0.5644000000000  0.4827920000000 1.0
C      1  0.4884800000000  0.4402790000000  0.5031040000000 1.0
C      1  0.4848540000000  0.5858290000000  0.4425630000000 1.0
C      1  0.4959160000000  0.4070390000000  0.4550430000000 1.0
C      1  0.4926950000000  0.4523470000000  0.4338980000000 1.0
C      1  0.4971220000000  0.5473830000000  0.4056860000000 1.0
C      1  0.5098090000000  0.5252280000000  0.4263010000000 1.0
C      1  0.5139370000000  0.4738110000000  0.4232120000000 1.0
C      1  0.4495270000000  0.5512650000000  0.4328770000000 1.0
C      1  0.4290330000000  0.4363870000000  0.4360600000000 1.0
C      1  0.5730370000000  0.5570290000000  0.4676910000000 1.0
C      1  0.5740220000000  0.4604920000000  0.4766470000000 1.0
C      1  0.5760740000000  0.5060510000000  0.4342220000000 1.0
C      1  0.4322900000000  0.5036150000000  0.5397780000000 1.0
C      1  0.5556730000000  0.5070820000000  0.4599040000000 1.0
C      1  0.4275240000000  0.4871470000000  0.4165440000000 1.0
C      1  0.6340090000000  0.4919560000000  0.5228230000000 1.0
C      1  0.4467040000000  0.4951940000000  0.5868840000000 1.0
C      1  0.5650430000000  0.4960140000000  0.5484560000000 1.0
C      1  0.4374360000000  0.5043770000000  0.5078200000000 1.0
C      1  0.5047950000000  0.4870920000000  0.5320460000000 1.0
C      1  0.4913740000000  0.5026620000000  0.3912670000000 1.0
C      1  0.5633920000000  0.5027180000000  0.5788810000000 1.0
C      1  0.4136410000000  0.5266840000000  0.4529050000000 1.0
C      1  0.6078300000000  0.4933090000000  0.5281640000000 1.0
C      1  0.4672540000000  0.5081880000000  0.3997560000000 1.0
C      1  0.4937800000000  0.5026120000000  0.4459880000000 1.0
C      1  0.5697450000000  0.5088740000000  0.4904110000000 1.0
C      1  0.4514480000000  0.5016660000000  0.4282250000000 1.0
C      1  0.4562360000000  0.5108480000000  0.4805110000000 1.0
C      1  0.4991750000000  0.4985770000000  0.5046490000000 1.0
C      1  0.4354040000000  0.5097090000000  0.4571040000000 1.0
C      1  0.5478930000000  0.4951460000000  0.4225680000000 1.0
C      1  0.5219920000000  0.5045610000000  0.4650120000000 1.0
C      1  0.5340190000000  0.5002130000000  0.5406560000000 1.0
C      1  0.5040380000000  0.5025670000000  0.5836940000000 1.0
C      1  0.5372940000000  0.5045560000000  0.4951870000000 1.0
C      1  0.4912920000000  0.4980320000000  0.5560030000000 1.0
C      1  0.4600750000000  0.4994050000000  0.5563760000000 1.0
END
