TITL C-2622966-9038-132 0.000341324113366417 125000 -591.141768395656 0 0 105 (C1) n - 1
REM
REM in /nfs/bkarasulu/CARBON/AIRSS/Generating-Clusters/AIREBO/with-SteepDescent/Higher-Symm/SD-CG/HFTN-CG
REM
REM
REM
REM
REM
REM ./C.cell (b20cbc046b6831c77cfcea5457e17084)
REM
REM compiler GCC version 9.2.1 20190827 (Red Hat 9.2.1-1)
REM options -cpp -mtune=generic -march=x86-64 -g -O0 -fpre-include=/usr/include/finclude/math-vector-fortran.h
REM seed 564085633 -207865572 1799627852 -2017976074 -162617951 2055913358 1291029477 -1060012379 125244522 1790637679 -976906034 1958025736 -1281462541 1969765987 83975758 1222046174 -76774137 685372560 505723533 -1552259621 176389888 -2087285238 -1822788914 -666595641 -36854458 281673127 1613277283 814278798 -280344819 1174119292 556464179 256308831 -1979130701
REM
CELL 1.54180   50.00000   50.00000   50.00000   90.00000   90.00000   90.00000
LATT -1
SFAC C  
C      1  0.5419550000000  0.5110120000000  0.4951260000000 1.0
C      1  0.5186600000000  0.4632810000000  0.4919600000000 1.0
C      1  0.4671930000000  0.4466660000000  0.4941430000000 1.0
C      1  0.4504380000000  0.5036500000000  0.4875630000000 1.0
C      1  0.5048130000000  0.5418010000000  0.4926600000000 1.0
C      1  0.5408460000000  0.4979880000000  0.4110330000000 1.0
C      1  0.4948370000000  0.4633780000000  0.4199280000000 1.0
C      1  0.4826690000000  0.4925000000000  0.4186490000000 1.0
C      1  0.4888100000000  0.5260050000000  0.4182190000000 1.0
C      1  0.5232870000000  0.5265320000000  0.4139680000000 1.0
C      1  0.5059820000000  0.4134080000000  0.4699070000000 1.0
C      1  0.4206020000000  0.4475620000000  0.4556830000000 1.0
C      1  0.4399620000000  0.5602680000000  0.4715900000000 1.0
C      1  0.5427450000000  0.5786860000000  0.4676480000000 1.0
C      1  0.5836060000000  0.4889180000000  0.4697770000000 1.0
C      1  0.4334640000000  0.4477790000000  0.5251430000000 1.0
C      1  0.4421270000000  0.5429030000000  0.5214690000000 1.0
C      1  0.5286000000000  0.5788680000000  0.5218600000000 1.0
C      1  0.5768730000000  0.4991220000000  0.5252570000000 1.0
C      1  0.5272290000000  0.4082550000000  0.5141530000000 1.0
C      1  0.4554820000000  0.5657500000000  0.5627320000000 1.0
C      1  0.5392170000000  0.5577750000000  0.5688390000000 1.0
C      1  0.5685430000000  0.4792580000000  0.5673990000000 1.0
C      1  0.5010590000000  0.4268180000000  0.5640370000000 1.0
C      1  0.4377270000000  0.4815670000000  0.5649770000000 1.0
C      1  0.4471130000000  0.5361650000000  0.5545620000000 1.0
C      1  0.5150940000000  0.5740100000000  0.5517570000000 1.0
C      1  0.5643250000000  0.5106520000000  0.5549440000000 1.0
C      1  0.5281970000000  0.4423430000000  0.5581040000000 1.0
C      1  0.4507030000000  0.4535610000000  0.5507040000000 1.0
C      1  0.4823080000000  0.5726190000000  0.5494450000000 1.0
C      1  0.5601120000000  0.5402860000000  0.5523080000000 1.0
C      1  0.5527580000000  0.4566930000000  0.5519300000000 1.0
C      1  0.4786130000000  0.4364550000000  0.5434200000000 1.0
C      1  0.4362550000000  0.5060120000000  0.5483290000000 1.0
C      1  0.4519200000000  0.5672940000000  0.5029440000000 1.0
C      1  0.5488700000000  0.5650290000000  0.4982850000000 1.0
C      1  0.5705680000000  0.4778390000000  0.4992040000000 1.0
C      1  0.5025520000000  0.4095970000000  0.5015550000000 1.0
C      1  0.4205550000000  0.4693450000000  0.5133700000000 1.0
C      1  0.4807460000000  0.4926980000000  0.5325520000000 1.0
C      1  0.4914110000000  0.5206500000000  0.5384120000000 1.0
C      1  0.5149420000000  0.5286890000000  0.5186210000000 1.0
C      1  0.5269380000000  0.4968780000000  0.5175120000000 1.0
C      1  0.5019370000000  0.4780960000000  0.5157000000000 1.0
C      1  0.5543120000000  0.5326900000000  0.4266970000000 1.0
C      1  0.5463420000000  0.4722490000000  0.4257780000000 1.0
C      1  0.4785270000000  0.4399650000000  0.4243030000000 1.0
C      1  0.4322900000000  0.4910230000000  0.4435340000000 1.0
C      1  0.4876970000000  0.5557390000000  0.4348240000000 1.0
C      1  0.5484280000000  0.4823520000000  0.5318300000000 1.0
C      1  0.4889080000000  0.4497390000000  0.5149110000000 1.0
C      1  0.4531080000000  0.4978500000000  0.5203700000000 1.0
C      1  0.4751390000000  0.5472630000000  0.5283720000000 1.0
C      1  0.5352430000000  0.5467150000000  0.5307110000000 1.0
C      1  0.5021780000000  0.4596420000000  0.5691710000000 1.0
C      1  0.4760390000000  0.4740240000000  0.5567660000000 1.0
C      1  0.4770820000000  0.5324210000000  0.5654310000000 1.0
C      1  0.5089990000000  0.5441890000000  0.5660670000000 1.0
C      1  0.5499090000000  0.4998100000000  0.5828700000000 1.0
C      1  0.4857750000000  0.4298720000000  0.4519390000000 1.0
C      1  0.4176010000000  0.4752660000000  0.4617940000000 1.0
C      1  0.4672060000000  0.5600520000000  0.4561360000000 1.0
C      1  0.5540700000000  0.5527400000000  0.4504530000000 1.0
C      1  0.5630850000000  0.4741240000000  0.4483200000000 1.0
C      1  0.5034240000000  0.5898550000000  0.5058070000000 1.0
C      1  0.5847260000000  0.5278890000000  0.5114530000000 1.0
C      1  0.5480490000000  0.4279600000000  0.5079260000000 1.0
C      1  0.4452440000000  0.4251760000000  0.5059510000000 1.0
C      1  0.4281870000000  0.5232710000000  0.5025500000000 1.0
C      1  0.4590590000000  0.4764080000000  0.4370940000000 1.0
C      1  0.4641880000000  0.5238900000000  0.4393400000000 1.0
C      1  0.5167310000000  0.5416650000000  0.4414010000000 1.0
C      1  0.5416920000000  0.5075700000000  0.4436440000000 1.0
C      1  0.5206230000000  0.4606670000000  0.4366880000000 1.0
C      1  0.4503710000000  0.4447030000000  0.4409950000000 1.0
C      1  0.4368060000000  0.5180290000000  0.4496690000000 1.0
C      1  0.5148580000000  0.5727090000000  0.4487360000000 1.0
C      1  0.5710400000000  0.5157790000000  0.4524510000000 1.0
C      1  0.5252630000000  0.4335290000000  0.4502930000000 1.0
C      1  0.5244540000000  0.5008330000000  0.5923010000000 1.0
C      1  0.5082630000000  0.4773360000000  0.5945480000000 1.0
C      1  0.4790760000000  0.4858820000000  0.5879200000000 1.0
C      1  0.4786680000000  0.5139300000000  0.5913980000000 1.0
C      1  0.5071830000000  0.5233350000000  0.5898740000000 1.0
C      1  0.4781790000000  0.5802960000000  0.5179060000000 1.0
C      1  0.5684620000000  0.5517450000000  0.5219130000000 1.0
C      1  0.5616470000000  0.4522790000000  0.5197890000000 1.0
C      1  0.4760460000000  0.4153590000000  0.5169550000000 1.0
C      1  0.4172190000000  0.5003990000000  0.5224860000000 1.0
C      1  0.5466290000000  0.4756390000000  0.4770680000000 1.0
C      1  0.4790050000000  0.4525040000000  0.4676260000000 1.0
C      1  0.4250340000000  0.4826350000000  0.4875490000000 1.0
C      1  0.4769280000000  0.5567340000000  0.4849020000000 1.0
C      1  0.5417050000000  0.5400490000000  0.4774260000000 1.0
C      1  0.5720670000000  0.5155990000000  0.4861890000000 1.0
C      1  0.5285340000000  0.4345460000000  0.4840780000000 1.0
C      1  0.4447870000000  0.4327630000000  0.4726680000000 1.0
C      1  0.4285810000000  0.5340350000000  0.4717870000000 1.0
C      1  0.5131360000000  0.5728250000000  0.4822550000000 1.0
C      1  0.4952310000000  0.5280410000000  0.4639860000000 1.0
C      1  0.5228370000000  0.5130490000000  0.4684490000000 1.0
C      1  0.5159300000000  0.4804170000000  0.4628090000000 1.0
C      1  0.4842570000000  0.4809350000000  0.4592920000000 1.0
C      1  0.4712970000000  0.5073470000000  0.4671750000000 1.0
END
