TITL C-2622961-1971-540 0.0148051756023097 125000 -661.566377892276 0 0 123 (C1) n - 1
REM
REM in /nfs/bkarasulu/CARBON/AIRSS/Generating-Clusters/AIREBO/with-SteepDescent/Higher-Symm/SD-CG/HFTN-CG
REM
REM
REM
REM
REM
REM ./C.cell (b20cbc046b6831c77cfcea5457e17084)
REM
REM compiler GCC version 9.2.1 20190827 (Red Hat 9.2.1-1)
REM options -cpp -mtune=generic -march=x86-64 -g -O0 -fpre-include=/usr/include/finclude/math-vector-fortran.h
REM seed -1198320061 1961811256 970466853 1757156538 519842294 2078336995 -1197790618 893655400 2021005410 154891931 -1882911169 1727841205 -1549246823 -661365797 1890673387 -1015897121 -1925084961 -284579770 917207029 893289812 -495608076 -1519833932 362262318 -1414058010 -1163386204 -1126281571 1178404424 282168965 141441069 -992943710 -1230243093 -1264397224 567977175
REM
CELL 1.54180   50.00000   50.00000   50.00000   90.00000   90.00000   90.00000
LATT -1
SFAC C  
C      1  0.4919670000000  0.4501130000000  0.5180390000000 1.0
C      1  0.5503260000000  0.4916790000000  0.5195330000000 1.0
C      1  0.5094650000000  0.5478220000000  0.5193060000000 1.0
C      1  0.4504730000000  0.5085090000000  0.5169490000000 1.0
C      1  0.4946700000000  0.4360820000000  0.4894760000000 1.0
C      1  0.5583370000000  0.4952450000000  0.4874240000000 1.0
C      1  0.5052480000000  0.5584300000000  0.4878790000000 1.0
C      1  0.4366560000000  0.5052060000000  0.4883120000000 1.0
C      1  0.4642340000000  0.5491870000000  0.5562200000000 1.0
C      1  0.4510660000000  0.4711390000000  0.5577580000000 1.0
C      1  0.5344770000000  0.4494730000000  0.5587970000000 1.0
C      1  0.5510460000000  0.5364600000000  0.5575220000000 1.0
C      1  0.4737950000000  0.5584710000000  0.4325580000000 1.0
C      1  0.4421480000000  0.4729240000000  0.4314920000000 1.0
C      1  0.5251410000000  0.4422660000000  0.4331810000000 1.0
C      1  0.5570450000000  0.5261110000000  0.4323710000000 1.0
C      1  0.5487500000000  0.4865950000000  0.5598550000000 1.0
C      1  0.5117570000000  0.5425850000000  0.5613290000000 1.0
C      1  0.4535150000000  0.5109010000000  0.5597620000000 1.0
C      1  0.4874900000000  0.4551470000000  0.5594630000000 1.0
C      1  0.5466390000000  0.4940920000000  0.4352800000000 1.0
C      1  0.5062370000000  0.5497310000000  0.4374290000000 1.0
C      1  0.4533940000000  0.5048900000000  0.4342770000000 1.0
C      1  0.4933860000000  0.4518590000000  0.4362900000000 1.0
C      1  0.5131630000000  0.4687280000000  0.5492070000000 1.0
C      1  0.5345200000000  0.5117490000000  0.5505400000000 1.0
C      1  0.4858840000000  0.5303280000000  0.5468250000000 1.0
C      1  0.4726420000000  0.4902460000000  0.5447800000000 1.0
C      1  0.5066470000000  0.4745870000000  0.4578380000000 1.0
C      1  0.5274900000000  0.5085440000000  0.4577970000000 1.0
C      1  0.4875870000000  0.5344440000000  0.4614080000000 1.0
C      1  0.4686420000000  0.4862870000000  0.4583300000000 1.0
C      1  0.6019900000000  0.4938390000000  0.4553900000000 1.0
C      1  0.5057590000000  0.6038660000000  0.4586470000000 1.0
C      1  0.3985380000000  0.5075570000000  0.4532180000000 1.0
C      1  0.4932070000000  0.3965840000000  0.4552890000000 1.0
C      1  0.6006970000000  0.4978230000000  0.5387950000000 1.0
C      1  0.5030580000000  0.5972300000000  0.5418040000000 1.0
C      1  0.4011110000000  0.5028260000000  0.5386510000000 1.0
C      1  0.4973250000000  0.4019380000000  0.5410850000000 1.0
C      1  0.4797600000000  0.4305800000000  0.5400580000000 1.0
C      1  0.5726400000000  0.4801190000000  0.5394690000000 1.0
C      1  0.5203970000000  0.5683240000000  0.5407990000000 1.0
C      1  0.4293410000000  0.5200250000000  0.5381950000000 1.0
C      1  0.4792360000000  0.4263870000000  0.4538830000000 1.0
C      1  0.5720420000000  0.4800990000000  0.4530540000000 1.0
C      1  0.5201180000000  0.5748650000000  0.4546120000000 1.0
C      1  0.4295100000000  0.5209720000000  0.4524110000000 1.0
C      1  0.5696070000000  0.5695350000000  0.5253880000000 1.0
C      1  0.4308270000000  0.5693670000000  0.5248640000000 1.0
C      1  0.4331200000000  0.4322470000000  0.5284770000000 1.0
C      1  0.5693140000000  0.4320560000000  0.5259320000000 1.0
C      1  0.5666480000000  0.5585150000000  0.4739130000000 1.0
C      1  0.4418520000000  0.5679510000000  0.4742100000000 1.0
C      1  0.4321390000000  0.4418280000000  0.4742140000000 1.0
C      1  0.5574290000000  0.4334530000000  0.4741500000000 1.0
C      1  0.5267550000000  0.6044710000000  0.5257080000000 1.0
C      1  0.3934980000000  0.5267760000000  0.5226990000000 1.0
C      1  0.4736570000000  0.3944310000000  0.5249040000000 1.0
C      1  0.6074800000000  0.4743090000000  0.5215950000000 1.0
C      1  0.5147570000000  0.5910710000000  0.4874560000000 1.0
C      1  0.4070110000000  0.5171710000000  0.4821780000000 1.0
C      1  0.4828730000000  0.4060280000000  0.4845880000000 1.0
C      1  0.5905490000000  0.4855760000000  0.4846350000000 1.0
C      1  0.4620610000000  0.4556150000000  0.4235980000000 1.0
C      1  0.5416530000000  0.4623430000000  0.4241660000000 1.0
C      1  0.5373510000000  0.5438410000000  0.4250340000000 1.0
C      1  0.4584350000000  0.5369930000000  0.4242400000000 1.0
C      1  0.4613960000000  0.4565140000000  0.5812220000000 1.0
C      1  0.5497300000000  0.4603840000000  0.5814950000000 1.0
C      1  0.5391450000000  0.5577360000000  0.5744060000000 1.0
C      1  0.4405150000000  0.5398880000000  0.5709600000000 1.0
C      1  0.4331790000000  0.4731220000000  0.4845290000000 1.0
C      1  0.5267640000000  0.4332270000000  0.4853010000000 1.0
C      1  0.5662430000000  0.5280650000000  0.4850370000000 1.0
C      1  0.4725140000000  0.5661320000000  0.4854470000000 1.0
C      1  0.4468350000000  0.4761620000000  0.5134120000000 1.0
C      1  0.5243380000000  0.4461090000000  0.5140970000000 1.0
C      1  0.5561970000000  0.5241500000000  0.5145440000000 1.0
C      1  0.4766160000000  0.5539480000000  0.5148430000000 1.0
C      1  0.5419570000000  0.5722940000000  0.4806480000000 1.0
C      1  0.4275910000000  0.5429850000000  0.4790130000000 1.0
C      1  0.4569100000000  0.4271670000000  0.4799290000000 1.0
C      1  0.5714630000000  0.4583370000000  0.4793790000000 1.0
C      1  0.5405170000000  0.5765720000000  0.5143620000000 1.0
C      1  0.4219020000000  0.5412240000000  0.5123890000000 1.0
C      1  0.4598430000000  0.4224140000000  0.5134770000000 1.0
C      1  0.5784260000000  0.4597890000000  0.5126270000000 1.0
C      1  0.4808860000000  0.5014660000000  0.4145650000000 1.0
C      1  0.4984290000000  0.4762920000000  0.4131840000000 1.0
C      1  0.5205560000000  0.4987920000000  0.4139730000000 1.0
C      1  0.5018050000000  0.5239590000000  0.4156910000000 1.0
C      1  0.4761580000000  0.5048690000000  0.5818350000000 1.0
C      1  0.4935610000000  0.4800040000000  0.5818820000000 1.0
C      1  0.5236810000000  0.4904770000000  0.5825220000000 1.0
C      1  0.5053630000000  0.5180160000000  0.5839530000000 1.0
C      1  0.5986540000000  0.5244220000000  0.5417020000000 1.0
C      1  0.4763200000000  0.5964690000000  0.5427660000000 1.0
C      1  0.4034960000000  0.4761990000000  0.5406410000000 1.0
C      1  0.5241030000000  0.4033560000000  0.5416040000000 1.0
C      1  0.6036230000000  0.5202440000000  0.4494190000000 1.0
C      1  0.4796470000000  0.6051770000000  0.4515550000000 1.0
C      1  0.3961280000000  0.4809200000000  0.4484680000000 1.0
C      1  0.5198220000000  0.3954890000000  0.4500200000000 1.0
C      1  0.5396710000000  0.4297180000000  0.5363120000000 1.0
C      1  0.5724610000000  0.5401890000000  0.5359720000000 1.0
C      1  0.4603030000000  0.5710440000000  0.5355690000000 1.0
C      1  0.4310010000000  0.4624020000000  0.5365010000000 1.0
C      1  0.5335460000000  0.4225540000000  0.4541700000000 1.0
C      1  0.5767290000000  0.5339910000000  0.4536210000000 1.0
C      1  0.4659800000000  0.5779660000000  0.4542290000000 1.0
C      1  0.4223550000000  0.4657840000000  0.4532300000000 1.0
C      1  0.4806670000000  0.4776970000000  0.5162510000000 1.0
C      1  0.5235040000000  0.4787990000000  0.5214680000000 1.0
C      1  0.5243660000000  0.5221320000000  0.5210580000000 1.0
C      1  0.4780660000000  0.5202370000000  0.5173960000000 1.0
C      1  0.4837440000000  0.4601830000000  0.4741040000000 1.0
C      1  0.5253610000000  0.4880690000000  0.4828290000000 1.0
C      1  0.5108080000000  0.5252190000000  0.4829400000000 1.0
C      1  0.4618750000000  0.5156630000000  0.4715340000000 1.0
C      1  0.4953910000000  0.5052030000000  0.4519800000000 1.0
C      1  0.5036790000000  0.5013670000000  0.5480830000000 1.0
C      1  0.5031660000000  0.5007340000000  0.5052840000000 1.0
END
