TITL C-2622964-2985-117 -0.002951962571144 125000 -957.275033333768 0 0 176 (C1) n - 1
REM
REM in /nfs/bkarasulu/CARBON/AIRSS/Generating-Clusters/AIREBO/with-SteepDescent/Higher-Symm/SD-CG/HFTN-CG
REM
REM
REM
REM
REM
REM ./C.cell (b20cbc046b6831c77cfcea5457e17084)
REM
REM compiler GCC version 9.2.1 20190827 (Red Hat 9.2.1-1)
REM options -cpp -mtune=generic -march=x86-64 -g -O0 -fpre-include=/usr/include/finclude/math-vector-fortran.h
REM seed 1545836341 1503025805 -1165312911 2021857723 302853156 237474757 1365165032 257811385 -1123037740 2030366769 -743961167 1154738593 1891917065 -2017256373 124665313 1929626117 -1957349622 1493473148 1671162243 427542520 1745692440 -1144886210 -659296013 -2120667340 -894118046 -957377790 1765980534 328426689 49007829 -571394669 227434456 -1855299456 1085155602
REM
CELL 1.54180   50.00000   50.00000   50.00000   90.00000   90.00000   90.00000
LATT -1
SFAC C  
C      1  0.5576030000000  0.4628910000000  0.4315940000000 1.0
C      1  0.5587680000000  0.5426410000000  0.4353170000000 1.0
C      1  0.5455940000000  0.5687070000000  0.5029370000000 1.0
C      1  0.5524940000000  0.5464620000000  0.5666230000000 1.0
C      1  0.5593270000000  0.4495950000000  0.5775480000000 1.0
C      1  0.5540290000000  0.4215300000000  0.5007770000000 1.0
C      1  0.4478190000000  0.5427610000000  0.4291070000000 1.0
C      1  0.4409040000000  0.4629680000000  0.4293500000000 1.0
C      1  0.4424640000000  0.4190920000000  0.5022130000000 1.0
C      1  0.4436400000000  0.4505710000000  0.5740470000000 1.0
C      1  0.4401030000000  0.5405480000000  0.5672220000000 1.0
C      1  0.4421120000000  0.5814790000000  0.4886990000000 1.0
C      1  0.5153430000000  0.5590950000000  0.4564520000000 1.0
C      1  0.5043710000000  0.5720670000000  0.5284930000000 1.0
C      1  0.5155110000000  0.5100670000000  0.5763840000000 1.0
C      1  0.5133580000000  0.4415310000000  0.5445540000000 1.0
C      1  0.5093440000000  0.4305720000000  0.4766280000000 1.0
C      1  0.5121400000000  0.4889690000000  0.4264520000000 1.0
C      1  0.4837600000000  0.4398450000000  0.4561040000000 1.0
C      1  0.4870400000000  0.4310020000000  0.5268610000000 1.0
C      1  0.4875380000000  0.4909720000000  0.5732420000000 1.0
C      1  0.4819530000000  0.5663130000000  0.5534150000000 1.0
C      1  0.4859460000000  0.5667310000000  0.4717350000000 1.0
C      1  0.4867430000000  0.5096100000000  0.4258180000000 1.0
C      1  0.4174020000000  0.4507330000000  0.5598890000000 1.0
C      1  0.4218500000000  0.4258180000000  0.4821170000000 1.0
C      1  0.4165390000000  0.4765140000000  0.4282350000000 1.0
C      1  0.4166320000000  0.5439790000000  0.4406450000000 1.0
C      1  0.4210620000000  0.5796400000000  0.5052140000000 1.0
C      1  0.4246340000000  0.5159760000000  0.5756820000000 1.0
C      1  0.5812330000000  0.5506180000000  0.5612810000000 1.0
C      1  0.5741820000000  0.5759830000000  0.4872630000000 1.0
C      1  0.5804580000000  0.5232560000000  0.4289920000000 1.0
C      1  0.5764460000000  0.4475490000000  0.4444930000000 1.0
C      1  0.5851820000000  0.4170180000000  0.5093600000000 1.0
C      1  0.5787410000000  0.4745580000000  0.5677820000000 1.0
C      1  0.4144230000000  0.5317230000000  0.4661680000000 1.0
C      1  0.4165570000000  0.5524150000000  0.5190070000000 1.0
C      1  0.4175140000000  0.5141930000000  0.5475330000000 1.0
C      1  0.4167550000000  0.4695610000000  0.5376880000000 1.0
C      1  0.4051960000000  0.4511280000000  0.4898440000000 1.0
C      1  0.4055090000000  0.4868060000000  0.4544980000000 1.0
C      1  0.5890710000000  0.4651760000000  0.4657900000000 1.0
C      1  0.5996750000000  0.4446910000000  0.5083960000000 1.0
C      1  0.5812810000000  0.4868940000000  0.5436450000000 1.0
C      1  0.5910100000000  0.5381060000000  0.5340140000000 1.0
C      1  0.5920770000000  0.5496490000000  0.4858790000000 1.0
C      1  0.5874840000000  0.5135390000000  0.4552410000000 1.0
C      1  0.3951870000000  0.5296820000000  0.5103080000000 1.0
C      1  0.3951660000000  0.5099290000000  0.5305430000000 1.0
C      1  0.3947720000000  0.4821940000000  0.5240940000000 1.0
C      1  0.3897670000000  0.4736700000000  0.4972560000000 1.0
C      1  0.3896500000000  0.4938780000000  0.4768770000000 1.0
C      1  0.3945350000000  0.5213600000000  0.4834350000000 1.0
C      1  0.6127020000000  0.4712730000000  0.5063230000000 1.0
C      1  0.6038580000000  0.4918190000000  0.5257050000000 1.0
C      1  0.6080040000000  0.5194300000000  0.5192720000000 1.0
C      1  0.6093380000000  0.5281290000000  0.4924860000000 1.0
C      1  0.6085690000000  0.5079030000000  0.4728140000000 1.0
C      1  0.6098020000000  0.4800340000000  0.4788310000000 1.0
C      1  0.5145640000000  0.4645260000000  0.4497680000000 1.0
C      1  0.5292960000000  0.5308180000000  0.4461170000000 1.0
C      1  0.5131050000000  0.5592210000000  0.4995150000000 1.0
C      1  0.5228030000000  0.5353310000000  0.5543140000000 1.0
C      1  0.5159030000000  0.4714370000000  0.5532620000000 1.0
C      1  0.5238550000000  0.4360800000000  0.5066630000000 1.0
C      1  0.4759110000000  0.5319890000000  0.4449590000000 1.0
C      1  0.4825180000000  0.4704650000000  0.4452200000000 1.0
C      1  0.4833420000000  0.4375530000000  0.4966290000000 1.0
C      1  0.4840570000000  0.4669680000000  0.5518120000000 1.0
C      1  0.4669680000000  0.5403450000000  0.5509550000000 1.0
C      1  0.4794180000000  0.5571990000000  0.5037420000000 1.0
C      1  0.5317590000000  0.5212250000000  0.4135730000000 1.0
C      1  0.5288050000000  0.5867490000000  0.4715550000000 1.0
C      1  0.5204840000000  0.5689410000000  0.5629690000000 1.0
C      1  0.5280670000000  0.4782780000000  0.5819940000000 1.0
C      1  0.5285690000000  0.4096730000000  0.5275990000000 1.0
C      1  0.5264450000000  0.4353230000000  0.4408160000000 1.0
C      1  0.4754150000000  0.4800740000000  0.4133530000000 1.0
C      1  0.4732630000000  0.4134750000000  0.4748330000000 1.0
C      1  0.4768920000000  0.4345430000000  0.5591370000000 1.0
C      1  0.4716910000000  0.5142880000000  0.6015720000000 1.0
C      1  0.4689560000000  0.5864170000000  0.5177270000000 1.0
C      1  0.4790230000000  0.5654290000000  0.4384650000000 1.0
C      1  0.5264600000000  0.4455730000000  0.5819620000000 1.0
C      1  0.5295330000000  0.3985810000000  0.4953220000000 1.0
C      1  0.5315070000000  0.4561870000000  0.4144310000000 1.0
C      1  0.5344750000000  0.5551920000000  0.4151050000000 1.0
C      1  0.5272300000000  0.5963030000000  0.5041560000000 1.0
C      1  0.5286050000000  0.5506300000000  0.5904660000000 1.0
C      1  0.4647450000000  0.5450400000000  0.5904620000000 1.0
C      1  0.4692510000000  0.6006160000000  0.4876050000000 1.0
C      1  0.4744390000000  0.5491840000000  0.4089370000000 1.0
C      1  0.4675330000000  0.4471400000000  0.4164590000000 1.0
C      1  0.4703280000000  0.4010280000000  0.5063400000000 1.0
C      1  0.4713290000000  0.4475280000000  0.5900850000000 1.0
C      1  0.4816800000000  0.5210550000000  0.4755350000000 1.0
C      1  0.4706590000000  0.5300530000000  0.5225090000000 1.0
C      1  0.4930730000000  0.5061500000000  0.5209640000000 1.0
C      1  0.4812710000000  0.4747980000000  0.5198890000000 1.0
C      1  0.4697290000000  0.4657970000000  0.4900830000000 1.0
C      1  0.4720530000000  0.4892440000000  0.4679550000000 1.0
C      1  0.5253670000000  0.4758300000000  0.4768110000000 1.0
C      1  0.5121370000000  0.4680230000000  0.5050100000000 1.0
C      1  0.5211390000000  0.4888190000000  0.5292810000000 1.0
C      1  0.5161320000000  0.5280260000000  0.5243410000000 1.0
C      1  0.5122050000000  0.5264190000000  0.4905760000000 1.0
C      1  0.5238090000000  0.5063240000000  0.4657150000000 1.0
C      1  0.4472130000000  0.4771620000000  0.5630200000000 1.0
C      1  0.4436430000000  0.4449030000000  0.5220830000000 1.0
C      1  0.4396350000000  0.4538580000000  0.4598670000000 1.0
C      1  0.4410800000000  0.5126140000000  0.4433150000000 1.0
C      1  0.4411510000000  0.5610050000000  0.4670920000000 1.0
C      1  0.4213770000000  0.5593610000000  0.5488260000000 1.0
C      1  0.5590710000000  0.5193650000000  0.5490550000000 1.0
C      1  0.5709620000000  0.5629710000000  0.5246720000000 1.0
C      1  0.5634860000000  0.5431640000000  0.4683400000000 1.0
C      1  0.5611140000000  0.4894000000000  0.4376260000000 1.0
C      1  0.5558170000000  0.4404950000000  0.4778580000000 1.0
C      1  0.5709190000000  0.4414260000000  0.5469540000000 1.0
C      1  0.4341450000000  0.5876760000000  0.4501410000000 1.0
C      1  0.4336790000000  0.5799320000000  0.5655810000000 1.0
C      1  0.4409640000000  0.4963120000000  0.5835150000000 1.0
C      1  0.4291170000000  0.4175150000000  0.5360520000000 1.0
C      1  0.4318340000000  0.4228880000000  0.4542690000000 1.0
C      1  0.4388070000000  0.5072570000000  0.4134980000000 1.0
C      1  0.5634950000000  0.4224810000000  0.4534300000000 1.0
C      1  0.5676610000000  0.4173920000000  0.5689520000000 1.0
C      1  0.5656940000000  0.5108500000000  0.5782480000000 1.0
C      1  0.5609920000000  0.5885530000000  0.5358950000000 1.0
C      1  0.5661680000000  0.5751090000000  0.4570000000000 1.0
C      1  0.5675700000000  0.5037890000000  0.4111980000000 1.0
C      1  0.4587700000000  0.5747960000000  0.5751270000000 1.0
C      1  0.4666570000000  0.4808040000000  0.5977370000000 1.0
C      1  0.4606420000000  0.4121380000000  0.5370300000000 1.0
C      1  0.4579520000000  0.4249450000000  0.4397170000000 1.0
C      1  0.4633870000000  0.5176000000000  0.4024350000000 1.0
C      1  0.4659020000000  0.5904770000000  0.4579010000000 1.0
C      1  0.5367330000000  0.4236030000000  0.5575430000000 1.0
C      1  0.5425600000000  0.5198380000000  0.5945350000000 1.0
C      1  0.5314730000000  0.5890080000000  0.5372500000000 1.0
C      1  0.5395460000000  0.5771000000000  0.4407630000000 1.0
C      1  0.5376120000000  0.4886200000000  0.4057910000000 1.0
C      1  0.5331620000000  0.4112200000000  0.4638840000000 1.0
C      1  0.4797710000000  0.6026370000000  0.5374090000000 1.0
C      1  0.4999340000000  0.5122030000000  0.6065360000000 1.0
C      1  0.4935390000000  0.4055850000000  0.5655010000000 1.0
C      1  0.4896350000000  0.4008420000000  0.4496650000000 1.0
C      1  0.4904110000000  0.4972900000000  0.3881180000000 1.0
C      1  0.4973590000000  0.5931980000000  0.4314710000000 1.0
C      1  0.5098460000000  0.3951900000000  0.5494800000000 1.0
C      1  0.5240220000000  0.4934050000000  0.6115610000000 1.0
C      1  0.4988060000000  0.5949080000000  0.5594400000000 1.0
C      1  0.5119550000000  0.6047490000000  0.4486220000000 1.0
C      1  0.5124020000000  0.5124370000000  0.3870280000000 1.0
C      1  0.5071700000000  0.4095150000000  0.4338450000000 1.0
C      1  0.5513330000000  0.4948320000000  0.5295630000000 1.0
C      1  0.5752690000000  0.4530120000000  0.5233370000000 1.0
C      1  0.5591000000000  0.4720040000000  0.4803370000000 1.0
C      1  0.5576230000000  0.5037550000000  0.4682530000000 1.0
C      1  0.5467420000000  0.5266980000000  0.4908860000000 1.0
C      1  0.5595060000000  0.5317350000000  0.5177030000000 1.0
C      1  0.4437930000000  0.5108160000000  0.5306050000000 1.0
C      1  0.4346650000000  0.5276330000000  0.5043440000000 1.0
C      1  0.4475820000000  0.5281170000000  0.4728860000000 1.0
C      1  0.4385550000000  0.4869940000000  0.4625180000000 1.0
C      1  0.4373350000000  0.4610620000000  0.4929400000000 1.0
C      1  0.4486270000000  0.4778140000000  0.5290540000000 1.0
C      1  0.5049770000000  0.5507670000000  0.4122550000000 1.0
C      1  0.5003840000000  0.4512010000000  0.4149960000000 1.0
C      1  0.4997780000000  0.4009590000000  0.5017050000000 1.0
C      1  0.4996390000000  0.5989560000000  0.4960170000000 1.0
C      1  0.4980860000000  0.5478960000000  0.5888880000000 1.0
C      1  0.5019650000000  0.4380530000000  0.5948130000000 1.0
C      1  0.5630720000000  0.4740780000000  0.5106620000000 1.0
C      1  0.4373190000000  0.4954690000000  0.4945330000000 1.0
END
