TITL C-2622953-3516-575 -0.0016294563837495 125000 -694.753936543227 0 0 139 (C1) n - 1
REM
REM in /nfs/bkarasulu/CARBON/AIRSS/Generating-Clusters/AIREBO/with-SteepDescent/Higher-Symm/SD-CG/HFTN-CG
REM
REM
REM
REM
REM
REM ./C.cell (b20cbc046b6831c77cfcea5457e17084)
REM
REM compiler GCC version 9.2.1 20190827 (Red Hat 9.2.1-1)
REM options -cpp -mtune=generic -march=x86-64 -g -O0 -fpre-include=/usr/include/finclude/math-vector-fortran.h
REM seed -812320043 1531362173 -908977147 1527379883 568133422 305760878 1696541159 555874164 1311511629 -1759626999 -1528317007 -1044068478 -1779535071 488460493 1190776485 1959480912 954848162 214634886 -294147978 -144017744 -2060164194 2130097863 -1442779282 -634745879 -1036254890 -194775256 -1520045711 -1784368893 1403899857 157582978 1646262919 -215846774 -1425621033
REM
CELL 1.54180   50.00000   50.00000   50.00000   90.00000   90.00000   90.00000
LATT -1
SFAC C  
C      1  0.4860770000000  0.5151950000000  0.4305620000000 1.0
C      1  0.5191600000000  0.4269040000000  0.4721280000000 1.0
C      1  0.4235280000000  0.4774850000000  0.5157340000000 1.0
C      1  0.5143790000000  0.4786520000000  0.4302030000000 1.0
C      1  0.4710570000000  0.4855810000000  0.5748210000000 1.0
C      1  0.5161260000000  0.5145380000000  0.5730540000000 1.0
C      1  0.4802560000000  0.5851680000000  0.4703230000000 1.0
C      1  0.5179930000000  0.5863750000000  0.5204860000000 1.0
C      1  0.4821530000000  0.4232240000000  0.5194400000000 1.0
C      1  0.5797700000000  0.5137960000000  0.5160600000000 1.0
C      1  0.4242870000000  0.5365290000000  0.4900560000000 1.0
C      1  0.5664080000000  0.4812320000000  0.4800490000000 1.0
C      1  0.4852880000000  0.5156560000000  0.5738720000000 1.0
C      1  0.5092010000000  0.4227830000000  0.5340610000000 1.0
C      1  0.4277940000000  0.4815690000000  0.4840570000000 1.0
C      1  0.5293200000000  0.4861010000000  0.5755500000000 1.0
C      1  0.4817720000000  0.4825360000000  0.4245840000000 1.0
C      1  0.5190680000000  0.5123830000000  0.4296900000000 1.0
C      1  0.4865150000000  0.5870940000000  0.5265500000000 1.0
C      1  0.5132550000000  0.5770960000000  0.4719940000000 1.0
C      1  0.4910270000000  0.4177970000000  0.4876790000000 1.0
C      1  0.5767920000000  0.5133530000000  0.4850350000000 1.0
C      1  0.4231910000000  0.5315980000000  0.5221150000000 1.0
C      1  0.5701080000000  0.4746770000000  0.5109560000000 1.0
C      1  0.5246730000000  0.4310580000000  0.5695020000000 1.0
C      1  0.4435320000000  0.5709990000000  0.5380110000000 1.0
C      1  0.5634490000000  0.5430730000000  0.4329860000000 1.0
C      1  0.4650060000000  0.5552760000000  0.5640110000000 1.0
C      1  0.5235990000000  0.5745260000000  0.4219580000000 1.0
C      1  0.4793930000000  0.4233920000000  0.4498680000000 1.0
C      1  0.5832410000000  0.4316060000000  0.5289180000000 1.0
C      1  0.4375220000000  0.4368270000000  0.4691040000000 1.0
C      1  0.5693210000000  0.5579820000000  0.4597480000000 1.0
C      1  0.4400290000000  0.4578980000000  0.4163160000000 1.0
C      1  0.5672000000000  0.4768950000000  0.5684190000000 1.0
C      1  0.4357580000000  0.5132350000000  0.5870270000000 1.0
C      1  0.5408750000000  0.4142160000000  0.4344010000000 1.0
C      1  0.4253150000000  0.5801660000000  0.4680070000000 1.0
C      1  0.5632750000000  0.5302700000000  0.5653430000000 1.0
C      1  0.4470840000000  0.5811980000000  0.4484800000000 1.0
C      1  0.5381700000000  0.5588410000000  0.5530380000000 1.0
C      1  0.4489380000000  0.4279770000000  0.5678390000000 1.0
C      1  0.5789090000000  0.4332630000000  0.4741390000000 1.0
C      1  0.4227780000000  0.4377440000000  0.5191710000000 1.0
C      1  0.5719730000000  0.5625450000000  0.5262250000000 1.0
C      1  0.4323790000000  0.4495650000000  0.5769000000000 1.0
C      1  0.5534160000000  0.4791010000000  0.4222420000000 1.0
C      1  0.4471820000000  0.5240850000000  0.4278820000000 1.0
C      1  0.4563630000000  0.4633220000000  0.4790810000000 1.0
C      1  0.4622940000000  0.4836270000000  0.4524630000000 1.0
C      1  0.4841700000000  0.4466970000000  0.4711080000000 1.0
C      1  0.5358770000000  0.5428160000000  0.4830610000000 1.0
C      1  0.4721500000000  0.5575810000000  0.5254770000000 1.0
C      1  0.5411290000000  0.4612820000000  0.5226560000000 1.0
C      1  0.5359690000000  0.5256620000000  0.4560350000000 1.0
C      1  0.4455040000000  0.5152410000000  0.5370450000000 1.0
C      1  0.5445230000000  0.4862950000000  0.5448860000000 1.0
C      1  0.5254840000000  0.5568600000000  0.4473600000000 1.0
C      1  0.4755180000000  0.5295270000000  0.5444070000000 1.0
C      1  0.5177780000000  0.4520090000000  0.5435510000000 1.0
C      1  0.4507150000000  0.4571210000000  0.5185090000000 1.0
C      1  0.4581560000000  0.4780630000000  0.5442580000000 1.0
C      1  0.4773930000000  0.4504530000000  0.5392540000000 1.0
C      1  0.5195240000000  0.5525210000000  0.5176800000000 1.0
C      1  0.4500920000000  0.5516440000000  0.4813250000000 1.0
C      1  0.5396130000000  0.4604420000000  0.4827740000000 1.0
C      1  0.5541930000000  0.5237650000000  0.5361490000000 1.0
C      1  0.4650650000000  0.5233370000000  0.4560320000000 1.0
C      1  0.5454050000000  0.4869900000000  0.4539350000000 1.0
C      1  0.5217080000000  0.5306060000000  0.5435940000000 1.0
C      1  0.4701920000000  0.5569250000000  0.4542650000000 1.0
C      1  0.5195250000000  0.4566310000000  0.4556010000000 1.0
C      1  0.4006110000000  0.4561470000000  0.5268060000000 1.0
C      1  0.4698310000000  0.5364250000000  0.4122880000000 1.0
C      1  0.5382450000000  0.4095250000000  0.4622190000000 1.0
C      1  0.5878470000000  0.5431170000000  0.5265530000000 1.0
C      1  0.4092020000000  0.5595580000000  0.4747190000000 1.0
C      1  0.5875240000000  0.4589930000000  0.4675070000000 1.0
C      1  0.5338240000000  0.4667970000000  0.4056740000000 1.0
C      1  0.4478950000000  0.4711990000000  0.5917450000000 1.0
C      1  0.5418160000000  0.5319140000000  0.5822260000000 1.0
C      1  0.4665520000000  0.6051830000000  0.4459610000000 1.0
C      1  0.5398420000000  0.5835210000000  0.5422740000000 1.0
C      1  0.4599460000000  0.4124430000000  0.5428850000000 1.0
C      1  0.4198390000000  0.4591300000000  0.4634730000000 1.0
C      1  0.4614080000000  0.5183710000000  0.5955510000000 1.0
C      1  0.5290170000000  0.4062750000000  0.5493190000000 1.0
C      1  0.5874620000000  0.5445890000000  0.4764710000000 1.0
C      1  0.4191200000000  0.5560040000000  0.5365160000000 1.0
C      1  0.5952030000000  0.4567970000000  0.5233740000000 1.0
C      1  0.5517820000000  0.4660050000000  0.5911760000000 1.0
C      1  0.4675800000000  0.4536850000000  0.4136380000000 1.0
C      1  0.5410160000000  0.5354630000000  0.4176320000000 1.0
C      1  0.4770710000000  0.5837580000000  0.5553070000000 1.0
C      1  0.5423040000000  0.5931020000000  0.4142060000000 1.0
C      1  0.4731340000000  0.3987060000000  0.4642650000000 1.0
C      1  0.5875530000000  0.5194210000000  0.5740510000000 1.0
C      1  0.5118390000000  0.5535990000000  0.5670360000000 1.0
C      1  0.5495240000000  0.5653770000000  0.5080840000000 1.0
C      1  0.4273370000000  0.4725210000000  0.5575080000000 1.0
C      1  0.5764790000000  0.4920970000000  0.4379700000000 1.0
C      1  0.4271860000000  0.5051990000000  0.4258800000000 1.0
C      1  0.4779050000000  0.4365650000000  0.5690380000000 1.0
C      1  0.5207630000000  0.4346430000000  0.4296790000000 1.0
C      1  0.4763200000000  0.5622260000000  0.4212420000000 1.0
C      1  0.4233200000000  0.4128650000000  0.5068060000000 1.0
C      1  0.5545690000000  0.4338330000000  0.4893360000000 1.0
C      1  0.4512510000000  0.5849500000000  0.4880680000000 1.0
C      1  0.5690980000000  0.5186650000000  0.4528180000000 1.0
C      1  0.4972610000000  0.5781530000000  0.4133840000000 1.0
C      1  0.5468970000000  0.5742220000000  0.4761100000000 1.0
C      1  0.4360570000000  0.4799200000000  0.4337740000000 1.0
C      1  0.5904990000000  0.4921940000000  0.5712810000000 1.0
C      1  0.4315580000000  0.5020280000000  0.5617850000000 1.0
C      1  0.4941690000000  0.4254130000000  0.4261370000000 1.0
C      1  0.5004150000000  0.4310250000000  0.5842240000000 1.0
C      1  0.4900330000000  0.5564190000000  0.5814710000000 1.0
C      1  0.4309020000000  0.4124800000000  0.4803610000000 1.0
C      1  0.5563940000000  0.4311890000000  0.5184370000000 1.0
C      1  0.4475580000000  0.5928500000000  0.5173710000000 1.0
C      1  0.4997940000000  0.5416470000000  0.4610740000000 1.0
C      1  0.4973890000000  0.4779520000000  0.5381720000000 1.0
C      1  0.4750310000000  0.5461800000000  0.4986750000000 1.0
C      1  0.5138760000000  0.4691840000000  0.5038930000000 1.0
C      1  0.4605760000000  0.4955520000000  0.5139920000000 1.0
C      1  0.5330750000000  0.5030480000000  0.4812880000000 1.0
C      1  0.4975010000000  0.4780170000000  0.4702530000000 1.0
C      1  0.4991420000000  0.5104370000000  0.5279550000000 1.0
C      1  0.5046690000000  0.5340140000000  0.4933020000000 1.0
C      1  0.4790510000000  0.4688820000000  0.5038190000000 1.0
C      1  0.5411610000000  0.5011100000000  0.5144010000000 1.0
C      1  0.4711600000000  0.5027600000000  0.4824400000000 1.0
C      1  0.4181540000000  0.5064680000000  0.5013140000000 1.0
C      1  0.5059360000000  0.3908750000000  0.4965640000000 1.0
C      1  0.4989860000000  0.5966520000000  0.4962870000000 1.0
C      1  0.5971230000000  0.4887650000000  0.5258260000000 1.0
C      1  0.4829510000000  0.4917240000000  0.3936200000000 1.0
C      1  0.5000870000000  0.4825180000000  0.5904960000000 1.0
C      1  0.5023920000000  0.5001430000000  0.4956640000000 1.0
END
