TITL C-2622955-8511-389 -0.000777315167969628 125000 -665.59252544983 0 0 131 (C1) n - 1
REM
REM in /nfs/bkarasulu/CARBON/AIRSS/Generating-Clusters/AIREBO/with-SteepDescent/Higher-Symm/SD-CG/HFTN-CG
REM
REM
REM
REM
REM
REM ./C.cell (b20cbc046b6831c77cfcea5457e17084)
REM
REM compiler GCC version 9.2.1 20190827 (Red Hat 9.2.1-1)
REM options -cpp -mtune=generic -march=x86-64 -g -O0 -fpre-include=/usr/include/finclude/math-vector-fortran.h
REM seed 851652553 -74423144 -386781381 520993901 -1375698264 664262874 701619910 -484260872 479648142 -1728805481 -203324735 1157896744 915303413 817037908 -1289188786 680299375 298403368 -1345056592 -22693730 1826989827 859262885 659556842 -497361466 1964664628 -1447274033 1495830228 1665064741 1681524775 395673550 1370752688 -907033082 1560467108 -164941872
REM
CELL 1.54180   50.00000   50.00000   50.00000   90.00000   90.00000   90.00000
LATT -1
SFAC C  
C      1  0.4618280000000  0.5339490000000  0.4226160000000 1.0
C      1  0.6020350000000  0.5482640000000  0.5028160000000 1.0
C      1  0.4514500000000  0.5419450000000  0.5732810000000 1.0
C      1  0.5454190000000  0.4595440000000  0.4271320000000 1.0
C      1  0.4092030000000  0.4537480000000  0.5112980000000 1.0
C      1  0.5702480000000  0.4615750000000  0.5837770000000 1.0
C      1  0.5252840000000  0.5715860000000  0.4904870000000 1.0
C      1  0.4882900000000  0.5666140000000  0.5315420000000 1.0
C      1  0.4696350000000  0.5931960000000  0.4669490000000 1.0
C      1  0.4601390000000  0.4412510000000  0.4904840000000 1.0
C      1  0.5079840000000  0.4293690000000  0.5289440000000 1.0
C      1  0.5193340000000  0.4116940000000  0.4713090000000 1.0
C      1  0.3901180000000  0.4796870000000  0.5094800000000 1.0
C      1  0.5563350000000  0.4870540000000  0.4179180000000 1.0
C      1  0.5533240000000  0.4904550000000  0.5862270000000 1.0
C      1  0.6081440000000  0.5177850000000  0.5007850000000 1.0
C      1  0.4533630000000  0.5023910000000  0.4180080000000 1.0
C      1  0.4544410000000  0.5121640000000  0.5886770000000 1.0
C      1  0.4978860000000  0.4672220000000  0.5224890000000 1.0
C      1  0.4878630000000  0.4825570000000  0.4964920000000 1.0
C      1  0.5193460000000  0.4592330000000  0.4890330000000 1.0
C      1  0.4993730000000  0.5312830000000  0.5166350000000 1.0
C      1  0.5187630000000  0.5203160000000  0.4956040000000 1.0
C      1  0.4759560000000  0.5344670000000  0.4843730000000 1.0
C      1  0.4273860000000  0.5647830000000  0.5034250000000 1.0
C      1  0.5275920000000  0.5685410000000  0.4455390000000 1.0
C      1  0.5446580000000  0.5671300000000  0.5491550000000 1.0
C      1  0.5637660000000  0.4352710000000  0.5044830000000 1.0
C      1  0.4828600000000  0.4341350000000  0.4424250000000 1.0
C      1  0.4548950000000  0.4275710000000  0.5510830000000 1.0
C      1  0.4275380000000  0.4978960000000  0.4397430000000 1.0
C      1  0.5878890000000  0.5027760000000  0.4824290000000 1.0
C      1  0.4786430000000  0.4941370000000  0.5786000000000 1.0
C      1  0.5622370000000  0.5141240000000  0.4354320000000 1.0
C      1  0.4007630000000  0.4985060000000  0.4908270000000 1.0
C      1  0.5246060000000  0.5029020000000  0.5760050000000 1.0
C      1  0.5980800000000  0.5207500000000  0.5303450000000 1.0
C      1  0.4282070000000  0.5169640000000  0.5690450000000 1.0
C      1  0.4835210000000  0.5155310000000  0.4048370000000 1.0
C      1  0.4023350000000  0.4829890000000  0.5373700000000 1.0
C      1  0.5740160000000  0.4849460000000  0.5597820000000 1.0
C      1  0.5297140000000  0.4845300000000  0.4008210000000 1.0
C      1  0.5654120000000  0.5440480000000  0.5496400000000 1.0
C      1  0.4100800000000  0.5465700000000  0.5240690000000 1.0
C      1  0.5173000000000  0.5423240000000  0.4250150000000 1.0
C      1  0.4397750000000  0.4576430000000  0.5558960000000 1.0
C      1  0.5819860000000  0.4574330000000  0.5210970000000 1.0
C      1  0.4968760000000  0.4522010000000  0.4206070000000 1.0
C      1  0.5284230000000  0.5133750000000  0.4390040000000 1.0
C      1  0.5493240000000  0.5163570000000  0.5568020000000 1.0
C      1  0.4220000000000  0.5179960000000  0.5097460000000 1.0
C      1  0.4786130000000  0.4797450000000  0.4206620000000 1.0
C      1  0.4545930000000  0.4882570000000  0.5552640000000 1.0
C      1  0.5705690000000  0.4867740000000  0.5069510000000 1.0
C      1  0.5522290000000  0.5739380000000  0.4764410000000 1.0
C      1  0.4975720000000  0.5692940000000  0.5747390000000 1.0
C      1  0.4500100000000  0.5758690000000  0.4563670000000 1.0
C      1  0.4366310000000  0.4435880000000  0.4582860000000 1.0
C      1  0.4975920000000  0.4357120000000  0.5831020000000 1.0
C      1  0.5408300000000  0.4277670000000  0.4626800000000 1.0
C      1  0.4337100000000  0.5282300000000  0.4538460000000 1.0
C      1  0.5732470000000  0.5283000000000  0.4653680000000 1.0
C      1  0.4968420000000  0.5228760000000  0.5782460000000 1.0
C      1  0.5767840000000  0.4900660000000  0.4545530000000 1.0
C      1  0.4207760000000  0.4816620000000  0.4690940000000 1.0
C      1  0.5062920000000  0.4742990000000  0.5789830000000 1.0
C      1  0.4582010000000  0.5700460000000  0.5160790000000 1.0
C      1  0.4998270000000  0.5808280000000  0.4595700000000 1.0
C      1  0.5408090000000  0.5785970000000  0.5200850000000 1.0
C      1  0.5396060000000  0.4201610000000  0.5204860000000 1.0
C      1  0.4924270000000  0.4160740000000  0.4618870000000 1.0
C      1  0.4616050000000  0.4248900000000  0.5198360000000 1.0
C      1  0.4607360000000  0.4509830000000  0.4493330000000 1.0
C      1  0.5647790000000  0.4247090000000  0.4757280000000 1.0
C      1  0.4757170000000  0.4427310000000  0.5650440000000 1.0
C      1  0.5575550000000  0.5543480000000  0.4498240000000 1.0
C      1  0.4276900000000  0.5578910000000  0.4703440000000 1.0
C      1  0.5191810000000  0.5578500000000  0.5597120000000 1.0
C      1  0.4814030000000  0.5450590000000  0.5572000000000 1.0
C      1  0.4634570000000  0.5446990000000  0.4544320000000 1.0
C      1  0.5767150000000  0.5550980000000  0.4860100000000 1.0
C      1  0.5143920000000  0.4476590000000  0.5573500000000 1.0
C      1  0.5328560000000  0.4590810000000  0.4578310000000 1.0
C      1  0.4288720000000  0.4543560000000  0.4877040000000 1.0
C      1  0.4600390000000  0.4827210000000  0.5112740000000 1.0
C      1  0.4923440000000  0.4905170000000  0.4687080000000 1.0
C      1  0.5273240000000  0.4725890000000  0.5289390000000 1.0
C      1  0.5455640000000  0.5304370000000  0.5113120000000 1.0
C      1  0.5022750000000  0.5199230000000  0.4684910000000 1.0
C      1  0.4704950000000  0.5150770000000  0.5124550000000 1.0
C      1  0.4903770000000  0.5566670000000  0.4400350000000 1.0
C      1  0.5653820000000  0.5548140000000  0.5173770000000 1.0
C      1  0.4588180000000  0.5401350000000  0.5322550000000 1.0
C      1  0.5035720000000  0.4676140000000  0.4490440000000 1.0
C      1  0.4512000000000  0.4568800000000  0.5250930000000 1.0
C      1  0.5420650000000  0.4462190000000  0.5410370000000 1.0
C      1  0.5017530000000  0.5961210000000  0.4899240000000 1.0
C      1  0.5089810000000  0.5888930000000  0.5216790000000 1.0
C      1  0.4690210000000  0.5945000000000  0.4979780000000 1.0
C      1  0.4746730000000  0.4129030000000  0.4839960000000 1.0
C      1  0.4888280000000  0.4056370000000  0.5138550000000 1.0
C      1  0.5192570000000  0.4054670000000  0.4993900000000 1.0
C      1  0.4834870000000  0.5000690000000  0.5395230000000 1.0
C      1  0.4541910000000  0.5051280000000  0.4680980000000 1.0
C      1  0.5451630000000  0.5029460000000  0.4911690000000 1.0
C      1  0.5151100000000  0.5002880000000  0.5362220000000 1.0
C      1  0.5435410000000  0.4910810000000  0.4616360000000 1.0
C      1  0.4404640000000  0.4952430000000  0.4932720000000 1.0
C      1  0.3959390000000  0.4640610000000  0.4552700000000 1.0
C      1  0.5970920000000  0.4722040000000  0.4412180000000 1.0
C      1  0.5044180000000  0.4534100000000  0.6057580000000 1.0
C      1  0.6023970000000  0.5366310000000  0.4499710000000 1.0
C      1  0.4045150000000  0.5225080000000  0.4352280000000 1.0
C      1  0.4967860000000  0.5351560000000  0.6069030000000 1.0
C      1  0.5250230000000  0.5315340000000  0.5389500000000 1.0
C      1  0.4429150000000  0.5377120000000  0.4915830000000 1.0
C      1  0.5302740000000  0.5382150000000  0.4621570000000 1.0
C      1  0.4808100000000  0.4675230000000  0.5490080000000 1.0
C      1  0.5461150000000  0.4632190000000  0.5051200000000 1.0
C      1  0.4666580000000  0.4823890000000  0.4499400000000 1.0
C      1  0.4304680000000  0.5414280000000  0.5465290000000 1.0
C      1  0.4890050000000  0.5479810000000  0.4071340000000 1.0
C      1  0.5946650000000  0.5537990000000  0.5347020000000 1.0
C      1  0.5699740000000  0.4537090000000  0.5505530000000 1.0
C      1  0.5232450000000  0.4539620000000  0.4059440000000 1.0
C      1  0.4119980000000  0.4554790000000  0.5428200000000 1.0
C      1  0.5070930000000  0.4981740000000  0.4170330000000 1.0
C      1  0.4272080000000  0.5022200000000  0.5395900000000 1.0
C      1  0.5733380000000  0.5042410000000  0.5360010000000 1.0
C      1  0.4954890000000  0.5578730000000  0.4994770000000 1.0
C      1  0.4922390000000  0.4435480000000  0.5023140000000 1.0
END
