TITL C-2622956-4641-651 -1.52131315796993e-07 125000 -31.2542591956417 0 0 6 (D(inf)h) n - 1
REM
REM in /nfs/bkarasulu/CARBON/AIRSS/Generating-Clusters/AIREBO/with-SteepDescent/Higher-Symm/SD-CG/HFTN-CG
REM
REM
REM
REM
REM
REM ./C.cell (b20cbc046b6831c77cfcea5457e17084)
REM
REM compiler GCC version 9.2.1 20190827 (Red Hat 9.2.1-1)
REM options -cpp -mtune=generic -march=x86-64 -g -O0 -fpre-include=/usr/include/finclude/math-vector-fortran.h
REM seed -1099758269 912329752 -1121707354 -395777431 582667421 -519133951 -670057132 -415802047 -983645828 2049922203 -1732974710 1373978747 -4897330 432449852 1610317535 -1923288489 -36799276 1487690779 -159625772 1934631372 828199519 -1032383400 -58001820 448496795 -550205499 -383266546 -455515539 1289512944 -499741508 -825403812 1158614539 -1835271466 -1680173135
REM
CELL 1.54180   50.00000   50.00000   50.00000   90.00000   90.00000   90.00000
LATT -1
SFAC C  
C      1  0.4988460000000  0.4600550000000  0.4984200000000 1.0
C      1  0.4988460000000  0.5399450000000  0.4984200000000 1.0
C      1  0.4988460000000  0.5661520000000  0.4984200000000 1.0
C      1  0.4988460000000  0.4338480000000  0.4984200000000 1.0
C      1  0.4988460000000  0.5133150000000  0.4984200000000 1.0
C      1  0.4988460000000  0.4866850000000  0.4984200000000 1.0
END
