TITL C-2622963-3633-412 0.000726436862626398 125000 -367.678074640563 0 0 69 (C1) n - 1
REM
REM in /nfs/bkarasulu/CARBON/AIRSS/Generating-Clusters/AIREBO/with-SteepDescent/Higher-Symm/SD-CG/HFTN-CG
REM
REM
REM
REM
REM
REM ./C.cell (b20cbc046b6831c77cfcea5457e17084)
REM
REM compiler GCC version 9.2.1 20190827 (Red Hat 9.2.1-1)
REM options -cpp -mtune=generic -march=x86-64 -g -O0 -fpre-include=/usr/include/finclude/math-vector-fortran.h
REM seed -430092566 -1309016251 1445965069 -1296423275 -1793906594 -2146442914 -813545780 1587214808 -1402156049 143538551 1006365447 1349109852 -265024801 -440948346 603093374 -282658113 2042762218 537772989 -126301142 13055846 407982397 -885750493 -1102819017 474006872 -1600565973 986434520 -751019380 1566700360 2109549804 685321687 -2075069818 1510404572 265763704
REM
CELL 1.54180   50.00000   50.00000   50.00000   90.00000   90.00000   90.00000
LATT -1
SFAC C  
C      1  0.5705560000000  0.5195040000000  0.4750540000000 1.0
C      1  0.4361040000000  0.4802940000000  0.4711720000000 1.0
C      1  0.4714500000000  0.5207610000000  0.4970100000000 1.0
C      1  0.5237680000000  0.4765510000000  0.4872320000000 1.0
C      1  0.5478230000000  0.4684280000000  0.4690320000000 1.0
C      1  0.4496140000000  0.5436150000000  0.4907890000000 1.0
C      1  0.4672060000000  0.4314660000000  0.4822920000000 1.0
C      1  0.5350890000000  0.5656490000000  0.4845580000000 1.0
C      1  0.4932130000000  0.5283910000000  0.5614200000000 1.0
C      1  0.5015770000000  0.4656510000000  0.5736730000000 1.0
C      1  0.4843420000000  0.5585490000000  0.5037890000000 1.0
C      1  0.5184530000000  0.4334930000000  0.5027610000000 1.0
C      1  0.4759430000000  0.5388330000000  0.4454520000000 1.0
C      1  0.5256730000000  0.4666560000000  0.4358580000000 1.0
C      1  0.5747000000000  0.5081750000000  0.5025340000000 1.0
C      1  0.4267080000000  0.4939960000000  0.4973410000000 1.0
C      1  0.4702620000000  0.4913160000000  0.5628390000000 1.0
C      1  0.5277180000000  0.5017060000000  0.5620320000000 1.0
C      1  0.5298230000000  0.5731840000000  0.5119640000000 1.0
C      1  0.4713170000000  0.4211710000000  0.5093010000000 1.0
C      1  0.5070900000000  0.5515260000000  0.5566230000000 1.0
C      1  0.4968180000000  0.4473410000000  0.5507230000000 1.0
C      1  0.4317120000000  0.5604110000000  0.4837950000000 1.0
C      1  0.5658320000000  0.4497400000000  0.4718220000000 1.0
C      1  0.4519180000000  0.4938430000000  0.4526050000000 1.0
C      1  0.5608410000000  0.5081310000000  0.4514550000000 1.0
C      1  0.5255300000000  0.5200130000000  0.5350470000000 1.0
C      1  0.4739510000000  0.4757590000000  0.5346890000000 1.0
C      1  0.5277000000000  0.5600180000000  0.5382100000000 1.0
C      1  0.4746660000000  0.4358370000000  0.5350940000000 1.0
C      1  0.4715480000000  0.5516190000000  0.5244920000000 1.0
C      1  0.5267840000000  0.4403870000000  0.5256650000000 1.0
C      1  0.4410460000000  0.4724440000000  0.5149920000000 1.0
C      1  0.5610240000000  0.5274940000000  0.5186770000000 1.0
C      1  0.4775490000000  0.4454530000000  0.4530430000000 1.0
C      1  0.5284730000000  0.5539100000000  0.4532840000000 1.0
C      1  0.4153430000000  0.5213560000000  0.5134590000000 1.0
C      1  0.5659610000000  0.4821220000000  0.5102870000000 1.0
C      1  0.5297960000000  0.5310270000000  0.5035550000000 1.0
C      1  0.4730460000000  0.4653930000000  0.5023150000000 1.0
C      1  0.4980500000000  0.5460490000000  0.4586130000000 1.0
C      1  0.5088930000000  0.4556820000000  0.4535140000000 1.0
C      1  0.5295200000000  0.5209750000000  0.4448380000000 1.0
C      1  0.4774600000000  0.4791000000000  0.4480520000000 1.0
C      1  0.5015810000000  0.5337790000000  0.4881270000000 1.0
C      1  0.5013130000000  0.4548190000000  0.4866500000000 1.0
C      1  0.5507380000000  0.5415360000000  0.5426420000000 1.0
C      1  0.4493100000000  0.4525600000000  0.5379710000000 1.0
C      1  0.4732510000000  0.5216610000000  0.5371600000000 1.0
C      1  0.5174160000000  0.4709070000000  0.5373770000000 1.0
C      1  0.4469130000000  0.5137900000000  0.5170810000000 1.0
C      1  0.5395840000000  0.4761330000000  0.5135720000000 1.0
C      1  0.5406300000000  0.4900300000000  0.4361620000000 1.0
C      1  0.4652440000000  0.5148350000000  0.4350400000000 1.0
C      1  0.5531100000000  0.5408820000000  0.4819330000000 1.0
C      1  0.4501510000000  0.4575200000000  0.4792960000000 1.0
C      1  0.4699280000000  0.4298670000000  0.4309070000000 1.0
C      1  0.5352440000000  0.5718570000000  0.4329540000000 1.0
C      1  0.4842120000000  0.5017770000000  0.4158310000000 1.0
C      1  0.4856660000000  0.4922790000000  0.3907440000000 1.0
C      1  0.4971690000000  0.5152620000000  0.6601200000000 1.0
C      1  0.5098270000000  0.5033140000000  0.4747990000000 1.0
C      1  0.5027960000000  0.4999390000000  0.4440390000000 1.0
C      1  0.4981650000000  0.5051300000000  0.6085240000000 1.0
C      1  0.4881250000000  0.4852860000000  0.3656070000000 1.0
C      1  0.4976650000000  0.5102070000000  0.6344120000000 1.0
C      1  0.4933500000000  0.4976600000000  0.5023170000000 1.0
C      1  0.4986410000000  0.4991460000000  0.5347630000000 1.0
C      1  0.4987620000000  0.4992610000000  0.5780710000000 1.0
END
