TITL C-2622954-8726-829 -0.000885791545012828 125000 -875.999993812548 0 0 158 (C1) n - 1
REM
REM in /nfs/bkarasulu/CARBON/AIRSS/Generating-Clusters/AIREBO/with-SteepDescent/Higher-Symm/SD-CG/HFTN-CG
REM
REM
REM
REM
REM
REM ./C.cell (b20cbc046b6831c77cfcea5457e17084)
REM
REM compiler GCC version 9.2.1 20190827 (Red Hat 9.2.1-1)
REM options -cpp -mtune=generic -march=x86-64 -g -O0 -fpre-include=/usr/include/finclude/math-vector-fortran.h
REM seed -1217564879 1297397668 -1150208699 -482676852 2095066782 1825364567 -881781991 1776652377 375111895 1859997850 698708473 -346490775 -2041996513 678505390 -1128243088 1204548364 144987488 189844751 1815690918 224009401 1041822285 -125643897 1993768196 176876828 572794772 -1776959792 -1358735775 -704980909 -1092414580 -1118743637 -1538700202 -1867951574 -2036018529
REM
CELL 1.54180   50.00000   50.00000   50.00000   90.00000   90.00000   90.00000
LATT -1
SFAC C  
C      1  0.4752710000000  0.5348260000000  0.4817290000000 1.0
C      1  0.5192930000000  0.5354440000000  0.4817890000000 1.0
C      1  0.5324760000000  0.5391550000000  0.5129150000000 1.0
C      1  0.5052210000000  0.5308540000000  0.5315160000000 1.0
C      1  0.4825740000000  0.5183070000000  0.5094380000000 1.0
C      1  0.5180050000000  0.4530220000000  0.4788030000000 1.0
C      1  0.4862870000000  0.4536710000000  0.4679250000000 1.0
C      1  0.4748130000000  0.4544010000000  0.5176830000000 1.0
C      1  0.4993850000000  0.4542730000000  0.5404040000000 1.0
C      1  0.5130860000000  0.4636870000000  0.5107160000000 1.0
C      1  0.4421060000000  0.5625910000000  0.5662280000000 1.0
C      1  0.4043310000000  0.5735760000000  0.4760340000000 1.0
C      1  0.4802440000000  0.5771470000000  0.4087520000000 1.0
C      1  0.5727420000000  0.5676500000000  0.4602790000000 1.0
C      1  0.5625310000000  0.5742280000000  0.5615420000000 1.0
C      1  0.5638420000000  0.4513070000000  0.5776040000000 1.0
C      1  0.6136490000000  0.4361010000000  0.4768870000000 1.0
C      1  0.4986950000000  0.4464890000000  0.4132060000000 1.0
C      1  0.4012600000000  0.4586320000000  0.4678000000000 1.0
C      1  0.4665470000000  0.4541130000000  0.5895420000000 1.0
C      1  0.4887690000000  0.3957010000000  0.5465100000000 1.0
C      1  0.4287500000000  0.4102990000000  0.5052980000000 1.0
C      1  0.5096150000000  0.4015880000000  0.4463820000000 1.0
C      1  0.5591830000000  0.3936100000000  0.4694380000000 1.0
C      1  0.5504880000000  0.4010580000000  0.5144920000000 1.0
C      1  0.5120950000000  0.5744400000000  0.5647450000000 1.0
C      1  0.5491350000000  0.6072950000000  0.4958310000000 1.0
C      1  0.5122010000000  0.5989130000000  0.4594670000000 1.0
C      1  0.4604430000000  0.5987810000000  0.4870460000000 1.0
C      1  0.4577730000000  0.5973850000000  0.5397140000000 1.0
C      1  0.3801620000000  0.5298890000000  0.5124740000000 1.0
C      1  0.4528010000000  0.5167460000000  0.4069630000000 1.0
C      1  0.5669890000000  0.5183960000000  0.4293550000000 1.0
C      1  0.5882250000000  0.5247090000000  0.5516290000000 1.0
C      1  0.4846360000000  0.5163190000000  0.5940280000000 1.0
C      1  0.6042500000000  0.4769060000000  0.5127930000000 1.0
C      1  0.5459560000000  0.4712010000000  0.3838460000000 1.0
C      1  0.4350490000000  0.4786940000000  0.4306280000000 1.0
C      1  0.4077550000000  0.4876870000000  0.5420820000000 1.0
C      1  0.5133720000000  0.4695540000000  0.6049260000000 1.0
C      1  0.5701040000000  0.4681980000000  0.4947060000000 1.0
C      1  0.5351300000000  0.4719030000000  0.5560950000000 1.0
C      1  0.4642790000000  0.4810770000000  0.5512400000000 1.0
C      1  0.4518510000000  0.4941000000000  0.4653310000000 1.0
C      1  0.5174450000000  0.4866820000000  0.4419940000000 1.0
C      1  0.4136670000000  0.5198050000000  0.4938340000000 1.0
C      1  0.4630270000000  0.5283050000000  0.5484950000000 1.0
C      1  0.5452880000000  0.5281230000000  0.5404050000000 1.0
C      1  0.5528910000000  0.5202000000000  0.4666260000000 1.0
C      1  0.4865530000000  0.5226410000000  0.4341710000000 1.0
C      1  0.5309400000000  0.4591100000000  0.4459250000000 1.0
C      1  0.5586490000000  0.4394940000000  0.4825130000000 1.0
C      1  0.5311200000000  0.4420080000000  0.5403840000000 1.0
C      1  0.4525880000000  0.4511640000000  0.5627100000000 1.0
C      1  0.4363880000000  0.4359650000000  0.4883120000000 1.0
C      1  0.4954890000000  0.5549170000000  0.4276430000000 1.0
C      1  0.4234350000000  0.5477860000000  0.4830730000000 1.0
C      1  0.4792450000000  0.5525610000000  0.5344920000000 1.0
C      1  0.5389010000000  0.5552850000000  0.5608220000000 1.0
C      1  0.5631110000000  0.5496420000000  0.4774360000000 1.0
C      1  0.4940320000000  0.4064860000000  0.5197460000000 1.0
C      1  0.4651500000000  0.4265320000000  0.5077400000000 1.0
C      1  0.4845130000000  0.4223720000000  0.4811110000000 1.0
C      1  0.5313980000000  0.4245900000000  0.4862580000000 1.0
C      1  0.5226310000000  0.4180040000000  0.5177240000000 1.0
C      1  0.5011180000000  0.5957140000000  0.5176660000000 1.0
C      1  0.5263290000000  0.5849740000000  0.5036410000000 1.0
C      1  0.5139550000000  0.5685320000000  0.4768850000000 1.0
C      1  0.4823810000000  0.5649860000000  0.4842460000000 1.0
C      1  0.4761930000000  0.5734300000000  0.5135610000000 1.0
C      1  0.4308140000000  0.4631620000000  0.5041480000000 1.0
C      1  0.4697720000000  0.4449640000000  0.4404920000000 1.0
C      1  0.5606990000000  0.4607090000000  0.4566290000000 1.0
C      1  0.5626400000000  0.4448840000000  0.5308390000000 1.0
C      1  0.4901760000000  0.4399400000000  0.5703150000000 1.0
C      1  0.5653960000000  0.5470550000000  0.5094360000000 1.0
C      1  0.5269900000000  0.5514150000000  0.4185700000000 1.0
C      1  0.4490140000000  0.5433600000000  0.4654730000000 1.0
C      1  0.4302810000000  0.5247500000000  0.5231870000000 1.0
C      1  0.5139020000000  0.5347800000000  0.5641620000000 1.0
C      1  0.3976470000000  0.5180570000000  0.4643950000000 1.0
C      1  0.5019690000000  0.5243960000000  0.4039040000000 1.0
C      1  0.5847290000000  0.5165550000000  0.4739600000000 1.0
C      1  0.5598680000000  0.5193700000000  0.5697490000000 1.0
C      1  0.4441660000000  0.5231250000000  0.5737490000000 1.0
C      1  0.6009790000000  0.4666380000000  0.4805420000000 1.0
C      1  0.5065510000000  0.4856300000000  0.4112670000000 1.0
C      1  0.4259990000000  0.4900620000000  0.4678500000000 1.0
C      1  0.4333100000000  0.4858400000000  0.5644660000000 1.0
C      1  0.5412830000000  0.4727940000000  0.5865460000000 1.0
C      1  0.5892780000000  0.5250200000000  0.4993830000000 1.0
C      1  0.5324920000000  0.5136780000000  0.5810870000000 1.0
C      1  0.4254370000000  0.5409880000000  0.5526780000000 1.0
C      1  0.4241490000000  0.5275780000000  0.4486380000000 1.0
C      1  0.5324350000000  0.5191640000000  0.4092700000000 1.0
C      1  0.4062250000000  0.4809800000000  0.4918730000000 1.0
C      1  0.4528840000000  0.4802730000000  0.5901130000000 1.0
C      1  0.5764550000000  0.4666960000000  0.5529760000000 1.0
C      1  0.5866980000000  0.4757470000000  0.4525810000000 1.0
C      1  0.4797690000000  0.4725620000000  0.4240830000000 1.0
C      1  0.4962380000000  0.4854960000000  0.4658160000000 1.0
C      1  0.5425760000000  0.4764980000000  0.4799880000000 1.0
C      1  0.5489430000000  0.4948450000000  0.5401310000000 1.0
C      1  0.4966740000000  0.4846980000000  0.5553590000000 1.0
C      1  0.4578830000000  0.4766000000000  0.5071890000000 1.0
C      1  0.4958080000000  0.5186200000000  0.4637810000000 1.0
C      1  0.4728450000000  0.4952500000000  0.4867020000000 1.0
C      1  0.4567930000000  0.5036240000000  0.5269000000000 1.0
C      1  0.5156590000000  0.5014040000000  0.5377600000000 1.0
C      1  0.5342320000000  0.5058520000000  0.4889630000000 1.0
C      1  0.5589500000000  0.5804150000000  0.5130110000000 1.0
C      1  0.4883240000000  0.5887770000000  0.5483960000000 1.0
C      1  0.4446280000000  0.5860520000000  0.5119280000000 1.0
C      1  0.4648940000000  0.5806540000000  0.4629170000000 1.0
C      1  0.5269690000000  0.5716000000000  0.4456070000000 1.0
C      1  0.4416080000000  0.4178420000000  0.5306870000000 1.0
C      1  0.4836540000000  0.4100460000000  0.5667200000000 1.0
C      1  0.5691080000000  0.4028900000000  0.4945870000000 1.0
C      1  0.5322060000000  0.4028860000000  0.4631800000000 1.0
C      1  0.4883900000000  0.4182100000000  0.4502430000000 1.0
C      1  0.5610740000000  0.5449080000000  0.4195590000000 1.0
C      1  0.5877570000000  0.5458770000000  0.5350270000000 1.0
C      1  0.4898090000000  0.5416960000000  0.5810830000000 1.0
C      1  0.4045090000000  0.5468540000000  0.5212500000000 1.0
C      1  0.4485450000000  0.5386740000000  0.4311790000000 1.0
C      1  0.4398500000000  0.4524740000000  0.4408790000000 1.0
C      1  0.4190660000000  0.4592780000000  0.5323910000000 1.0
C      1  0.5149640000000  0.4427700000000  0.5878720000000 1.0
C      1  0.5908730000000  0.4469200000000  0.5213380000000 1.0
C      1  0.5446510000000  0.4479730000000  0.3988520000000 1.0
C      1  0.5313580000000  0.4921410000000  0.3918260000000 1.0
C      1  0.6051110000000  0.5093010000000  0.5146710000000 1.0
C      1  0.5340710000000  0.4962930000000  0.6100370000000 1.0
C      1  0.4129860000000  0.5120300000000  0.5652360000000 1.0
C      1  0.4103860000000  0.4976490000000  0.4402110000000 1.0
C      1  0.4796980000000  0.5040410000000  0.3991210000000 1.0
C      1  0.3749970000000  0.5310400000000  0.4847300000000 1.0
C      1  0.4585430000000  0.5081270000000  0.5941110000000 1.0
C      1  0.5829220000000  0.4956100000000  0.5636030000000 1.0
C      1  0.5852710000000  0.5038420000000  0.4472730000000 1.0
C      1  0.5380400000000  0.4353950000000  0.5728690000000 1.0
C      1  0.4333660000000  0.4397410000000  0.5464400000000 1.0
C      1  0.4242150000000  0.4439010000000  0.4619730000000 1.0
C      1  0.5256140000000  0.4458970000000  0.4194940000000 1.0
C      1  0.5876500000000  0.4292570000000  0.4952380000000 1.0
C      1  0.4738190000000  0.5629490000000  0.5651300000000 1.0
C      1  0.5761640000000  0.5726210000000  0.5381640000000 1.0
C      1  0.5574310000000  0.5689030000000  0.4371070000000 1.0
C      1  0.4647170000000  0.5663010000000  0.4367280000000 1.0
C      1  0.4196560000000  0.5719560000000  0.5062090000000 1.0
C      1  0.5045180000000  0.4948670000000  0.5840210000000 1.0
C      1  0.3974060000000  0.5009050000000  0.5169560000000 1.0
C      1  0.5373170000000  0.5096890000000  0.4405710000000 1.0
C      1  0.5724060000000  0.4828110000000  0.5233100000000 1.0
C      1  0.4619900000000  0.4990800000000  0.4345270000000 1.0
C      1  0.4801890000000  0.3919150000000  0.4955920000000 1.0
C      1  0.4822830000000  0.6124480000000  0.4970750000000 1.0
C      1  0.5215890000000  0.4885530000000  0.5117350000000 1.0
END
