TITL C-2622959-7779-254 -0.000488226914120305 125000 -965.722551629055 0 0 185 (C1) n - 1
REM
REM in /nfs/bkarasulu/CARBON/AIRSS/Generating-Clusters/AIREBO/with-SteepDescent/Higher-Symm/SD-CG/HFTN-CG
REM
REM
REM
REM
REM
REM ./C.cell (b20cbc046b6831c77cfcea5457e17084)
REM
REM compiler GCC version 9.2.1 20190827 (Red Hat 9.2.1-1)
REM options -cpp -mtune=generic -march=x86-64 -g -O0 -fpre-include=/usr/include/finclude/math-vector-fortran.h
REM seed 283715129 -2039054671 -154582461 -915101743 -2079330366 1919859633 -1488756339 -1568266632 -1161729660 200926880 2085176915 -1239772883 473276828 312576041 -1781125182 -1203929002 144869541 1618750548 -1297536367 1002406495 1532016935 -117938498 1734277198 -1777761455 -1912864707 1662953590 718283163 1899191307 -1169628732 -779625255 460614749 -1104325219 2119431765
REM
CELL 1.54180   50.00000   50.00000   50.00000   90.00000   90.00000   90.00000
LATT -1
SFAC C  
C      1  0.4260880000000  0.5316970000000  0.4864340000000 1.0
C      1  0.4907580000000  0.4363260000000  0.5282460000000 1.0
C      1  0.5253950000000  0.4930800000000  0.4270980000000 1.0
C      1  0.5671860000000  0.4745720000000  0.4817730000000 1.0
C      1  0.5708040000000  0.5241080000000  0.5097120000000 1.0
C      1  0.4276690000000  0.4701360000000  0.5161790000000 1.0
C      1  0.5123010000000  0.5597970000000  0.5294520000000 1.0
C      1  0.5083520000000  0.4308130000000  0.4754030000000 1.0
C      1  0.4856380000000  0.5697540000000  0.4689590000000 1.0
C      1  0.4774510000000  0.5040750000000  0.4279200000000 1.0
C      1  0.4838120000000  0.4922670000000  0.5791810000000 1.0
C      1  0.5416620000000  0.4948070000000  0.5933850000000 1.0
C      1  0.5676760000000  0.5231970000000  0.4401040000000 1.0
C      1  0.4341290000000  0.5661360000000  0.5112480000000 1.0
C      1  0.5153730000000  0.4339450000000  0.5688550000000 1.0
C      1  0.4363420000000  0.4814790000000  0.4373260000000 1.0
C      1  0.4332320000000  0.5211950000000  0.5584980000000 1.0
C      1  0.5639200000000  0.4794000000000  0.5565390000000 1.0
C      1  0.5602460000000  0.4304880000000  0.5138110000000 1.0
C      1  0.5662360000000  0.5701650000000  0.4893600000000 1.0
C      1  0.4358500000000  0.4402640000000  0.4905920000000 1.0
C      1  0.4879640000000  0.5641620000000  0.5653300000000 1.0
C      1  0.4870610000000  0.4403520000000  0.4351370000000 1.0
C      1  0.5123510000000  0.5634950000000  0.4356500000000 1.0
C      1  0.3995130000000  0.5052390000000  0.5622570000000 1.0
C      1  0.5588490000000  0.3820700000000  0.5053370000000 1.0
C      1  0.5120480000000  0.5568910000000  0.3870010000000 1.0
C      1  0.6111850000000  0.4842370000000  0.5606760000000 1.0
C      1  0.6057090000000  0.5620540000000  0.4325930000000 1.0
C      1  0.4002810000000  0.4822650000000  0.4371940000000 1.0
C      1  0.4395680000000  0.5987650000000  0.5033720000000 1.0
C      1  0.4327180000000  0.4063330000000  0.4921040000000 1.0
C      1  0.5597980000000  0.6169670000000  0.4977950000000 1.0
C      1  0.4976870000000  0.4382350000000  0.3921280000000 1.0
C      1  0.4656320000000  0.5797640000000  0.5857790000000 1.0
C      1  0.5093640000000  0.4362710000000  0.6246900000000 1.0
C      1  0.4487900000000  0.4195630000000  0.4669270000000 1.0
C      1  0.4654330000000  0.4477010000000  0.4135370000000 1.0
C      1  0.4152680000000  0.4548920000000  0.4397260000000 1.0
C      1  0.5572530000000  0.5905150000000  0.4664420000000 1.0
C      1  0.5521340000000  0.4138270000000  0.5380750000000 1.0
C      1  0.4420130000000  0.5909610000000  0.5339530000000 1.0
C      1  0.5279370000000  0.5533690000000  0.4136420000000 1.0
C      1  0.5353510000000  0.4408100000000  0.5867250000000 1.0
C      1  0.4710220000000  0.5490030000000  0.5906160000000 1.0
C      1  0.5951610000000  0.5420860000000  0.4467390000000 1.0
C      1  0.5810000000000  0.4555020000000  0.5449920000000 1.0
C      1  0.4053870000000  0.5324430000000  0.5467390000000 1.0
C      1  0.4581520000000  0.4156200000000  0.5384430000000 1.0
C      1  0.5352190000000  0.4559770000000  0.4139080000000 1.0
C      1  0.4032470000000  0.5327390000000  0.4469480000000 1.0
C      1  0.5510050000000  0.5870530000000  0.5369600000000 1.0
C      1  0.5478520000000  0.4146530000000  0.4689470000000 1.0
C      1  0.4485130000000  0.5902860000000  0.4656220000000 1.0
C      1  0.4664270000000  0.5402590000000  0.4111060000000 1.0
C      1  0.4657210000000  0.4616860000000  0.5973660000000 1.0
C      1  0.5282870000000  0.5398940000000  0.5926440000000 1.0
C      1  0.5940900000000  0.4748190000000  0.4521930000000 1.0
C      1  0.5888200000000  0.5264880000000  0.5491300000000 1.0
C      1  0.4108180000000  0.4744110000000  0.5528150000000 1.0
C      1  0.4747870000000  0.4498140000000  0.4654650000000 1.0
C      1  0.4685720000000  0.4792280000000  0.4495250000000 1.0
C      1  0.4385220000000  0.4717990000000  0.4780250000000 1.0
C      1  0.5225210000000  0.5546030000000  0.4668740000000 1.0
C      1  0.5233980000000  0.4415720000000  0.5366940000000 1.0
C      1  0.4783040000000  0.5592250000000  0.5330890000000 1.0
C      1  0.5350640000000  0.5292690000000  0.4479270000000 1.0
C      1  0.5312690000000  0.4700580000000  0.5536800000000 1.0
C      1  0.4618420000000  0.5311040000000  0.5428440000000 1.0
C      1  0.5562310000000  0.5381140000000  0.4835450000000 1.0
C      1  0.5568000000000  0.4641900000000  0.5106680000000 1.0
C      1  0.4463210000000  0.5339890000000  0.5129080000000 1.0
C      1  0.3858150000000  0.4874570000000  0.5046090000000 1.0
C      1  0.5118600000000  0.3893520000000  0.4916740000000 1.0
C      1  0.4911670000000  0.5045980000000  0.3807070000000 1.0
C      1  0.6120970000000  0.5039320000000  0.5160900000000 1.0
C      1  0.6223860000000  0.4834930000000  0.5015680000000 1.0
C      1  0.3846730000000  0.5081750000000  0.4861770000000 1.0
C      1  0.4974280000000  0.6109620000000  0.4887970000000 1.0
C      1  0.4885310000000  0.3873000000000  0.5073300000000 1.0
C      1  0.5137560000000  0.6056080000000  0.5108270000000 1.0
C      1  0.5066720000000  0.4819650000000  0.3868220000000 1.0
C      1  0.5183630000000  0.5050010000000  0.6335250000000 1.0
C      1  0.5009240000000  0.4846920000000  0.6288940000000 1.0
C      1  0.4950290000000  0.5254680000000  0.5476650000000 1.0
C      1  0.5618840000000  0.4963510000000  0.5204880000000 1.0
C      1  0.5285100000000  0.5617270000000  0.4996160000000 1.0
C      1  0.5084010000000  0.4719460000000  0.5788130000000 1.0
C      1  0.5033790000000  0.5246120000000  0.4359070000000 1.0
C      1  0.5023290000000  0.4766830000000  0.4459810000000 1.0
C      1  0.4333980000000  0.5032830000000  0.5211370000000 1.0
C      1  0.4317890000000  0.5041140000000  0.4698220000000 1.0
C      1  0.5579010000000  0.5055080000000  0.4744350000000 1.0
C      1  0.4752960000000  0.4407910000000  0.4982740000000 1.0
C      1  0.4725340000000  0.5663250000000  0.5001540000000 1.0
C      1  0.5219180000000  0.4345380000000  0.5034430000000 1.0
C      1  0.5328720000000  0.5148120000000  0.6116730000000 1.0
C      1  0.6005530000000  0.5252820000000  0.5022160000000 1.0
C      1  0.5012170000000  0.5918230000000  0.5321970000000 1.0
C      1  0.4763890000000  0.4887980000000  0.6115090000000 1.0
C      1  0.4640020000000  0.5093550000000  0.3971330000000 1.0
C      1  0.5341390000000  0.4907750000000  0.3943200000000 1.0
C      1  0.4046650000000  0.4661440000000  0.4984340000000 1.0
C      1  0.3969820000000  0.5313670000000  0.4970860000000 1.0
C      1  0.6002740000000  0.4688600000000  0.4845800000000 1.0
C      1  0.4895360000000  0.4035770000000  0.5343870000000 1.0
C      1  0.5034060000000  0.5934030000000  0.4667550000000 1.0
C      1  0.5050940000000  0.3986250000000  0.4649390000000 1.0
C      1  0.5489400000000  0.4889150000000  0.4459830000000 1.0
C      1  0.4515160000000  0.5527360000000  0.4782330000000 1.0
C      1  0.4921190000000  0.4611490000000  0.5515140000000 1.0
C      1  0.4515000000000  0.5174360000000  0.4452100000000 1.0
C      1  0.4637510000000  0.4912250000000  0.5587020000000 1.0
C      1  0.5392820000000  0.5097970000000  0.5642780000000 1.0
C      1  0.5477510000000  0.4545170000000  0.4660970000000 1.0
C      1  0.5524770000000  0.5504410000000  0.5209760000000 1.0
C      1  0.4552300000000  0.4533160000000  0.5227140000000 1.0
C      1  0.5271280000000  0.5365560000000  0.5493650000000 1.0
C      1  0.5204860000000  0.4494110000000  0.4550980000000 1.0
C      1  0.4828510000000  0.5415800000000  0.4506270000000 1.0
C      1  0.4652860000000  0.4999080000000  0.5297600000000 1.0
C      1  0.5235570000000  0.4670990000000  0.5044280000000 1.0
C      1  0.4951090000000  0.5398880000000  0.4806360000000 1.0
C      1  0.5348100000000  0.4971170000000  0.5356740000000 1.0
C      1  0.5251030000000  0.5027620000000  0.4658900000000 1.0
C      1  0.4656660000000  0.5038880000000  0.4727630000000 1.0
C      1  0.4738420000000  0.5244000000000  0.4952320000000 1.0
C      1  0.4629520000000  0.4728090000000  0.4975990000000 1.0
C      1  0.5314160000000  0.5282100000000  0.5045890000000 1.0
C      1  0.5068080000000  0.4831590000000  0.4790940000000 1.0
C      1  0.5113760000000  0.5126460000000  0.5214810000000 1.0
C      1  0.5021800000000  0.4742230000000  0.5263450000000 1.0
C      1  0.4690830000000  0.4773840000000  0.4075510000000 1.0
C      1  0.4095520000000  0.4602090000000  0.4691650000000 1.0
C      1  0.4788290000000  0.4166340000000  0.4661690000000 1.0
C      1  0.5299970000000  0.5201150000000  0.4068180000000 1.0
C      1  0.5409510000000  0.4680020000000  0.6011520000000 1.0
C      1  0.4778050000000  0.5197720000000  0.5982630000000 1.0
C      1  0.6045670000000  0.5286370000000  0.4748830000000 1.0
C      1  0.5902580000000  0.4647350000000  0.5168110000000 1.0
C      1  0.3917650000000  0.5397180000000  0.5235920000000 1.0
C      1  0.5310010000000  0.5871100000000  0.4616040000000 1.0
C      1  0.5221640000000  0.4077830000000  0.5330670000000 1.0
C      1  0.4711650000000  0.5916490000000  0.5337020000000 1.0
C      1  0.5746880000000  0.4889550000000  0.4280600000000 1.0
C      1  0.4236520000000  0.5715330000000  0.4792820000000 1.0
C      1  0.4830100000000  0.4411920000000  0.5764350000000 1.0
C      1  0.4241760000000  0.5123400000000  0.4295410000000 1.0
C      1  0.4348700000000  0.4894380000000  0.5699840000000 1.0
C      1  0.5714850000000  0.5089650000000  0.5715580000000 1.0
C      1  0.5693170000000  0.4348260000000  0.4835130000000 1.0
C      1  0.5775560000000  0.5726770000000  0.5213250000000 1.0
C      1  0.4318960000000  0.4310650000000  0.5232210000000 1.0
C      1  0.5183500000000  0.5624060000000  0.5691100000000 1.0
C      1  0.5190850000000  0.4298690000000  0.4285430000000 1.0
C      1  0.4789900000000  0.5664180000000  0.4296920000000 1.0
C      1  0.5853070000000  0.4445810000000  0.4566290000000 1.0
C      1  0.4527840000000  0.5808840000000  0.4387950000000 1.0
C      1  0.4388630000000  0.4632860000000  0.5874620000000 1.0
C      1  0.4124460000000  0.5588130000000  0.4515870000000 1.0
C      1  0.4173310000000  0.4450930000000  0.5491380000000 1.0
C      1  0.5829720000000  0.5533780000000  0.5479360000000 1.0
C      1  0.5478440000000  0.4200050000000  0.4413650000000 1.0
C      1  0.5455250000000  0.5770310000000  0.5620980000000 1.0
C      1  0.4570260000000  0.4257120000000  0.5668140000000 1.0
C      1  0.5590660000000  0.5378590000000  0.5845080000000 1.0
C      1  0.5625960000000  0.4588780000000  0.4176570000000 1.0
C      1  0.4366740000000  0.5412320000000  0.4166850000000 1.0
C      1  0.5899420000000  0.4938790000000  0.5395620000000 1.0
C      1  0.5440610000000  0.5916520000000  0.5041600000000 1.0
C      1  0.5022030000000  0.5273590000000  0.5788840000000 1.0
C      1  0.4011930000000  0.4965060000000  0.5296890000000 1.0
C      1  0.3994230000000  0.5034550000000  0.4595680000000 1.0
C      1  0.5888270000000  0.5058540000000  0.4607220000000 1.0
C      1  0.4630160000000  0.4098620000000  0.5052860000000 1.0
C      1  0.4688300000000  0.5987230000000  0.4904830000000 1.0
C      1  0.5401000000000  0.4059130000000  0.5008850000000 1.0
C      1  0.5107230000000  0.4607810000000  0.6108980000000 1.0
C      1  0.4976860000000  0.5299020000000  0.4027880000000 1.0
C      1  0.5019850000000  0.4631400000000  0.4147580000000 1.0
C      1  0.5669900000000  0.5605440000000  0.5699810000000 1.0
C      1  0.4332240000000  0.4396640000000  0.5724660000000 1.0
C      1  0.4302080000000  0.5650820000000  0.4305350000000 1.0
C      1  0.5704110000000  0.4364670000000  0.4338540000000 1.0
C      1  0.4877310000000  0.4948510000000  0.5047190000000 1.0
END
