TITL C-2622966-9038-266 -0.648575465458199 125000 -646.42953959132 0 0 120 (C1) n - 1
REM
REM in /nfs/bkarasulu/CARBON/AIRSS/Generating-Clusters/AIREBO/with-SteepDescent/Higher-Symm/SD-CG/HFTN-CG
REM
REM
REM
REM
REM
REM ./C.cell (b20cbc046b6831c77cfcea5457e17084)
REM
REM compiler GCC version 9.2.1 20190827 (Red Hat 9.2.1-1)
REM options -cpp -mtune=generic -march=x86-64 -g -O0 -fpre-include=/usr/include/finclude/math-vector-fortran.h
REM seed 1323987223 1175333587 -1721033323 501050070 941333290 -1526467865 -1230345245 1090685566 -483386021 -243217296 517440939 -305187861 -748096956 2041161124 -1458806628 -2053977452 -27326056 1423282777 -1659211095 -542646740 920556330 -430172089 -994797155 -1796293588 -2010078460 1619290944 1029384644 1186503071 -521337593 -1956653807 974099184 821139748 -393745862
REM
CELL 1.54180   50.00000   50.00000   50.00000   90.00000   90.00000   90.00000
LATT -1
SFAC C  
C      1  0.5458700000000  0.5383420000000  0.4947940000000 1.0
C      1  0.5515850000000  0.5209480000000  0.4676050000000 1.0
C      1  0.5406300000000  0.4661520000000  0.4814770000000 1.0
C      1  0.5434320000000  0.4650900000000  0.5139210000000 1.0
C      1  0.5508760000000  0.5171680000000  0.5477010000000 1.0
C      1  0.4535380000000  0.5338550000000  0.5066900000000 1.0
C      1  0.4553450000000  0.5065850000000  0.4706840000000 1.0
C      1  0.4548230000000  0.4763450000000  0.4863630000000 1.0
C      1  0.4457760000000  0.4746270000000  0.5176060000000 1.0
C      1  0.4488700000000  0.5069050000000  0.5283430000000 1.0
C      1  0.4286650000000  0.4918400000000  0.4276850000000 1.0
C      1  0.4238190000000  0.4454100000000  0.4873410000000 1.0
C      1  0.3761730000000  0.4536040000000  0.5541430000000 1.0
C      1  0.4320920000000  0.5514270000000  0.5581500000000 1.0
C      1  0.3901300000000  0.5641200000000  0.4812720000000 1.0
C      1  0.5990210000000  0.5089780000000  0.4622830000000 1.0
C      1  0.5910870000000  0.4557360000000  0.4797160000000 1.0
C      1  0.5804850000000  0.4619710000000  0.5399360000000 1.0
C      1  0.6012410000000  0.5140890000000  0.5444590000000 1.0
C      1  0.5998810000000  0.5500480000000  0.4980150000000 1.0
C      1  0.5204120000000  0.4862370000000  0.4714640000000 1.0
C      1  0.5195450000000  0.4789860000000  0.5284710000000 1.0
C      1  0.5238200000000  0.5101780000000  0.5333070000000 1.0
C      1  0.5184280000000  0.5252690000000  0.5074270000000 1.0
C      1  0.5179800000000  0.5201280000000  0.4727560000000 1.0
C      1  0.4874730000000  0.4820980000000  0.4788120000000 1.0
C      1  0.4925020000000  0.4696360000000  0.5100730000000 1.0
C      1  0.4806580000000  0.4948920000000  0.5295320000000 1.0
C      1  0.4853590000000  0.5255890000000  0.5153900000000 1.0
C      1  0.4850130000000  0.5155830000000  0.4828970000000 1.0
C      1  0.4844630000000  0.5860880000000  0.5330040000000 1.0
C      1  0.4760660000000  0.5622870000000  0.4159800000000 1.0
C      1  0.4892260000000  0.4587590000000  0.4199330000000 1.0
C      1  0.4769360000000  0.4123950000000  0.5168430000000 1.0
C      1  0.4940670000000  0.4934660000000  0.5880730000000 1.0
C      1  0.5145510000000  0.5962730000000  0.5313700000000 1.0
C      1  0.5088150000000  0.5544970000000  0.4207950000000 1.0
C      1  0.5148050000000  0.4481450000000  0.4148950000000 1.0
C      1  0.5052180000000  0.3952660000000  0.5238000000000 1.0
C      1  0.5249370000000  0.4929780000000  0.5916210000000 1.0
C      1  0.4830670000000  0.5248840000000  0.4274890000000 1.0
C      1  0.4842740000000  0.4403560000000  0.4582590000000 1.0
C      1  0.4898630000000  0.4482270000000  0.5363720000000 1.0
C      1  0.4873640000000  0.5194340000000  0.5696940000000 1.0
C      1  0.4880690000000  0.5733250000000  0.4953820000000 1.0
C      1  0.5002420000000  0.5277680000000  0.4035970000000 1.0
C      1  0.5086090000000  0.4522740000000  0.4541740000000 1.0
C      1  0.5106910000000  0.4279760000000  0.5313030000000 1.0
C      1  0.5112650000000  0.5276310000000  0.5564410000000 1.0
C      1  0.5103950000000  0.5643070000000  0.5082240000000 1.0
C      1  0.5703940000000  0.4773030000000  0.4871910000000 1.0
C      1  0.5719360000000  0.4832020000000  0.5189830000000 1.0
C      1  0.5743270000000  0.5119140000000  0.5294860000000 1.0
C      1  0.5715100000000  0.5358170000000  0.5106940000000 1.0
C      1  0.5748830000000  0.5024730000000  0.4710900000000 1.0
C      1  0.4154870000000  0.4726060000000  0.4921020000000 1.0
C      1  0.4136080000000  0.4809090000000  0.5235430000000 1.0
C      1  0.4153430000000  0.5125220000000  0.5291040000000 1.0
C      1  0.4237310000000  0.5228900000000  0.4993640000000 1.0
C      1  0.4231270000000  0.4990820000000  0.4785930000000 1.0
C      1  0.5431160000000  0.4346260000000  0.5258030000000 1.0
C      1  0.5474960000000  0.5302030000000  0.5727110000000 1.0
C      1  0.5370320000000  0.5688010000000  0.4916260000000 1.0
C      1  0.5440540000000  0.5218450000000  0.4372380000000 1.0
C      1  0.5367720000000  0.4398810000000  0.4635290000000 1.0
C      1  0.4561350000000  0.4525380000000  0.5361130000000 1.0
C      1  0.4551830000000  0.5188670000000  0.5595550000000 1.0
C      1  0.4558360000000  0.5628370000000  0.4981420000000 1.0
C      1  0.4543200000000  0.5189040000000  0.4419070000000 1.0
C      1  0.4562910000000  0.4569480000000  0.4593270000000 1.0
C      1  0.5327920000000  0.5972540000000  0.5099350000000 1.0
C      1  0.5402520000000  0.5464440000000  0.4256840000000 1.0
C      1  0.5366880000000  0.4388970000000  0.4295350000000 1.0
C      1  0.5387760000000  0.4014050000000  0.5236330000000 1.0
C      1  0.5435940000000  0.5121010000000  0.5941300000000 1.0
C      1  0.4599910000000  0.5884250000000  0.5192510000000 1.0
C      1  0.4501760000000  0.5464330000000  0.4223670000000 1.0
C      1  0.4616080000000  0.4529950000000  0.4278870000000 1.0
C      1  0.4555450000000  0.4207300000000  0.5323820000000 1.0
C      1  0.4630970000000  0.5075270000000  0.5906170000000 1.0
C      1  0.4051230000000  0.4252200000000  0.4892510000000 1.0
C      1  0.3926420000000  0.4658600000000  0.5389830000000 1.0
C      1  0.4147150000000  0.5355330000000  0.5500040000000 1.0
C      1  0.4045760000000  0.5452390000000  0.4905570000000 1.0
C      1  0.4164970000000  0.4999640000000  0.4478090000000 1.0
C      1  0.6081400000000  0.4377460000000  0.4736600000000 1.0
C      1  0.6065690000000  0.4593730000000  0.5475220000000 1.0
C      1  0.6234040000000  0.5156800000000  0.5570090000000 1.0
C      1  0.5860980000000  0.5649500000000  0.5204190000000 1.0
C      1  0.6232550000000  0.5165950000000  0.4558380000000 1.0
C      1  0.4556780000000  0.4512350000000  0.5864950000000 1.0
C      1  0.4794920000000  0.5618190000000  0.5853030000000 1.0
C      1  0.4712530000000  0.5934410000000  0.4769830000000 1.0
C      1  0.4667160000000  0.4837730000000  0.3932480000000 1.0
C      1  0.4746230000000  0.4140500000000  0.4686040000000 1.0
C      1  0.5424000000000  0.4553930000000  0.5688670000000 1.0
C      1  0.5042330000000  0.5633650000000  0.5903570000000 1.0
C      1  0.5418390000000  0.5877290000000  0.4459100000000 1.0
C      1  0.5200270000000  0.5082860000000  0.3995180000000 1.0
C      1  0.5468940000000  0.3932330000000  0.4749090000000 1.0
C      1  0.4543820000000  0.4364060000000  0.4844340000000 1.0
C      1  0.4652950000000  0.4608250000000  0.5644110000000 1.0
C      1  0.4645260000000  0.5507630000000  0.5601600000000 1.0
C      1  0.4623960000000  0.5661490000000  0.4660490000000 1.0
C      1  0.4608120000000  0.4924580000000  0.4215480000000 1.0
C      1  0.5328150000000  0.4148420000000  0.4787470000000 1.0
C      1  0.5586140000000  0.4473790000000  0.5487930000000 1.0
C      1  0.5255790000000  0.5533790000000  0.5695900000000 1.0
C      1  0.5305140000000  0.5711640000000  0.4625290000000 1.0
C      1  0.5324560000000  0.5006000000000  0.4236760000000 1.0
C      1  0.5121780000000  0.5479810000000  0.4540040000000 1.0
C      1  0.5173740000000  0.4810630000000  0.4394790000000 1.0
C      1  0.5120140000000  0.4177330000000  0.4989070000000 1.0
C      1  0.5195260000000  0.4763650000000  0.5624820000000 1.0
C      1  0.5160760000000  0.5640240000000  0.5417560000000 1.0
C      1  0.4800800000000  0.5517440000000  0.4481300000000 1.0
C      1  0.4837280000000  0.4818210000000  0.4443140000000 1.0
C      1  0.4851260000000  0.4386120000000  0.4982020000000 1.0
C      1  0.4866620000000  0.4814530000000  0.5578550000000 1.0
C      1  0.4851200000000  0.5522100000000  0.5366100000000 1.0
END
