TITL C-2622964-2985-558 0.00187509633633078 125000 -381.789292185959 0 0 68 (C1) n - 1
REM
REM in /nfs/bkarasulu/CARBON/AIRSS/Generating-Clusters/AIREBO/with-SteepDescent/Higher-Symm/SD-CG/HFTN-CG
REM
REM
REM
REM
REM
REM ./C.cell (b20cbc046b6831c77cfcea5457e17084)
REM
REM compiler GCC version 9.2.1 20190827 (Red Hat 9.2.1-1)
REM options -cpp -mtune=generic -march=x86-64 -g -O0 -fpre-include=/usr/include/finclude/math-vector-fortran.h
REM seed 512757158 851595998 262555297 -318865898 1232403458 1349038636 -1223222072 1970483614 -1231124372 989566251 -7240143 1258112269 -852154197 591932798 -1006807854 1722694262 -1681732049 -232349840 1075138956 573831742 300135021 371149145 1619935995 910574880 -808010812 250662263 -31830995 -299558486 850823141 591115102 54553706 1821706503 2080272880
REM
CELL 1.54180   50.00000   50.00000   50.00000   90.00000   90.00000   90.00000
LATT -1
SFAC C  
C      1  0.5072390000000  0.5278710000000  0.5069590000000 1.0
C      1  0.4901990000000  0.4691260000000  0.5074960000000 1.0
C      1  0.5585940000000  0.4584860000000  0.4662480000000 1.0
C      1  0.4443620000000  0.5364980000000  0.4690880000000 1.0
C      1  0.4628040000000  0.4789670000000  0.5821390000000 1.0
C      1  0.5322520000000  0.5196320000000  0.5827720000000 1.0
C      1  0.5026910000000  0.4412150000000  0.5006140000000 1.0
C      1  0.4984520000000  0.5547980000000  0.5028340000000 1.0
C      1  0.4870650000000  0.4317220000000  0.5218390000000 1.0
C      1  0.5118720000000  0.5689170000000  0.5231180000000 1.0
C      1  0.4656090000000  0.5534650000000  0.4611790000000 1.0
C      1  0.5351590000000  0.4456710000000  0.4579030000000 1.0
C      1  0.5510060000000  0.5359410000000  0.4625120000000 1.0
C      1  0.4480270000000  0.4625520000000  0.4610100000000 1.0
C      1  0.5062180000000  0.5339640000000  0.4382380000000 1.0
C      1  0.4935180000000  0.4673490000000  0.4354350000000 1.0
C      1  0.5292610000000  0.4874240000000  0.5470050000000 1.0
C      1  0.4662510000000  0.5118990000000  0.5485280000000 1.0
C      1  0.5196050000000  0.4778060000000  0.4120720000000 1.0
C      1  0.4732560000000  0.5222730000000  0.4191190000000 1.0
C      1  0.4529830000000  0.5072660000000  0.4671700000000 1.0
C      1  0.5548400000000  0.4893940000000  0.4683690000000 1.0
C      1  0.4568640000000  0.4016250000000  0.5577810000000 1.0
C      1  0.5532000000000  0.5953820000000  0.5503280000000 1.0
C      1  0.4588750000000  0.4716280000000  0.5151900000000 1.0
C      1  0.5385910000000  0.5262060000000  0.5145890000000 1.0
C      1  0.4232460000000  0.5355520000000  0.4885020000000 1.0
C      1  0.5758820000000  0.4630840000000  0.4898870000000 1.0
C      1  0.5679890000000  0.6138960000000  0.5615280000000 1.0
C      1  0.4469520000000  0.3819300000000  0.5719510000000 1.0
C      1  0.4793560000000  0.5475260000000  0.4363620000000 1.0
C      1  0.5231710000000  0.4540770000000  0.4339070000000 1.0
C      1  0.5280840000000  0.5445120000000  0.5393050000000 1.0
C      1  0.4718390000000  0.4548100000000  0.5399440000000 1.0
C      1  0.4670640000000  0.5421950000000  0.5562070000000 1.0
C      1  0.5309850000000  0.4607040000000  0.5644210000000 1.0
C      1  0.4815150000000  0.5630150000000  0.4824120000000 1.0
C      1  0.5180760000000  0.4361280000000  0.4784180000000 1.0
C      1  0.5249260000000  0.4974620000000  0.4575150000000 1.0
C      1  0.4666500000000  0.5020880000000  0.4421260000000 1.0
C      1  0.5084630000000  0.4544720000000  0.5744520000000 1.0
C      1  0.4883810000000  0.5486490000000  0.5685300000000 1.0
C      1  0.5121390000000  0.5302100000000  0.5613760000000 1.0
C      1  0.4851300000000  0.4707970000000  0.5623160000000 1.0
C      1  0.4539940000000  0.5033060000000  0.5213820000000 1.0
C      1  0.5428690000000  0.4954680000000  0.5212600000000 1.0
C      1  0.5425430000000  0.4974390000000  0.5751610000000 1.0
C      1  0.4508300000000  0.4996990000000  0.5733490000000 1.0
C      1  0.4268160000000  0.5164050000000  0.5150170000000 1.0
C      1  0.5698570000000  0.4820840000000  0.5157680000000 1.0
C      1  0.4417950000000  0.4621090000000  0.4926660000000 1.0
C      1  0.5573820000000  0.5365270000000  0.4937370000000 1.0
C      1  0.4663830000000  0.4585280000000  0.4428090000000 1.0
C      1  0.5321880000000  0.5417110000000  0.4440310000000 1.0
C      1  0.5365330000000  0.5768270000000  0.5409820000000 1.0
C      1  0.4689640000000  0.4216490000000  0.5450550000000 1.0
C      1  0.5879200000000  0.4928960000000  0.4918410000000 1.0
C      1  0.4106030000000  0.5055340000000  0.4895050000000 1.0
C      1  0.4293870000000  0.4870420000000  0.4745820000000 1.0
C      1  0.5742620000000  0.5145770000000  0.4742600000000 1.0
C      1  0.5318040000000  0.4947810000000  0.4907960000000 1.0
C      1  0.4695700000000  0.5023900000000  0.4920140000000 1.0
C      1  0.4973860000000  0.5026580000000  0.4045690000000 1.0
C      1  0.5004150000000  0.5005180000000  0.4383920000000 1.0
C      1  0.4955550000000  0.5051010000000  0.3767840000000 1.0
C      1  0.4972820000000  0.5001410000000  0.5202470000000 1.0
C      1  0.5003970000000  0.4931190000000  0.4884530000000 1.0
C      1  0.4981600000000  0.5004620000000  0.5515420000000 1.0
END
