TITL C-2622953-3516-5 -0.0022525681583748 125000 -618.36247645035 0 0 112 (C1) n - 1
REM
REM in /nfs/bkarasulu/CARBON/AIRSS/Generating-Clusters/AIREBO/with-SteepDescent/Higher-Symm/SD-CG/HFTN-CG
REM
REM
REM
REM
REM
REM ./C.cell (b20cbc046b6831c77cfcea5457e17084)
REM
REM compiler GCC version 9.2.1 20190827 (Red Hat 9.2.1-1)
REM options -cpp -mtune=generic -march=x86-64 -g -O0 -fpre-include=/usr/include/finclude/math-vector-fortran.h
REM seed -64864491 1710759777 -1351051429 -469667686 1305633341 -1944749370 -465214074 1542974060 -224233506 157609247 -1324087525 -507781350 1549577331 264010525 -581278077 -352810389 -1587044335 97397693 -1362686215 -993128159 1357690573 1948101588 -711149248 2020847708 -615129152 1386746842 -295839257 152549687 -317465492 229909961 1418258556 1532903492 -1623365785
REM
CELL 1.54180   50.00000   50.00000   50.00000   90.00000   90.00000   90.00000
LATT -1
SFAC C  
C      1  0.4942830000000  0.5265360000000  0.4672150000000 1.0
C      1  0.4993370000000  0.5481370000000  0.5380960000000 1.0
C      1  0.5332870000000  0.5258110000000  0.4590580000000 1.0
C      1  0.5412030000000  0.4928340000000  0.5331380000000 1.0
C      1  0.5406290000000  0.4814180000000  0.4627280000000 1.0
C      1  0.5126770000000  0.4580010000000  0.5356900000000 1.0
C      1  0.4900830000000  0.4739330000000  0.4643430000000 1.0
C      1  0.4652860000000  0.4785040000000  0.5389480000000 1.0
C      1  0.4609350000000  0.4907880000000  0.4703580000000 1.0
C      1  0.4687790000000  0.5362020000000  0.5438230000000 1.0
C      1  0.4420670000000  0.4786740000000  0.4455230000000 1.0
C      1  0.4403480000000  0.5205490000000  0.5539910000000 1.0
C      1  0.4674630000000  0.5368100000000  0.4490300000000 1.0
C      1  0.4886510000000  0.5647720000000  0.5657620000000 1.0
C      1  0.5308530000000  0.5524250000000  0.4380200000000 1.0
C      1  0.5510280000000  0.5217540000000  0.5481170000000 1.0
C      1  0.5625660000000  0.4876490000000  0.4374760000000 1.0
C      1  0.5365580000000  0.4441220000000  0.5524130000000 1.0
C      1  0.5049720000000  0.4482350000000  0.4477320000000 1.0
C      1  0.4597530000000  0.4491270000000  0.5551830000000 1.0
C      1  0.4698820000000  0.4466180000000  0.4665120000000 1.0
C      1  0.4318770000000  0.4721620000000  0.5382060000000 1.0
C      1  0.4314190000000  0.5080130000000  0.4704820000000 1.0
C      1  0.4448720000000  0.5601690000000  0.5472560000000 1.0
C      1  0.4983430000000  0.5595060000000  0.4599420000000 1.0
C      1  0.5290990000000  0.5644900000000  0.5361950000000 1.0
C      1  0.5666590000000  0.5337130000000  0.4556940000000 1.0
C      1  0.5747050000000  0.4909830000000  0.5386830000000 1.0
C      1  0.5501060000000  0.4499880000000  0.4716040000000 1.0
C      1  0.5109740000000  0.4247800000000  0.5286190000000 1.0
C      1  0.4857140000000  0.5854860000000  0.5390950000000 1.0
C      1  0.5367560000000  0.5661010000000  0.4685930000000 1.0
C      1  0.5679550000000  0.5373050000000  0.5284090000000 1.0
C      1  0.5797530000000  0.4893760000000  0.4644910000000 1.0
C      1  0.5601290000000  0.4373320000000  0.5300670000000 1.0
C      1  0.5143120000000  0.4249920000000  0.4678520000000 1.0
C      1  0.4597040000000  0.4195160000000  0.5382800000000 1.0
C      1  0.4260010000000  0.4686880000000  0.4731130000000 1.0
C      1  0.4221090000000  0.5299460000000  0.5274030000000 1.0
C      1  0.4559790000000  0.5603430000000  0.4693350000000 1.0
C      1  0.5736760000000  0.4680600000000  0.4877210000000 1.0
C      1  0.5544330000000  0.4285690000000  0.4976960000000 1.0
C      1  0.4979690000000  0.4325660000000  0.4916050000000 1.0
C      1  0.4499290000000  0.4352050000000  0.5097410000000 1.0
C      1  0.4216610000000  0.4857780000000  0.5021900000000 1.0
C      1  0.4361060000000  0.5396300000000  0.4979670000000 1.0
C      1  0.4623230000000  0.5695560000000  0.5002800000000 1.0
C      1  0.5083180000000  0.5798730000000  0.5156010000000 1.0
C      1  0.5549360000000  0.5516840000000  0.4930360000000 1.0
C      1  0.5828570000000  0.5244210000000  0.5024810000000 1.0
C      1  0.5105420000000  0.5432220000000  0.5760800000000 1.0
C      1  0.5370750000000  0.5269470000000  0.4194670000000 1.0
C      1  0.5462660000000  0.4941010000000  0.5667000000000 1.0
C      1  0.5423050000000  0.4674970000000  0.4238090000000 1.0
C      1  0.5099620000000  0.4420570000000  0.5722050000000 1.0
C      1  0.4841170000000  0.4513490000000  0.4252920000000 1.0
C      1  0.4496490000000  0.4725060000000  0.5751720000000 1.0
C      1  0.4475010000000  0.4967250000000  0.4193970000000 1.0
C      1  0.4556000000000  0.5296410000000  0.5809520000000 1.0
C      1  0.4818850000000  0.5422630000000  0.4228520000000 1.0
C      1  0.4751990000000  0.5114330000000  0.5903490000000 1.0
C      1  0.4893570000000  0.5181300000000  0.4114180000000 1.0
C      1  0.5019100000000  0.5176040000000  0.5830470000000 1.0
C      1  0.5147820000000  0.5070630000000  0.4230850000000 1.0
C      1  0.5148660000000  0.4965900000000  0.5701780000000 1.0
C      1  0.5199770000000  0.4794110000000  0.4109490000000 1.0
C      1  0.4954660000000  0.4660260000000  0.5862000000000 1.0
C      1  0.4911240000000  0.4716630000000  0.4073820000000 1.0
C      1  0.4708730000000  0.4828080000000  0.5905180000000 1.0
C      1  0.4730730000000  0.4952860000000  0.4072090000000 1.0
C      1  0.4026780000000  0.4998050000000  0.4780990000000 1.0
C      1  0.4249670000000  0.5621930000000  0.5210200000000 1.0
C      1  0.4794090000000  0.5829680000000  0.4742520000000 1.0
C      1  0.5189080000000  0.6113310000000  0.5165050000000 1.0
C      1  0.5703600000000  0.5641670000000  0.4652450000000 1.0
C      1  0.5945550000000  0.5077840000000  0.5275730000000 1.0
C      1  0.5986690000000  0.4517230000000  0.4868460000000 1.0
C      1  0.5328170000000  0.4118670000000  0.5168150000000 1.0
C      1  0.4688550000000  0.4186680000000  0.4867080000000 1.0
C      1  0.4246590000000  0.4482610000000  0.5254440000000 1.0
C      1  0.5548930000000  0.5627190000000  0.5215990000000 1.0
C      1  0.5836340000000  0.5155650000000  0.4726590000000 1.0
C      1  0.5678960000000  0.4662060000000  0.5200590000000 1.0
C      1  0.5377370000000  0.4122020000000  0.4742230000000 1.0
C      1  0.4834650000000  0.4148820000000  0.5168590000000 1.0
C      1  0.4403160000000  0.4455760000000  0.4800380000000 1.0
C      1  0.4151020000000  0.5000760000000  0.5307600000000 1.0
C      1  0.4312620000000  0.5408120000000  0.4651540000000 1.0
C      1  0.4599290000000  0.5803880000000  0.5274290000000 1.0
C      1  0.5120360000000  0.5809610000000  0.4818180000000 1.0
C      1  0.4985900000000  0.4641080000000  0.4957700000000 1.0
C      1  0.4703450000000  0.4623040000000  0.5099310000000 1.0
C      1  0.4536010000000  0.4882660000000  0.5012110000000 1.0
C      1  0.4638910000000  0.5091310000000  0.5238580000000 1.0
C      1  0.4686210000000  0.5363520000000  0.5040080000000 1.0
C      1  0.4987960000000  0.5485110000000  0.5054620000000 1.0
C      1  0.5199430000000  0.5329020000000  0.4886010000000 1.0
C      1  0.5503390000000  0.5187140000000  0.4942870000000 1.0
C      1  0.5467530000000  0.4882660000000  0.4939420000000 1.0
C      1  0.5238410000000  0.4755580000000  0.5117300000000 1.0
C      1  0.5328190000000  0.5438100000000  0.5593580000000 1.0
C      1  0.5621670000000  0.5170280000000  0.4292880000000 1.0
C      1  0.5597980000000  0.4654650000000  0.5558420000000 1.0
C      1  0.5355590000000  0.4474510000000  0.4426620000000 1.0
C      1  0.4879520000000  0.4316060000000  0.5528370000000 1.0
C      1  0.4569580000000  0.4511990000000  0.4365070000000 1.0
C      1  0.4279940000000  0.4925610000000  0.5631730000000 1.0
C      1  0.4426260000000  0.5184440000000  0.4417840000000 1.0
C      1  0.4603540000000  0.5581630000000  0.5760450000000 1.0
C      1  0.5024630000000  0.5627230000000  0.4279430000000 1.0
C      1  0.5123540000000  0.4991550000000  0.4560830000000 1.0
C      1  0.4959400000000  0.4754030000000  0.5535180000000 1.0
END
