TITL C-2622957-9142-467 0.00176355049132162 125000 -908.231076979383 0 0 173 (C1) n - 1
REM
REM in /nfs/bkarasulu/CARBON/AIRSS/Generating-Clusters/AIREBO/with-SteepDescent/Higher-Symm/SD-CG/HFTN-CG
REM
REM
REM
REM
REM
REM ./C.cell (b20cbc046b6831c77cfcea5457e17084)
REM
REM compiler GCC version 9.2.1 20190827 (Red Hat 9.2.1-1)
REM options -cpp -mtune=generic -march=x86-64 -g -O0 -fpre-include=/usr/include/finclude/math-vector-fortran.h
REM seed 1584972018 1211684497 -900040987 1779624913 -2023701408 -226578479 -820834086 334389105 -905945333 46427273 -1700094412 1646533037 1979232663 103376528 -203720718 -225685256 -509944491 96295508 1461430410 494767779 312932748 583943758 -1885865084 -2144672802 -392480817 -1089815807 -485499478 1674708425 1667667030 1122465588 957713786 -1224269688 1032795056
REM
CELL 1.54180   50.00000   50.00000   50.00000   90.00000   90.00000   90.00000
LATT -1
SFAC C  
C      1  0.5876670000000  0.5474810000000  0.5368890000000 1.0
C      1  0.6030180000000  0.5372440000000  0.4580090000000 1.0
C      1  0.5872190000000  0.4331960000000  0.5269640000000 1.0
C      1  0.5222040000000  0.4731100000000  0.5846640000000 1.0
C      1  0.5178090000000  0.5837930000000  0.4809520000000 1.0
C      1  0.5146750000000  0.4435830000000  0.4323380000000 1.0
C      1  0.5156010000000  0.4844540000000  0.5179370000000 1.0
C      1  0.5187170000000  0.5252060000000  0.5124930000000 1.0
C      1  0.5232500000000  0.4993520000000  0.4684750000000 1.0
C      1  0.6100900000000  0.5355280000000  0.5138880000000 1.0
C      1  0.6044220000000  0.5097080000000  0.4725240000000 1.0
C      1  0.6085500000000  0.4767890000000  0.5155620000000 1.0
C      1  0.4530940000000  0.4509280000000  0.4269340000000 1.0
C      1  0.4574770000000  0.4651170000000  0.5873800000000 1.0
C      1  0.4596640000000  0.5932580000000  0.4757880000000 1.0
C      1  0.4821430000000  0.4554580000000  0.6035120000000 1.0
C      1  0.4883240000000  0.6107940000000  0.4804510000000 1.0
C      1  0.4811210000000  0.4400430000000  0.4109240000000 1.0
C      1  0.4930420000000  0.5605330000000  0.4823630000000 1.0
C      1  0.4864520000000  0.4586500000000  0.4568920000000 1.0
C      1  0.4853050000000  0.4796350000000  0.5575600000000 1.0
C      1  0.4336010000000  0.4727060000000  0.4741670000000 1.0
C      1  0.4337780000000  0.4837080000000  0.5319940000000 1.0
C      1  0.4343600000000  0.5252780000000  0.4976210000000 1.0
C      1  0.5265690000000  0.5598490000000  0.5847300000000 1.0
C      1  0.5337400000000  0.5425280000000  0.4071890000000 1.0
C      1  0.5317470000000  0.3986520000000  0.5074410000000 1.0
C      1  0.4940550000000  0.5098380000000  0.4545560000000 1.0
C      1  0.4984060000000  0.4554580000000  0.5223970000000 1.0
C      1  0.4971990000000  0.5388370000000  0.5326240000000 1.0
C      1  0.4545760000000  0.4971300000000  0.5758300000000 1.0
C      1  0.4581250000000  0.5647410000000  0.4634120000000 1.0
C      1  0.4509520000000  0.4321490000000  0.4740960000000 1.0
C      1  0.4595950000000  0.5118240000000  0.3975360000000 1.0
C      1  0.4534500000000  0.4025220000000  0.5434910000000 1.0
C      1  0.4466390000000  0.5891510000000  0.5587040000000 1.0
C      1  0.5109800000000  0.5371630000000  0.4561350000000 1.0
C      1  0.5028800000000  0.4508930000000  0.4922550000000 1.0
C      1  0.5092780000000  0.5239140000000  0.5578150000000 1.0
C      1  0.5481000000000  0.5515790000000  0.5159870000000 1.0
C      1  0.5452860000000  0.4829580000000  0.4394430000000 1.0
C      1  0.5408360000000  0.4561580000000  0.5390680000000 1.0
C      1  0.4685860000000  0.5025770000000  0.6063530000000 1.0
C      1  0.4805380000000  0.6109410000000  0.4270080000000 1.0
C      1  0.4636780000000  0.4090910000000  0.4525240000000 1.0
C      1  0.4450610000000  0.5534220000000  0.5134320000000 1.0
C      1  0.4577380000000  0.4756690000000  0.4503670000000 1.0
C      1  0.4573260000000  0.4637000000000  0.5462050000000 1.0
C      1  0.5447950000000  0.5339310000000  0.4545190000000 1.0
C      1  0.5333190000000  0.4518280000000  0.4814520000000 1.0
C      1  0.5368710000000  0.5082360000000  0.5458240000000 1.0
C      1  0.5190110000000  0.4791550000000  0.5513550000000 1.0
C      1  0.5226020000000  0.5536100000000  0.4976870000000 1.0
C      1  0.5190500000000  0.4682660000000  0.4553230000000 1.0
C      1  0.3994480000000  0.5665260000000  0.4986590000000 1.0
C      1  0.3921430000000  0.4595970000000  0.4383880000000 1.0
C      1  0.3961590000000  0.4566800000000  0.5633020000000 1.0
C      1  0.3970900000000  0.4537720000000  0.5093830000000 1.0
C      1  0.3941730000000  0.5233950000000  0.5323760000000 1.0
C      1  0.3980760000000  0.5080300000000  0.4609580000000 1.0
C      1  0.3913360000000  0.4844830000000  0.4845450000000 1.0
C      1  0.3918110000000  0.4860990000000  0.5185090000000 1.0
C      1  0.3909210000000  0.5149690000000  0.4995950000000 1.0
C      1  0.5132400000000  0.4275660000000  0.5349020000000 1.0
C      1  0.5030000000000  0.5668770000000  0.5437780000000 1.0
C      1  0.5059860000000  0.5124810000000  0.4251130000000 1.0
C      1  0.5728980000000  0.4716700000000  0.4229280000000 1.0
C      1  0.5727950000000  0.4474680000000  0.5471840000000 1.0
C      1  0.5736400000000  0.5737220000000  0.5197850000000 1.0
C      1  0.4894370000000  0.5614660000000  0.4499320000000 1.0
C      1  0.4842560000000  0.4313380000000  0.4782490000000 1.0
C      1  0.4852070000000  0.5109960000000  0.5707350000000 1.0
C      1  0.5378200000000  0.4622330000000  0.4062590000000 1.0
C      1  0.5391750000000  0.4377520000000  0.5790170000000 1.0
C      1  0.5365730000000  0.5973500000000  0.5135000000000 1.0
C      1  0.4220830000000  0.5769880000000  0.5089070000000 1.0
C      1  0.4061260000000  0.4673940000000  0.4164720000000 1.0
C      1  0.4146640000000  0.4423760000000  0.5772470000000 1.0
C      1  0.5386820000000  0.4041040000000  0.4756010000000 1.0
C      1  0.5343520000000  0.5269440000000  0.5810890000000 1.0
C      1  0.5428730000000  0.5653440000000  0.4298510000000 1.0
C      1  0.5735710000000  0.4788230000000  0.4550560000000 1.0
C      1  0.5653050000000  0.4775440000000  0.5362280000000 1.0
C      1  0.5753560000000  0.5474670000000  0.4986160000000 1.0
C      1  0.4882860000000  0.5237290000000  0.6082820000000 1.0
C      1  0.4985360000000  0.5902880000000  0.4188880000000 1.0
C      1  0.4862850000000  0.3940740000000  0.4644050000000 1.0
C      1  0.5682480000000  0.5295320000000  0.5824420000000 1.0
C      1  0.5746080000000  0.5639710000000  0.4194370000000 1.0
C      1  0.5726740000000  0.4033610000000  0.4751530000000 1.0
C      1  0.4925240000000  0.4294860000000  0.5619050000000 1.0
C      1  0.4882340000000  0.5919080000000  0.5290920000000 1.0
C      1  0.4907650000000  0.4891060000000  0.4079550000000 1.0
C      1  0.5828930000000  0.4331960000000  0.4753960000000 1.0
C      1  0.5872110000000  0.5213140000000  0.5591380000000 1.0
C      1  0.5751090000000  0.5476700000000  0.4475210000000 1.0
C      1  0.5765970000000  0.4794870000000  0.5042350000000 1.0
C      1  0.5800930000000  0.5200820000000  0.5182200000000 1.0
C      1  0.5789110000000  0.4959070000000  0.4770600000000 1.0
C      1  0.4030170000000  0.4596590000000  0.4670270000000 1.0
C      1  0.4048050000000  0.4830010000000  0.5497840000000 1.0
C      1  0.4062840000000  0.5392810000000  0.4844720000000 1.0
C      1  0.5064690000000  0.4453290000000  0.5858720000000 1.0
C      1  0.5046490000000  0.6022930000000  0.5058730000000 1.0
C      1  0.5038530000000  0.4619020000000  0.4077820000000 1.0
C      1  0.4240000000000  0.4660300000000  0.5061040000000 1.0
C      1  0.4214200000000  0.5141970000000  0.5252920000000 1.0
C      1  0.4247120000000  0.5034390000000  0.4734080000000 1.0
C      1  0.5133890000000  0.3991970000000  0.4555060000000 1.0
C      1  0.5160690000000  0.5160350000000  0.6076860000000 1.0
C      1  0.5244590000000  0.5916340000000  0.4306390000000 1.0
C      1  0.5428050000000  0.4770140000000  0.5022130000000 1.0
C      1  0.5483240000000  0.5085280000000  0.5137830000000 1.0
C      1  0.5508820000000  0.5122630000000  0.4800710000000 1.0
C      1  0.5593270000000  0.4645050000000  0.5733520000000 1.0
C      1  0.5562730000000  0.5816490000000  0.4913790000000 1.0
C      1  0.5544220000000  0.4450940000000  0.4305120000000 1.0
C      1  0.4714460000000  0.6141580000000  0.4530920000000 1.0
C      1  0.4619520000000  0.4197660000000  0.4272470000000 1.0
C      1  0.4748650000000  0.4787920000000  0.6206050000000 1.0
C      1  0.6175000000000  0.5342300000000  0.4875310000000 1.0
C      1  0.5903740000000  0.4485530000000  0.5010530000000 1.0
C      1  0.5987170000000  0.4986490000000  0.5365420000000 1.0
C      1  0.4666550000000  0.5295050000000  0.5208290000000 1.0
C      1  0.4656800000000  0.5046960000000  0.4662420000000 1.0
C      1  0.4705080000000  0.4755680000000  0.5185370000000 1.0
C      1  0.4563040000000  0.5820690000000  0.5283020000000 1.0
C      1  0.4587300000000  0.4896300000000  0.4193710000000 1.0
C      1  0.4595200000000  0.4325820000000  0.5541330000000 1.0
C      1  0.4876150000000  0.5182760000000  0.3903740000000 1.0
C      1  0.4834730000000  0.4025780000000  0.5438760000000 1.0
C      1  0.4767310000000  0.5898490000000  0.5614600000000 1.0
C      1  0.5461770000000  0.4955090000000  0.5757390000000 1.0
C      1  0.5417120000000  0.5664110000000  0.4641240000000 1.0
C      1  0.5504310000000  0.4330480000000  0.4621110000000 1.0
C      1  0.4585300000000  0.5347810000000  0.4756690000000 1.0
C      1  0.4603580000000  0.4602630000000  0.4908180000000 1.0
C      1  0.4578140000000  0.5051620000000  0.5429030000000 1.0
C      1  0.4438440000000  0.5964370000000  0.5008080000000 1.0
C      1  0.4321150000000  0.4704660000000  0.4134230000000 1.0
C      1  0.4422810000000  0.4439080000000  0.5773230000000 1.0
C      1  0.5839250000000  0.4486530000000  0.4471490000000 1.0
C      1  0.5831070000000  0.4869510000000  0.5636320000000 1.0
C      1  0.5802890000000  0.5660130000000  0.4730730000000 1.0
C      1  0.5307820000000  0.5864490000000  0.5405610000000 1.0
C      1  0.5477950000000  0.4856850000000  0.3941410000000 1.0
C      1  0.5383060000000  0.4197580000000  0.5565120000000 1.0
C      1  0.5372740000000  0.5109930000000  0.4314310000000 1.0
C      1  0.5364850000000  0.4379850000000  0.5122520000000 1.0
C      1  0.5415640000000  0.5417370000000  0.5423550000000 1.0
C      1  0.4214400000000  0.5011340000000  0.5717560000000 1.0
C      1  0.4268690000000  0.5537910000000  0.4615490000000 1.0
C      1  0.4200780000000  0.4334490000000  0.4758000000000 1.0
C      1  0.4824890000000  0.5416150000000  0.5854110000000 1.0
C      1  0.4877660000000  0.5630880000000  0.4195930000000 1.0
C      1  0.4860910000000  0.4025820000000  0.4929340000000 1.0
C      1  0.5470670000000  0.5142320000000  0.4018600000000 1.0
C      1  0.5493870000000  0.4116720000000  0.5287880000000 1.0
C      1  0.5398110000000  0.5640160000000  0.5589110000000 1.0
C      1  0.5253760000000  0.6042750000000  0.4552620000000 1.0
C      1  0.5145890000000  0.4166290000000  0.4336250000000 1.0
C      1  0.5217310000000  0.4895530000000  0.6117280000000 1.0
C      1  0.4374230000000  0.5251770000000  0.3889120000000 1.0
C      1  0.4324370000000  0.3872800000000  0.5369470000000 1.0
C      1  0.4241790000000  0.5920690000000  0.5729640000000 1.0
C      1  0.5022220000000  0.5404030000000  0.4069700000000 1.0
C      1  0.5015730000000  0.4007610000000  0.5175380000000 1.0
C      1  0.4959510000000  0.5665280000000  0.5762380000000 1.0
C      1  0.4887060000000  0.4774630000000  0.4832980000000 1.0
C      1  0.4898130000000  0.4996580000000  0.5327890000000 1.0
C      1  0.4850970000000  0.5327670000000  0.4924410000000 1.0
C      1  0.5025040000000  0.5035610000000  0.4930390000000 1.0
C      1  0.4606990000000  0.5027830000000  0.5006390000000 1.0
END
