TITL C-2622966-9038-170 -0.00801619612812873 125000 -929.484077244575 0 0 168 (C1) n - 1
REM
REM in /nfs/bkarasulu/CARBON/AIRSS/Generating-Clusters/AIREBO/with-SteepDescent/Higher-Symm/SD-CG/HFTN-CG
REM
REM
REM
REM
REM
REM ./C.cell (b20cbc046b6831c77cfcea5457e17084)
REM
REM compiler GCC version 9.2.1 20190827 (Red Hat 9.2.1-1)
REM options -cpp -mtune=generic -march=x86-64 -g -O0 -fpre-include=/usr/include/finclude/math-vector-fortran.h
REM seed 2120962392 1041817289 -560351224 -1482862115 10188256 -20142345 27655843 -190362405 -1266477665 -2048796566 -852743164 2056622038 95041165 -1942328687 663975406 1535394544 246933244 -1323620654 1858840850 -1695735912 -1190737753 -760653178 -389892630 -1581324989 -22257207 1648787863 -421974439 -2025361373 1358495447 -1414052587 1683681757 2104138019 -319433100
REM
CELL 1.54180   50.00000   50.00000   50.00000   90.00000   90.00000   90.00000
LATT -1
SFAC C  
C      1  0.6018610000000  0.5186120000000  0.5546090000000 1.0
C      1  0.5868210000000  0.4076880000000  0.5692920000000 1.0
C      1  0.4355330000000  0.4149760000000  0.5745270000000 1.0
C      1  0.3934620000000  0.5433730000000  0.5600070000000 1.0
C      1  0.5125350000000  0.6153750000000  0.5675840000000 1.0
C      1  0.5241730000000  0.4133670000000  0.4973270000000 1.0
C      1  0.4331180000000  0.4521040000000  0.4846700000000 1.0
C      1  0.4257840000000  0.5521770000000  0.5010650000000 1.0
C      1  0.5276120000000  0.5851420000000  0.4770520000000 1.0
C      1  0.5852530000000  0.4991290000000  0.4788070000000 1.0
C      1  0.5070360000000  0.5549840000000  0.5275920000000 1.0
C      1  0.5530220000000  0.5064470000000  0.5309070000000 1.0
C      1  0.5354570000000  0.4486780000000  0.5338560000000 1.0
C      1  0.4712870000000  0.4479010000000  0.5231910000000 1.0
C      1  0.4425810000000  0.5342230000000  0.5174880000000 1.0
C      1  0.5546900000000  0.5094430000000  0.4679630000000 1.0
C      1  0.5153660000000  0.4409100000000  0.4843040000000 1.0
C      1  0.4599500000000  0.4662620000000  0.4786870000000 1.0
C      1  0.4448120000000  0.5121130000000  0.4767050000000 1.0
C      1  0.5156220000000  0.5574510000000  0.4775970000000 1.0
C      1  0.4638240000000  0.4062890000000  0.5353720000000 1.0
C      1  0.4018720000000  0.5029430000000  0.5315640000000 1.0
C      1  0.4754330000000  0.5875680000000  0.5426070000000 1.0
C      1  0.5901060000000  0.5589400000000  0.5271360000000 1.0
C      1  0.5911620000000  0.4436320000000  0.5361890000000 1.0
C      1  0.4734010000000  0.4843480000000  0.5674990000000 1.0
C      1  0.4716380000000  0.5167000000000  0.5607590000000 1.0
C      1  0.4994590000000  0.5293300000000  0.5694480000000 1.0
C      1  0.5213090000000  0.5046330000000  0.5719570000000 1.0
C      1  0.5026700000000  0.4853810000000  0.5553650000000 1.0
C      1  0.5245530000000  0.4277900000000  0.4212480000000 1.0
C      1  0.4448680000000  0.4545420000000  0.4106200000000 1.0
C      1  0.4396460000000  0.5499220000000  0.4197830000000 1.0
C      1  0.5243800000000  0.5766100000000  0.4152250000000 1.0
C      1  0.5652630000000  0.4888370000000  0.4205750000000 1.0
C      1  0.5206750000000  0.5491120000000  0.5969670000000 1.0
C      1  0.5528330000000  0.4994830000000  0.6003700000000 1.0
C      1  0.5114940000000  0.4475560000000  0.6009910000000 1.0
C      1  0.4477220000000  0.4646690000000  0.5903390000000 1.0
C      1  0.4431760000000  0.5281240000000  0.5859410000000 1.0
C      1  0.4269870000000  0.5253240000000  0.4139030000000 1.0
C      1  0.4990900000000  0.5767170000000  0.4309210000000 1.0
C      1  0.5697190000000  0.5194940000000  0.4282590000000 1.0
C      1  0.5464560000000  0.4507790000000  0.4167760000000 1.0
C      1  0.4505930000000  0.4306000000000  0.4270600000000 1.0
C      1  0.5046340000000  0.5610940000000  0.5584790000000 1.0
C      1  0.5493170000000  0.5083330000000  0.5615380000000 1.0
C      1  0.5443300000000  0.4389360000000  0.5605470000000 1.0
C      1  0.4534970000000  0.4589710000000  0.5571210000000 1.0
C      1  0.4448440000000  0.5352830000000  0.5511220000000 1.0
C      1  0.5965660000000  0.4740630000000  0.4957370000000 1.0
C      1  0.5009430000000  0.3924630000000  0.5002070000000 1.0
C      1  0.4089390000000  0.4698970000000  0.4930350000000 1.0
C      1  0.4367770000000  0.5765880000000  0.4946890000000 1.0
C      1  0.5568920000000  0.5826250000000  0.4922730000000 1.0
C      1  0.4422800000000  0.5915900000000  0.5493040000000 1.0
C      1  0.5471960000000  0.5740660000000  0.5230980000000 1.0
C      1  0.5886110000000  0.4758840000000  0.5288070000000 1.0
C      1  0.4973850000000  0.4015890000000  0.5325630000000 1.0
C      1  0.4120570000000  0.4708120000000  0.5270720000000 1.0
C      1  0.3920120000000  0.4959870000000  0.5040010000000 1.0
C      1  0.4531970000000  0.5895230000000  0.5171700000000 1.0
C      1  0.5794210000000  0.5623680000000  0.5027080000000 1.0
C      1  0.5910520000000  0.4436670000000  0.5058880000000 1.0
C      1  0.4682460000000  0.3976550000000  0.5060210000000 1.0
C      1  0.4463700000000  0.5802980000000  0.4684250000000 1.0
C      1  0.5610260000000  0.5770150000000  0.4586850000000 1.0
C      1  0.5939310000000  0.4642400000000  0.4632880000000 1.0
C      1  0.5039330000000  0.3980100000000  0.4667740000000 1.0
C      1  0.4134490000000  0.4762420000000  0.4598670000000 1.0
C      1  0.4123050000000  0.5253760000000  0.5507250000000 1.0
C      1  0.5008210000000  0.5948730000000  0.5577630000000 1.0
C      1  0.5867540000000  0.5417260000000  0.5491110000000 1.0
C      1  0.5775470000000  0.4318980000000  0.5598030000000 1.0
C      1  0.4563320000000  0.4260040000000  0.5586940000000 1.0
C      1  0.4868870000000  0.4280430000000  0.5735330000000 1.0
C      1  0.4295470000000  0.5012590000000  0.5648310000000 1.0
C      1  0.4732780000000  0.5601900000000  0.5716090000000 1.0
C      1  0.5574020000000  0.5390390000000  0.5583770000000 1.0
C      1  0.5663030000000  0.4573340000000  0.5770670000000 1.0
C      1  0.5187780000000  0.4992040000000  0.3966400000000 1.0
C      1  0.4945460000000  0.4788520000000  0.4082060000000 1.0
C      1  0.4707380000000  0.5024610000000  0.4024560000000 1.0
C      1  0.4831260000000  0.5314220000000  0.4056780000000 1.0
C      1  0.5148580000000  0.5263090000000  0.4161760000000 1.0
C      1  0.4392660000000  0.4824630000000  0.4386200000000 1.0
C      1  0.4734980000000  0.5399810000000  0.4594410000000 1.0
C      1  0.5284210000000  0.5307360000000  0.4621220000000 1.0
C      1  0.5401960000000  0.4833950000000  0.4557830000000 1.0
C      1  0.5023850000000  0.4375510000000  0.4530410000000 1.0
C      1  0.4172030000000  0.5080120000000  0.4630780000000 1.0
C      1  0.4715770000000  0.5933370000000  0.4690520000000 1.0
C      1  0.5665240000000  0.5469950000000  0.4544030000000 1.0
C      1  0.5717250000000  0.4416460000000  0.4598170000000 1.0
C      1  0.4780420000000  0.4063790000000  0.4588510000000 1.0
C      1  0.5666490000000  0.4354580000000  0.4913930000000 1.0
C      1  0.4622410000000  0.4160270000000  0.4825390000000 1.0
C      1  0.3927730000000  0.5158840000000  0.4851200000000 1.0
C      1  0.4803510000000  0.5853250000000  0.4993460000000 1.0
C      1  0.5774580000000  0.5377540000000  0.4846880000000 1.0
C      1  0.4983920000000  0.5977750000000  0.4529850000000 1.0
C      1  0.5931570000000  0.5253980000000  0.4500550000000 1.0
C      1  0.5546850000000  0.4136320000000  0.4605030000000 1.0
C      1  0.4283640000000  0.4255720000000  0.4466650000000 1.0
C      1  0.4183210000000  0.5410450000000  0.4549030000000 1.0
C      1  0.4928600000000  0.4655510000000  0.4394600000000 1.0
C      1  0.4670110000000  0.4767240000000  0.4517380000000 1.0
C      1  0.4707270000000  0.5076100000000  0.4560120000000 1.0
C      1  0.5023020000000  0.5158020000000  0.4462670000000 1.0
C      1  0.5145210000000  0.4875800000000  0.4417310000000 1.0
C      1  0.5318590000000  0.4813260000000  0.4846100000000 1.0
C      1  0.5005980000000  0.4642970000000  0.5019560000000 1.0
C      1  0.4692730000000  0.4881920000000  0.4960560000000 1.0
C      1  0.4856730000000  0.5258400000000  0.4879050000000 1.0
C      1  0.5247570000000  0.5197660000000  0.4923740000000 1.0
C      1  0.5203930000000  0.5279140000000  0.5223840000000 1.0
C      1  0.5277660000000  0.4890980000000  0.5174600000000 1.0
C      1  0.5072380000000  0.4601030000000  0.5348400000000 1.0
C      1  0.4730330000000  0.4797590000000  0.5262640000000 1.0
C      1  0.4758430000000  0.5272290000000  0.5200790000000 1.0
C      1  0.5423190000000  0.5851730000000  0.5484110000000 1.0
C      1  0.5914130000000  0.4935690000000  0.5534520000000 1.0
C      1  0.5089520000000  0.4006440000000  0.5628840000000 1.0
C      1  0.4078270000000  0.4596380000000  0.5579180000000 1.0
C      1  0.4324930000000  0.5805070000000  0.5721220000000 1.0
C      1  0.5592200000000  0.4637600000000  0.4419140000000 1.0
C      1  0.4759050000000  0.4245630000000  0.4360990000000 1.0
C      1  0.4412030000000  0.5022090000000  0.4163630000000 1.0
C      1  0.4863450000000  0.5518830000000  0.4326610000000 1.0
C      1  0.5433100000000  0.5353280000000  0.4324680000000 1.0
C      1  0.4413810000000  0.4842430000000  0.5378440000000 1.0
C      1  0.4694270000000  0.5550900000000  0.5384860000000 1.0
C      1  0.5454560000000  0.5456880000000  0.5298250000000 1.0
C      1  0.5608050000000  0.4795950000000  0.5126450000000 1.0
C      1  0.4918670000000  0.4335070000000  0.5419900000000 1.0
C      1  0.5207860000000  0.4285400000000  0.5762600000000 1.0
C      1  0.4228750000000  0.4747290000000  0.5773010000000 1.0
C      1  0.4478160000000  0.5590390000000  0.5830810000000 1.0
C      1  0.5362840000000  0.5609970000000  0.5709120000000 1.0
C      1  0.5695780000000  0.4866410000000  0.5754700000000 1.0
C      1  0.5207650000000  0.4962050000000  0.6035980000000 1.0
C      1  0.5023340000000  0.4724780000000  0.6081240000000 1.0
C      1  0.4737230000000  0.4810540000000  0.6008270000000 1.0
C      1  0.4726920000000  0.5136310000000  0.5946090000000 1.0
C      1  0.5040700000000  0.5241060000000  0.6022320000000 1.0
C      1  0.5509780000000  0.4078130000000  0.4904410000000 1.0
C      1  0.4345880000000  0.4259640000000  0.4738460000000 1.0
C      1  0.4078930000000  0.5413330000000  0.4828150000000 1.0
C      1  0.5043300000000  0.6047720000000  0.4857560000000 1.0
C      1  0.6074700000000  0.5245950000000  0.4800030000000 1.0
C      1  0.4198920000000  0.4552020000000  0.4337800000000 1.0
C      1  0.4455580000000  0.5555810000000  0.4505680000000 1.0
C      1  0.5330430000000  0.5890580000000  0.4442990000000 1.0
C      1  0.5880910000000  0.4911710000000  0.4456660000000 1.0
C      1  0.5267640000000  0.4141400000000  0.4493350000000 1.0
C      1  0.4567400000000  0.4723880000000  0.3949510000000 1.0
C      1  0.4604850000000  0.5545040000000  0.4025420000000 1.0
C      1  0.5261870000000  0.5539700000000  0.3999600000000 1.0
C      1  0.5480930000000  0.4873550000000  0.3975890000000 1.0
C      1  0.5167290000000  0.4563250000000  0.4088100000000 1.0
C      1  0.4449910000000  0.5041150000000  0.5097980000000 1.0
C      1  0.4936920000000  0.5566740000000  0.4999250000000 1.0
C      1  0.5563570000000  0.5183570000000  0.5007320000000 1.0
C      1  0.5414220000000  0.4537360000000  0.5020300000000 1.0
C      1  0.4761680000000  0.4427830000000  0.4920170000000 1.0
C      1  0.5119390000000  0.5065770000000  0.3673790000000 1.0
C      1  0.4981900000000  0.5026390000000  0.5274230000000 1.0
C      1  0.5011990000000  0.4955510000000  0.4885010000000 1.0
END
