TITL C-2622961-1971-95 0.00130326247729251 125000 -917.764379968583 0 0 174 (C1) n - 1
REM
REM in /nfs/bkarasulu/CARBON/AIRSS/Generating-Clusters/AIREBO/with-SteepDescent/Higher-Symm/SD-CG/HFTN-CG
REM
REM
REM
REM
REM
REM ./C.cell (b20cbc046b6831c77cfcea5457e17084)
REM
REM compiler GCC version 9.2.1 20190827 (Red Hat 9.2.1-1)
REM options -cpp -mtune=generic -march=x86-64 -g -O0 -fpre-include=/usr/include/finclude/math-vector-fortran.h
REM seed -944293848 742442771 982833111 925378492 -1959323902 -611357217 1992425391 1167175973 -1253544277 1406508903 -1556830031 632707019 -638844537 -1353497644 -1459470238 -2104604679 -766389447 -1276193970 -1586041340 -590329742 -1643003156 1632263152 -2005842486 -1975305215 -1199923343 854644094 884317149 1995052387 -154953540 -1057810539 -1002903791 1666771761 1650519169
REM
CELL 1.54180   50.00000   50.00000   50.00000   90.00000   90.00000   90.00000
LATT -1
SFAC C  
C      1  0.5443140000000  0.5818190000000  0.4582390000000 1.0
C      1  0.4537470000000  0.5816460000000  0.5388970000000 1.0
C      1  0.5656390000000  0.5333250000000  0.3925240000000 1.0
C      1  0.4275430000000  0.5460410000000  0.6033270000000 1.0
C      1  0.4562460000000  0.5468250000000  0.5123380000000 1.0
C      1  0.5452670000000  0.5482740000000  0.4925610000000 1.0
C      1  0.4346460000000  0.5801830000000  0.5136190000000 1.0
C      1  0.5671650000000  0.5787990000000  0.4791490000000 1.0
C      1  0.4571650000000  0.4673080000000  0.5569460000000 1.0
C      1  0.5498580000000  0.4588520000000  0.4456120000000 1.0
C      1  0.4523920000000  0.3866930000000  0.4654570000000 1.0
C      1  0.5478280000000  0.3891670000000  0.5394840000000 1.0
C      1  0.5615860000000  0.5904420000000  0.5036790000000 1.0
C      1  0.4396460000000  0.5862850000000  0.4857050000000 1.0
C      1  0.4791320000000  0.6032840000000  0.5077430000000 1.0
C      1  0.5207500000000  0.6020290000000  0.4941050000000 1.0
C      1  0.4737850000000  0.5397110000000  0.4094660000000 1.0
C      1  0.5267550000000  0.5447400000000  0.5918180000000 1.0
C      1  0.4467050000000  0.4945120000000  0.5331730000000 1.0
C      1  0.5586450000000  0.4993780000000  0.4738460000000 1.0
C      1  0.4961260000000  0.4147980000000  0.4338300000000 1.0
C      1  0.4955130000000  0.4126740000000  0.5746820000000 1.0
C      1  0.4320760000000  0.4641950000000  0.5282940000000 1.0
C      1  0.5799620000000  0.4538090000000  0.4460990000000 1.0
C      1  0.4683030000000  0.4345800000000  0.4323360000000 1.0
C      1  0.5222750000000  0.4298190000000  0.5791310000000 1.0
C      1  0.4016070000000  0.4547390000000  0.5161360000000 1.0
C      1  0.5957610000000  0.4493680000000  0.4741760000000 1.0
C      1  0.4650680000000  0.5023800000000  0.5056510000000 1.0
C      1  0.5374130000000  0.5033420000000  0.4967700000000 1.0
C      1  0.4673880000000  0.4503190000000  0.4871370000000 1.0
C      1  0.5430000000000  0.4380770000000  0.5146500000000 1.0
C      1  0.4766610000000  0.4661610000000  0.4211270000000 1.0
C      1  0.5197370000000  0.4637520000000  0.5778190000000 1.0
C      1  0.5403640000000  0.5778160000000  0.5252220000000 1.0
C      1  0.4668960000000  0.5723680000000  0.4708640000000 1.0
C      1  0.5965560000000  0.4749530000000  0.4316690000000 1.0
C      1  0.4241150000000  0.4949490000000  0.5585890000000 1.0
C      1  0.4842240000000  0.4770750000000  0.4617220000000 1.0
C      1  0.5176110000000  0.4649620000000  0.5287730000000 1.0
C      1  0.5836600000000  0.5589470000000  0.5411120000000 1.0
C      1  0.4100030000000  0.5550980000000  0.4643830000000 1.0
C      1  0.5067710000000  0.4832940000000  0.4821040000000 1.0
C      1  0.5006970000000  0.4868790000000  0.5148280000000 1.0
C      1  0.4320940000000  0.5339590000000  0.5549770000000 1.0
C      1  0.5660860000000  0.5333390000000  0.4420680000000 1.0
C      1  0.5903800000000  0.5063320000000  0.5601870000000 1.0
C      1  0.4161180000000  0.5184200000000  0.4489200000000 1.0
C      1  0.6032640000000  0.4956700000000  0.4442990000000 1.0
C      1  0.3985560000000  0.4948220000000  0.5511910000000 1.0
C      1  0.4305780000000  0.5021780000000  0.5942160000000 1.0
C      1  0.5759440000000  0.5290310000000  0.3688130000000 1.0
C      1  0.5102840000000  0.5820170000000  0.4686640000000 1.0
C      1  0.4879380000000  0.5832870000000  0.5338210000000 1.0
C      1  0.5252430000000  0.4865200000000  0.4077460000000 1.0
C      1  0.4688860000000  0.4824220000000  0.5843260000000 1.0
C      1  0.4840570000000  0.5305570000000  0.5042680000000 1.0
C      1  0.5173330000000  0.5306220000000  0.4972620000000 1.0
C      1  0.5177800000000  0.4056890000000  0.5009100000000 1.0
C      1  0.4852700000000  0.4059020000000  0.4986710000000 1.0
C      1  0.5438540000000  0.5446990000000  0.5321090000000 1.0
C      1  0.4596960000000  0.5404660000000  0.4730930000000 1.0
C      1  0.5504920000000  0.5372390000000  0.5729000000000 1.0
C      1  0.4452480000000  0.5283960000000  0.4201570000000 1.0
C      1  0.4846630000000  0.4954380000000  0.4364840000000 1.0
C      1  0.5168330000000  0.4966250000000  0.5732640000000 1.0
C      1  0.4031780000000  0.4885640000000  0.4588820000000 1.0
C      1  0.6053150000000  0.4849630000000  0.5400890000000 1.0
C      1  0.5866410000000  0.5352030000000  0.4629550000000 1.0
C      1  0.4106130000000  0.5391650000000  0.5372980000000 1.0
C      1  0.5815120000000  0.5148810000000  0.5284850000000 1.0
C      1  0.4186530000000  0.5175500000000  0.4816620000000 1.0
C      1  0.3939730000000  0.5242620000000  0.4966150000000 1.0
C      1  0.6012220000000  0.5179990000000  0.5037700000000 1.0
C      1  0.4681100000000  0.5951490000000  0.5662950000000 1.0
C      1  0.5243560000000  0.5910090000000  0.4325510000000 1.0
C      1  0.4740360000000  0.4743090000000  0.5318040000000 1.0
C      1  0.5371280000000  0.4734030000000  0.4702930000000 1.0
C      1  0.4342510000000  0.4345740000000  0.5394690000000 1.0
C      1  0.5802980000000  0.4227550000000  0.4594760000000 1.0
C      1  0.4718310000000  0.4107810000000  0.5536850000000 1.0
C      1  0.5241150000000  0.4106400000000  0.4453720000000 1.0
C      1  0.4308310000000  0.5467430000000  0.4899310000000 1.0
C      1  0.5720090000000  0.5436570000000  0.5130620000000 1.0
C      1  0.4854000000000  0.4991420000000  0.3838890000000 1.0
C      1  0.5245810000000  0.4973750000000  0.6055170000000 1.0
C      1  0.5209040000000  0.5366750000000  0.4208170000000 1.0
C      1  0.4751980000000  0.5376930000000  0.5823170000000 1.0
C      1  0.5095930000000  0.4334100000000  0.5189390000000 1.0
C      1  0.4961810000000  0.4331490000000  0.4814320000000 1.0
C      1  0.5143910000000  0.5094390000000  0.4617470000000 1.0
C      1  0.4905500000000  0.5100370000000  0.5378060000000 1.0
C      1  0.4374430000000  0.4095210000000  0.4704220000000 1.0
C      1  0.5627720000000  0.4114160000000  0.5362700000000 1.0
C      1  0.4629270000000  0.4827830000000  0.3961760000000 1.0
C      1  0.5521440000000  0.4880050000000  0.5908850000000 1.0
C      1  0.4564930000000  0.4503900000000  0.5855050000000 1.0
C      1  0.5305180000000  0.4603370000000  0.4193660000000 1.0
C      1  0.4846530000000  0.5163420000000  0.4733810000000 1.0
C      1  0.5192470000000  0.5237010000000  0.5305060000000 1.0
C      1  0.5169430000000  0.5637350000000  0.5049850000000 1.0
C      1  0.4836250000000  0.5637940000000  0.4971100000000 1.0
C      1  0.4500330000000  0.4284170000000  0.5615950000000 1.0
C      1  0.5397340000000  0.4300250000000  0.4317460000000 1.0
C      1  0.4830680000000  0.4512280000000  0.5141620000000 1.0
C      1  0.5252770000000  0.4486180000000  0.4875890000000 1.0
C      1  0.5365830000000  0.5131400000000  0.5555260000000 1.0
C      1  0.4669590000000  0.5231430000000  0.4451540000000 1.0
C      1  0.5563670000000  0.4430020000000  0.5457400000000 1.0
C      1  0.4449150000000  0.4382260000000  0.4700510000000 1.0
C      1  0.5687110000000  0.5091360000000  0.5787880000000 1.0
C      1  0.4379260000000  0.5030300000000  0.4061290000000 1.0
C      1  0.5135940000000  0.5504930000000  0.3929220000000 1.0
C      1  0.4754090000000  0.5343920000000  0.6128710000000 1.0
C      1  0.5016520000000  0.4539310000000  0.5522650000000 1.0
C      1  0.4897940000000  0.4483830000000  0.4543100000000 1.0
C      1  0.5834010000000  0.4649900000000  0.5819310000000 1.0
C      1  0.4250820000000  0.4581470000000  0.4346880000000 1.0
C      1  0.4864930000000  0.5076470000000  0.5709010000000 1.0
C      1  0.5144360000000  0.5050170000000  0.4288040000000 1.0
C      1  0.5572290000000  0.4967130000000  0.5405440000000 1.0
C      1  0.4441520000000  0.5051030000000  0.4628050000000 1.0
C      1  0.5832950000000  0.4452660000000  0.5024940000000 1.0
C      1  0.4065420000000  0.4396950000000  0.4917400000000 1.0
C      1  0.5040930000000  0.4462100000000  0.4235390000000 1.0
C      1  0.4852480000000  0.4425710000000  0.5738480000000 1.0
C      1  0.3935180000000  0.5146810000000  0.5276410000000 1.0
C      1  0.5915460000000  0.5042510000000  0.4744490000000 1.0
C      1  0.4573630000000  0.4823100000000  0.4813930000000 1.0
C      1  0.5410140000000  0.4832450000000  0.5182350000000 1.0
C      1  0.5702200000000  0.4682880000000  0.5156750000000 1.0
C      1  0.4283110000000  0.4766090000000  0.4968550000000 1.0
C      1  0.5421490000000  0.5279470000000  0.4656050000000 1.0
C      1  0.4601540000000  0.5253160000000  0.5383850000000 1.0
C      1  0.4664610000000  0.4041490000000  0.5247170000000 1.0
C      1  0.5342900000000  0.4030820000000  0.4716660000000 1.0
C      1  0.5471920000000  0.5834000000000  0.5558650000000 1.0
C      1  0.4401090000000  0.5771760000000  0.4504840000000 1.0
C      1  0.4261810000000  0.5490370000000  0.4373360000000 1.0
C      1  0.5648520000000  0.5620050000000  0.5614150000000 1.0
C      1  0.5833480000000  0.5546180000000  0.4829250000000 1.0
C      1  0.4147880000000  0.5581560000000  0.5176510000000 1.0
C      1  0.5545770000000  0.5351370000000  0.4174620000000 1.0
C      1  0.4412250000000  0.5383690000000  0.5809530000000 1.0
C      1  0.4645610000000  0.5899310000000  0.4351320000000 1.0
C      1  0.5271090000000  0.5963710000000  0.5684810000000 1.0
C      1  0.4835300000000  0.5997630000000  0.4799170000000 1.0
C      1  0.5158330000000  0.5993830000000  0.5229000000000 1.0
C      1  0.4924920000000  0.5455940000000  0.4372500000000 1.0
C      1  0.5028280000000  0.5568970000000  0.5816580000000 1.0
C      1  0.5278790000000  0.3839990000000  0.5213620000000 1.0
C      1  0.4756630000000  0.3830740000000  0.4794110000000 1.0
C      1  0.4230080000000  0.4164190000000  0.4954240000000 1.0
C      1  0.5674500000000  0.4188030000000  0.5048870000000 1.0
C      1  0.5078680000000  0.5481020000000  0.4696480000000 1.0
C      1  0.4911320000000  0.5494920000000  0.5316380000000 1.0
C      1  0.5771170000000  0.4697780000000  0.5487530000000 1.0
C      1  0.4197790000000  0.4603810000000  0.4682040000000 1.0
C      1  0.3840410000000  0.4893580000000  0.4802120000000 1.0
C      1  0.6137630000000  0.4796550000000  0.5140530000000 1.0
C      1  0.4817340000000  0.5272540000000  0.3864820000000 1.0
C      1  0.5252940000000  0.5275590000000  0.6132880000000 1.0
C      1  0.4988110000000  0.5835850000000  0.5660460000000 1.0
C      1  0.4939450000000  0.5795290000000  0.4389270000000 1.0
C      1  0.3982270000000  0.4867260000000  0.5090680000000 1.0
C      1  0.6044910000000  0.4762420000000  0.4887310000000 1.0
C      1  0.5307580000000  0.5546730000000  0.4479280000000 1.0
C      1  0.4683380000000  0.5546050000000  0.5536160000000 1.0
C      1  0.5618400000000  0.4093220000000  0.4765920000000 1.0
C      1  0.4389090000000  0.4147220000000  0.5191390000000 1.0
C      1  0.4932360000000  0.4853820000000  0.6034120000000 1.0
C      1  0.5118010000000  0.4890340000000  0.3841290000000 1.0
C      1  0.5508720000000  0.4574270000000  0.5760360000000 1.0
C      1  0.4375690000000  0.4727970000000  0.4169130000000 1.0
END
