TITL C-2622965-4321-22 -0.000335179495528244 125000 -784.625020006602 0 0 152 (C1) n - 1
REM
REM in /nfs/bkarasulu/CARBON/AIRSS/Generating-Clusters/AIREBO/with-SteepDescent/Higher-Symm/SD-CG/HFTN-CG
REM
REM
REM
REM
REM
REM ./C.cell (b20cbc046b6831c77cfcea5457e17084)
REM
REM compiler GCC version 9.2.1 20190827 (Red Hat 9.2.1-1)
REM options -cpp -mtune=generic -march=x86-64 -g -O0 -fpre-include=/usr/include/finclude/math-vector-fortran.h
REM seed -1957795958 -154610636 116127868 -1382660498 -501953153 -104312845 -724116909 -1332476941 -1678551443 1690536153 -700332991 -498801844 1698436468 -1559284325 624233150 -679357062 -1832373216 1599896106 1113391162 1060308472 -834782342 -1365419122 -1689484822 -2092373932 -414440907 -822456445 -1925324158 1245780846 2079458883 532455153 541151951 -563269140 -1420267905
REM
CELL 1.54180   50.00000   50.00000   50.00000   90.00000   90.00000   90.00000
LATT -1
SFAC C  
C      1  0.5123040000000  0.5908020000000  0.4465390000000 1.0
C      1  0.4773180000000  0.5390670000000  0.3907170000000 1.0
C      1  0.5192520000000  0.4751380000000  0.3950420000000 1.0
C      1  0.4783020000000  0.4180160000000  0.4234510000000 1.0
C      1  0.5162080000000  0.3864840000000  0.4878420000000 1.0
C      1  0.4818280000000  0.4139690000000  0.5555510000000 1.0
C      1  0.5165730000000  0.4519670000000  0.6005070000000 1.0
C      1  0.4835330000000  0.5243700000000  0.6101360000000 1.0
C      1  0.5177360000000  0.5856810000000  0.5764770000000 1.0
C      1  0.4828620000000  0.6094500000000  0.5001480000000 1.0
C      1  0.4602040000000  0.4607000000000  0.5683050000000 1.0
C      1  0.5356820000000  0.4992870000000  0.5803850000000 1.0
C      1  0.4688550000000  0.5493220000000  0.5652870000000 1.0
C      1  0.5224850000000  0.5873010000000  0.5259390000000 1.0
C      1  0.4618460000000  0.5714790000000  0.4724230000000 1.0
C      1  0.5299780000000  0.5481570000000  0.4206400000000 1.0
C      1  0.4664490000000  0.4965660000000  0.4195330000000 1.0
C      1  0.5307180000000  0.4480920000000  0.4377410000000 1.0
C      1  0.4696190000000  0.4267620000000  0.4722640000000 1.0
C      1  0.5360090000000  0.4206360000000  0.5214550000000 1.0
C      1  0.5840420000000  0.4667980000000  0.5486540000000 1.0
C      1  0.4160360000000  0.5078750000000  0.5633510000000 1.0
C      1  0.5812630000000  0.5438560000000  0.5532600000000 1.0
C      1  0.4167540000000  0.5504990000000  0.5110710000000 1.0
C      1  0.5826990000000  0.5620600000000  0.4785030000000 1.0
C      1  0.4090760000000  0.5283280000000  0.4455890000000 1.0
C      1  0.5907510000000  0.4891830000000  0.4468130000000 1.0
C      1  0.4119940000000  0.4566830000000  0.4491110000000 1.0
C      1  0.5856600000000  0.4239210000000  0.4803390000000 1.0
C      1  0.4118440000000  0.4498960000000  0.5227840000000 1.0
C      1  0.4333320000000  0.4898430000000  0.4233900000000 1.0
C      1  0.5633830000000  0.4403870000000  0.4432540000000 1.0
C      1  0.4283160000000  0.4282980000000  0.4854920000000 1.0
C      1  0.5696560000000  0.4261100000000  0.5299570000000 1.0
C      1  0.4270290000000  0.4615700000000  0.5757190000000 1.0
C      1  0.5661190000000  0.5121180000000  0.5884850000000 1.0
C      1  0.4366550000000  0.5545300000000  0.5556370000000 1.0
C      1  0.5723700000000  0.5906350000000  0.5130940000000 1.0
C      1  0.4290690000000  0.5618090000000  0.4714700000000 1.0
C      1  0.5755250000000  0.5283300000000  0.4245250000000 1.0
C      1  0.5132600000000  0.5821210000000  0.4763670000000 1.0
C      1  0.5039230000000  0.5483650000000  0.4424980000000 1.0
C      1  0.4949520000000  0.5148330000000  0.4227340000000 1.0
C      1  0.5065240000000  0.4688470000000  0.4258970000000 1.0
C      1  0.5007880000000  0.4322080000000  0.4598010000000 1.0
C      1  0.5090340000000  0.4167800000000  0.5010920000000 1.0
C      1  0.5015500000000  0.4383920000000  0.5528560000000 1.0
C      1  0.5049830000000  0.4846800000000  0.5812130000000 1.0
C      1  0.4937820000000  0.5312540000000  0.5797300000000 1.0
C      1  0.5014130000000  0.5701610000000  0.5435760000000 1.0
C      1  0.4622850000000  0.5584580000000  0.5331910000000 1.0
C      1  0.5469390000000  0.5871430000000  0.5022990000000 1.0
C      1  0.4501540000000  0.5480900000000  0.4506900000000 1.0
C      1  0.5460470000000  0.5212970000000  0.4250010000000 1.0
C      1  0.4583000000000  0.4703810000000  0.4396620000000 1.0
C      1  0.5397290000000  0.4367640000000  0.4685210000000 1.0
C      1  0.4534810000000  0.4315240000000  0.5018160000000 1.0
C      1  0.5457760000000  0.4441020000000  0.5440510000000 1.0
C      1  0.4602930000000  0.4935520000000  0.5700270000000 1.0
C      1  0.5452210000000  0.5288280000000  0.5664670000000 1.0
C      1  0.5098180000000  0.5483490000000  0.4744300000000 1.0
C      1  0.5080420000000  0.5157280000000  0.4514100000000 1.0
C      1  0.4981030000000  0.4845090000000  0.4484860000000 1.0
C      1  0.4972650000000  0.4611100000000  0.4727300000000 1.0
C      1  0.5041460000000  0.4474490000000  0.5028190000000 1.0
C      1  0.4920750000000  0.4548860000000  0.5281840000000 1.0
C      1  0.4929040000000  0.4783740000000  0.5520410000000 1.0
C      1  0.4952240000000  0.5122210000000  0.5543160000000 1.0
C      1  0.5050250000000  0.5395640000000  0.5366350000000 1.0
C      1  0.5049200000000  0.5526660000000  0.5064390000000 1.0
C      1  0.4569770000000  0.4285430000000  0.5565990000000 1.0
C      1  0.5386710000000  0.4664600000000  0.5925530000000 1.0
C      1  0.4562400000000  0.5329040000000  0.5929690000000 1.0
C      1  0.5379570000000  0.5804460000000  0.5556040000000 1.0
C      1  0.4594670000000  0.5975840000000  0.4931810000000 1.0
C      1  0.5359360000000  0.5722210000000  0.4439670000000 1.0
C      1  0.4567670000000  0.5249920000000  0.4024630000000 1.0
C      1  0.5443480000000  0.4690670000000  0.4137420000000 1.0
C      1  0.4563270000000  0.4230280000000  0.4426370000000 1.0
C      1  0.5437930000000  0.3974740000000  0.4978090000000 1.0
C      1  0.5380640000000  0.4483730000000  0.5005150000000 1.0
C      1  0.4599870000000  0.4642090000000  0.5344780000000 1.0
C      1  0.5435880000000  0.4893810000000  0.5488190000000 1.0
C      1  0.4625910000000  0.5200090000000  0.5487930000000 1.0
C      1  0.5386660000000  0.5349940000000  0.5346670000000 1.0
C      1  0.4714420000000  0.5543650000000  0.5006940000000 1.0
C      1  0.5418090000000  0.5404520000000  0.4743600000000 1.0
C      1  0.4569380000000  0.5090170000000  0.4497180000000 1.0
C      1  0.5409430000000  0.4766620000000  0.4531270000000 1.0
C      1  0.4632650000000  0.4606250000000  0.4719100000000 1.0
C      1  0.4890160000000  0.5762280000000  0.5704010000000 1.0
C      1  0.5084420000000  0.5969750000000  0.4990330000000 1.0
C      1  0.4851240000000  0.5753070000000  0.4489810000000 1.0
C      1  0.5023360000000  0.5363110000000  0.4047670000000 1.0
C      1  0.4862120000000  0.4763960000000  0.4005820000000 1.0
C      1  0.5053870000000  0.4262590000000  0.4315090000000 1.0
C      1  0.4849900000000  0.3998330000000  0.4862240000000 1.0
C      1  0.5140550000000  0.4105860000000  0.5453990000000 1.0
C      1  0.4894420000000  0.4567080000000  0.5852900000000 1.0
C      1  0.5156580000000  0.5185500000000  0.6000110000000 1.0
C      1  0.4099670000000  0.5040790000000  0.4695860000000 1.0
C      1  0.5984280000000  0.4684020000000  0.4631630000000 1.0
C      1  0.4044960000000  0.4717520000000  0.4786600000000 1.0
C      1  0.5909800000000  0.4547650000000  0.4936560000000 1.0
C      1  0.4073190000000  0.4805260000000  0.5315000000000 1.0
C      1  0.5887900000000  0.4961720000000  0.5479590000000 1.0
C      1  0.4129420000000  0.5141440000000  0.5300550000000 1.0
C      1  0.5873070000000  0.5425260000000  0.5236020000000 1.0
C      1  0.4039960000000  0.5218100000000  0.4979940000000 1.0
C      1  0.5896960000000  0.5316530000000  0.4713910000000 1.0
C      1  0.4112850000000  0.4854980000000  0.4409990000000 1.0
C      1  0.5884970000000  0.4412160000000  0.4561550000000 1.0
C      1  0.4068020000000  0.4444840000000  0.4954710000000 1.0
C      1  0.5874890000000  0.4491070000000  0.5265640000000 1.0
C      1  0.4095460000000  0.4788210000000  0.5637820000000 1.0
C      1  0.5844410000000  0.5181190000000  0.5654030000000 1.0
C      1  0.4135720000000  0.5462600000000  0.5412160000000 1.0
C      1  0.5888270000000  0.5688470000000  0.5058740000000 1.0
C      1  0.4069140000000  0.5438550000000  0.4722630000000 1.0
C      1  0.5921540000000  0.5182850000000  0.4452070000000 1.0
C      1  0.4523910000000  0.5257810000000  0.4967550000000 1.0
C      1  0.5632480000000  0.5203010000000  0.4847730000000 1.0
C      1  0.4413570000000  0.5071810000000  0.4758350000000 1.0
C      1  0.5608780000000  0.4907780000000  0.4767160000000 1.0
C      1  0.4369730000000  0.4769960000000  0.4859850000000 1.0
C      1  0.5643060000000  0.4700220000000  0.5006470000000 1.0
C      1  0.4374970000000  0.4838540000000  0.5182140000000 1.0
C      1  0.5654300000000  0.4928680000000  0.5248450000000 1.0
C      1  0.4452840000000  0.5152270000000  0.5242730000000 1.0
C      1  0.5633520000000  0.5227060000000  0.5154070000000 1.0
C      1  0.4387730000000  0.5289120000000  0.4289710000000 1.0
C      1  0.5616090000000  0.4914640000000  0.4305480000000 1.0
C      1  0.4373590000000  0.4451340000000  0.4413770000000 1.0
C      1  0.5592730000000  0.4136370000000  0.4804400000000 1.0
C      1  0.4395450000000  0.4374160000000  0.5299510000000 1.0
C      1  0.5555430000000  0.4632560000000  0.5661840000000 1.0
C      1  0.4390310000000  0.5127480000000  0.5801880000000 1.0
C      1  0.5561760000000  0.5598930000000  0.5602860000000 1.0
C      1  0.4429550000000  0.5716020000000  0.5076270000000 1.0
C      1  0.5513870000000  0.5705790000000  0.4728160000000 1.0
C      1  0.5243390000000  0.5237500000000  0.5059470000000 1.0
C      1  0.4837170000000  0.5276290000000  0.4836270000000 1.0
C      1  0.5250640000000  0.5114970000000  0.4768220000000 1.0
C      1  0.4796700000000  0.4970060000000  0.4719740000000 1.0
C      1  0.5230530000000  0.4803730000000  0.4818040000000 1.0
C      1  0.4735370000000  0.4785430000000  0.4989310000000 1.0
C      1  0.5274560000000  0.4779950000000  0.5134290000000 1.0
C      1  0.4774870000000  0.4918350000000  0.5248900000000 1.0
C      1  0.5182690000000  0.5014140000000  0.5317490000000 1.0
C      1  0.4862620000000  0.5195130000000  0.5165510000000 1.0
C      1  0.6077950000000  0.5345140000000  0.4986220000000 1.0
C      1  0.3878140000000  0.4920250000000  0.5007670000000 1.0
END
