TITL C-2622961-1971-454 2.59944319329566e-05 125000 -444.630821450382 0 0 88 (C1) n - 1
REM
REM in /nfs/bkarasulu/CARBON/AIRSS/Generating-Clusters/AIREBO/with-SteepDescent/Higher-Symm/SD-CG/HFTN-CG
REM
REM
REM
REM
REM
REM ./C.cell (b20cbc046b6831c77cfcea5457e17084)
REM
REM compiler GCC version 9.2.1 20190827 (Red Hat 9.2.1-1)
REM options -cpp -mtune=generic -march=x86-64 -g -O0 -fpre-include=/usr/include/finclude/math-vector-fortran.h
REM seed -27824539 -460358346 -850362817 -1308561181 -1382432128 -80458615 -1290746799 686113684 1089847224 1220099711 1747331945 -720143517 -85578276 122256143 472163163 834009046 -1339350427 1270432655 -1464964734 -1657838505 -737016978 -772715560 352826875 -873174171 436782854 1007302755 -758108571 592874088 1626068232 -703720044 -1617713920 -812289870 155620425
REM
CELL 1.54180   50.00000   50.00000   50.00000   90.00000   90.00000   90.00000
LATT -1
SFAC C  
C      1  0.4798580000000  0.5675170000000  0.4540790000000 1.0
C      1  0.4557030000000  0.4790590000000  0.5639130000000 1.0
C      1  0.5667730000000  0.4504100000000  0.4794950000000 1.0
C      1  0.4773910000000  0.4305700000000  0.5494710000000 1.0
C      1  0.5210610000000  0.4317960000000  0.4518440000000 1.0
C      1  0.5234770000000  0.5645340000000  0.5448910000000 1.0
C      1  0.4532980000000  0.5200930000000  0.4341890000000 1.0
C      1  0.5455540000000  0.5198060000000  0.5621600000000 1.0
C      1  0.5466690000000  0.4801410000000  0.4403470000000 1.0
C      1  0.5702000000000  0.5482050000000  0.5226060000000 1.0
C      1  0.4335530000000  0.5446170000000  0.4767370000000 1.0
C      1  0.4256040000000  0.4478430000000  0.5247820000000 1.0
C      1  0.4833680000000  0.4595090000000  0.5668620000000 1.0
C      1  0.4536240000000  0.5721550000000  0.4738500000000 1.0
C      1  0.5739500000000  0.4745820000000  0.4602500000000 1.0
C      1  0.4768760000000  0.5431410000000  0.4300130000000 1.0
C      1  0.5191720000000  0.4611550000000  0.4340570000000 1.0
C      1  0.5179420000000  0.5390430000000  0.5675350000000 1.0
C      1  0.4548380000000  0.4297650000000  0.5241410000000 1.0
C      1  0.5414350000000  0.5660890000000  0.5167860000000 1.0
C      1  0.5433610000000  0.4256160000000  0.4768060000000 1.0
C      1  0.5722440000000  0.5221280000000  0.5407810000000 1.0
C      1  0.4296120000000  0.4769370000000  0.5419170000000 1.0
C      1  0.4278940000000  0.5207910000000  0.4569140000000 1.0
C      1  0.4713260000000  0.4921670000000  0.4413870000000 1.0
C      1  0.4456630000000  0.4624930000000  0.5035090000000 1.0
C      1  0.4979850000000  0.4511170000000  0.4662060000000 1.0
C      1  0.4679970000000  0.5107210000000  0.5620620000000 1.0
C      1  0.5448620000000  0.5141010000000  0.4407160000000 1.0
C      1  0.5361920000000  0.4871340000000  0.5608230000000 1.0
C      1  0.4404370000000  0.5361250000000  0.5089350000000 1.0
C      1  0.5586390000000  0.5394880000000  0.4927420000000 1.0
C      1  0.5597360000000  0.4613960000000  0.5108230000000 1.0
C      1  0.4915450000000  0.5553270000000  0.5426860000000 1.0
C      1  0.5072240000000  0.5577280000000  0.4717490000000 1.0
C      1  0.5032420000000  0.4466490000000  0.5348340000000 1.0
C      1  0.4705740000000  0.4464830000000  0.4994240000000 1.0
C      1  0.4452950000000  0.4928650000000  0.4620690000000 1.0
C      1  0.4858560000000  0.4637290000000  0.4403840000000 1.0
C      1  0.4628870000000  0.5560700000000  0.5008890000000 1.0
C      1  0.5333260000000  0.4470320000000  0.5007310000000 1.0
C      1  0.5375550000000  0.5589450000000  0.4837630000000 1.0
C      1  0.4431000000000  0.5077980000000  0.5395020000000 1.0
C      1  0.5567860000000  0.4925640000000  0.5353960000000 1.0
C      1  0.5638210000000  0.5064680000000  0.4646180000000 1.0
C      1  0.4839470000000  0.5401720000000  0.5679200000000 1.0
C      1  0.5165000000000  0.4604150000000  0.5592500000000 1.0
C      1  0.5047950000000  0.5376260000000  0.4462590000000 1.0
C      1  0.4818740000000  0.5816050000000  0.4938020000000 1.0
C      1  0.5059440000000  0.4787570000000  0.5855350000000 1.0
C      1  0.5912960000000  0.4984460000000  0.4806180000000 1.0
C      1  0.4778950000000  0.4148230000000  0.5018690000000 1.0
C      1  0.5175640000000  0.4191360000000  0.4999910000000 1.0
C      1  0.5213990000000  0.5861050000000  0.4960120000000 1.0
C      1  0.5030950000000  0.5215060000000  0.4183590000000 1.0
C      1  0.4979120000000  0.5177520000000  0.5875770000000 1.0
C      1  0.4984150000000  0.4813380000000  0.4141490000000 1.0
C      1  0.5844990000000  0.4958130000000  0.5197580000000 1.0
C      1  0.4151370000000  0.4941760000000  0.4763260000000 1.0
C      1  0.4148010000000  0.5026840000000  0.5227980000000 1.0
C      1  0.4756270000000  0.4921460000000  0.5895330000000 1.0
C      1  0.5017090000000  0.5911130000000  0.4683300000000 1.0
C      1  0.5894860000000  0.4706720000000  0.4972260000000 1.0
C      1  0.4743280000000  0.5053350000000  0.4101730000000 1.0
C      1  0.5267180000000  0.4970500000000  0.4176710000000 1.0
C      1  0.5279220000000  0.5048630000000  0.5886390000000 1.0
C      1  0.4995050000000  0.4140300000000  0.5281070000000 1.0
C      1  0.5013640000000  0.5792340000000  0.5215940000000 1.0
C      1  0.4968460000000  0.4192950000000  0.4738940000000 1.0
C      1  0.5866430000000  0.5246290000000  0.5018390000000 1.0
C      1  0.4164040000000  0.4752360000000  0.5043030000000 1.0
C      1  0.4131780000000  0.5222680000000  0.4949260000000 1.0
C      1  0.4892710000000  0.4988180000000  0.5425630000000 1.0
C      1  0.5209620000000  0.5037370000000  0.4597610000000 1.0
C      1  0.4512580000000  0.5108740000000  0.4888960000000 1.0
C      1  0.4926510000000  0.4629890000000  0.5117930000000 1.0
C      1  0.5153390000000  0.5028690000000  0.5418000000000 1.0
C      1  0.4919450000000  0.5093340000000  0.4571570000000 1.0
C      1  0.4517570000000  0.4922290000000  0.5118890000000 1.0
C      1  0.5543750000000  0.4887260000000  0.4920490000000 1.0
C      1  0.5491390000000  0.5133820000000  0.5096110000000 1.0
C      1  0.4908750000000  0.5427210000000  0.4940980000000 1.0
C      1  0.5055940000000  0.5396370000000  0.5184360000000 1.0
C      1  0.5111520000000  0.4658910000000  0.4894270000000 1.0
C      1  0.5276730000000  0.4870760000000  0.4792590000000 1.0
C      1  0.5228280000000  0.5186880000000  0.5218510000000 1.0
C      1  0.4793360000000  0.5183320000000  0.4820030000000 1.0
C      1  0.4793590000000  0.4866890000000  0.5209820000000 1.0
END
