TITL C-2622967-6265-669 -533.231563097684 125000 -908.64406310112 0 0 165 (C1) n - 1
REM
REM in /nfs/bkarasulu/CARBON/AIRSS/Generating-Clusters/AIREBO/with-SteepDescent/Higher-Symm/SD-CG/HFTN-CG
REM
REM
REM
REM
REM
REM ./C.cell (b20cbc046b6831c77cfcea5457e17084)
REM
REM compiler GCC version 9.2.1 20190827 (Red Hat 9.2.1-1)
REM options -cpp -mtune=generic -march=x86-64 -g -O0 -fpre-include=/usr/include/finclude/math-vector-fortran.h
REM seed 1795361281 -706255279 -1087115886 -85021793 -900369536 -752708435 -2026640003 1070738032 27261760 -897047740 1908401469 -1900272597 -908911854 -280462924 -1789145631 1085111071 847420418 1050993185 886095442 910510369 -127195758 1711825685 685836216 318386334 -1971365949 -1233689461 -257754729 -594986294 -842707832 -28504451 540268579 -307698747 -744699127
REM
CELL 1.54180   50.00000   50.00000   50.00000   90.00000   90.00000   90.00000
LATT -1
SFAC C  
C      1  0.5957850000000  0.4601680000000  0.4435730000000 1.0
C      1  0.5937790000000  0.4347720000000  0.5262290000000 1.0
C      1  0.5886200000000  0.4982500000000  0.5743000000000 1.0
C      1  0.5900990000000  0.5593150000000  0.5205540000000 1.0
C      1  0.5811120000000  0.5361430000000  0.4461190000000 1.0
C      1  0.5208850000000  0.5706240000000  0.5472280000000 1.0
C      1  0.5158010000000  0.5952320000000  0.4485580000000 1.0
C      1  0.5149930000000  0.4746180000000  0.4091000000000 1.0
C      1  0.5148650000000  0.4070690000000  0.4917290000000 1.0
C      1  0.5127750000000  0.4722000000000  0.5840800000000 1.0
C      1  0.4822160000000  0.4311170000000  0.5770330000000 1.0
C      1  0.4893320000000  0.5650270000000  0.5834010000000 1.0
C      1  0.4810270000000  0.6083240000000  0.4804470000000 1.0
C      1  0.4832150000000  0.5097230000000  0.3905330000000 1.0
C      1  0.4908040000000  0.3904950000000  0.4649140000000 1.0
C      1  0.4909190000000  0.4918760000000  0.5386060000000 1.0
C      1  0.4888020000000  0.5514230000000  0.5177320000000 1.0
C      1  0.4920930000000  0.5386230000000  0.4629590000000 1.0
C      1  0.4898190000000  0.4767610000000  0.4521770000000 1.0
C      1  0.4822550000000  0.4468390000000  0.5098160000000 1.0
C      1  0.5541580000000  0.4789490000000  0.4601570000000 1.0
C      1  0.5592590000000  0.4573590000000  0.5245330000000 1.0
C      1  0.5450880000000  0.5027960000000  0.5499010000000 1.0
C      1  0.5502070000000  0.5496200000000  0.5083090000000 1.0
C      1  0.5478130000000  0.5327320000000  0.4457360000000 1.0
C      1  0.4850130000000  0.4621220000000  0.5521240000000 1.0
C      1  0.4823420000000  0.5186270000000  0.5694750000000 1.0
C      1  0.4854980000000  0.5664630000000  0.4809400000000 1.0
C      1  0.4908810000000  0.4998650000000  0.4284560000000 1.0
C      1  0.4932820000000  0.4291310000000  0.4669460000000 1.0
C      1  0.4795590000000  0.5828980000000  0.5267860000000 1.0
C      1  0.4717930000000  0.5575650000000  0.4433290000000 1.0
C      1  0.4792590000000  0.4544800000000  0.4287570000000 1.0
C      1  0.4745080000000  0.4170130000000  0.5242190000000 1.0
C      1  0.4769250000000  0.4956830000000  0.5949070000000 1.0
C      1  0.5557000000000  0.5632830000000  0.4330570000000 1.0
C      1  0.5576710000000  0.4606360000000  0.4325120000000 1.0
C      1  0.5557940000000  0.4243810000000  0.5198010000000 1.0
C      1  0.5501550000000  0.4934640000000  0.5819720000000 1.0
C      1  0.5557850000000  0.5761830000000  0.5288070000000 1.0
C      1  0.4662290000000  0.6067710000000  0.5470280000000 1.0
C      1  0.4573940000000  0.5802080000000  0.4238830000000 1.0
C      1  0.4598640000000  0.4279680000000  0.4199750000000 1.0
C      1  0.4572300000000  0.3879430000000  0.5206120000000 1.0
C      1  0.4563020000000  0.4904000000000  0.6214220000000 1.0
C      1  0.4368990000000  0.4961480000000  0.4199320000000 1.0
C      1  0.4288330000000  0.4204990000000  0.4779500000000 1.0
C      1  0.4339660000000  0.4590480000000  0.5678670000000 1.0
C      1  0.4311370000000  0.5513360000000  0.5668100000000 1.0
C      1  0.4337810000000  0.5730450000000  0.4780550000000 1.0
C      1  0.5374290000000  0.4647820000000  0.4801180000000 1.0
C      1  0.5404110000000  0.4741100000000  0.5094190000000 1.0
C      1  0.5353470000000  0.5034150000000  0.5192470000000 1.0
C      1  0.5374740000000  0.5232210000000  0.4940870000000 1.0
C      1  0.5361470000000  0.5065320000000  0.4644920000000 1.0
C      1  0.5085290000000  0.4375100000000  0.4217720000000 1.0
C      1  0.5045470000000  0.4015300000000  0.5310840000000 1.0
C      1  0.5031630000000  0.5018410000000  0.6104840000000 1.0
C      1  0.5080470000000  0.6014330000000  0.5253660000000 1.0
C      1  0.5096130000000  0.5582270000000  0.4174470000000 1.0
C      1  0.5207020000000  0.5604680000000  0.5182890000000 1.0
C      1  0.5143140000000  0.5360810000000  0.4409720000000 1.0
C      1  0.5188430000000  0.4633320000000  0.4410630000000 1.0
C      1  0.5109270000000  0.4309220000000  0.5156970000000 1.0
C      1  0.5151160000000  0.4927690000000  0.5624490000000 1.0
C      1  0.4627320000000  0.5072450000000  0.4370160000000 1.0
C      1  0.4292220000000  0.4378980000000  0.4995530000000 1.0
C      1  0.4541770000000  0.4613010000000  0.5406180000000 1.0
C      1  0.4520870000000  0.5254210000000  0.5554910000000 1.0
C      1  0.4581080000000  0.5634140000000  0.4946520000000 1.0
C      1  0.4363480000000  0.4794690000000  0.4672400000000 1.0
C      1  0.4254220000000  0.4672050000000  0.4939910000000 1.0
C      1  0.4366470000000  0.4815020000000  0.5222840000000 1.0
C      1  0.4468290000000  0.5359310000000  0.5259120000000 1.0
C      1  0.4355200000000  0.5135840000000  0.4675640000000 1.0
C      1  0.4359320000000  0.4401510000000  0.4122990000000 1.0
C      1  0.4355400000000  0.3813880000000  0.5056880000000 1.0
C      1  0.4312770000000  0.4815500000000  0.6133270000000 1.0
C      1  0.4413450000000  0.6004260000000  0.5577040000000 1.0
C      1  0.4302530000000  0.5808060000000  0.4309860000000 1.0
C      1  0.4719940000000  0.5432940000000  0.5866790000000 1.0
C      1  0.4656550000000  0.6018810000000  0.5022160000000 1.0
C      1  0.4610070000000  0.5267890000000  0.3920250000000 1.0
C      1  0.4706820000000  0.4121260000000  0.4480620000000 1.0
C      1  0.4659940000000  0.4218960000000  0.5567850000000 1.0
C      1  0.5367910000000  0.5196920000000  0.3998830000000 1.0
C      1  0.5445010000000  0.4097790000000  0.4519830000000 1.0
C      1  0.5328980000000  0.4258470000000  0.5716760000000 1.0
C      1  0.5317410000000  0.5432530000000  0.5887120000000 1.0
C      1  0.5410210000000  0.6028190000000  0.4798910000000 1.0
C      1  0.5405930000000  0.4312590000000  0.4312240000000 1.0
C      1  0.5338380000000  0.4136020000000  0.5434330000000 1.0
C      1  0.5303110000000  0.5154470000000  0.5971830000000 1.0
C      1  0.5387670000000  0.5995590000000  0.5109110000000 1.0
C      1  0.5371100000000  0.5462960000000  0.4097460000000 1.0
C      1  0.5775990000000  0.4357870000000  0.4963230000000 1.0
C      1  0.5693930000000  0.4722830000000  0.5635860000000 1.0
C      1  0.5681280000000  0.5484870000000  0.5442390000000 1.0
C      1  0.5677040000000  0.5610680000000  0.4649710000000 1.0
C      1  0.5792890000000  0.4867800000000  0.4302150000000 1.0
C      1  0.5123190000000  0.5036170000000  0.3949250000000 1.0
C      1  0.5193760000000  0.4003160000000  0.4587100000000 1.0
C      1  0.5104180000000  0.4390740000000  0.5825800000000 1.0
C      1  0.5140430000000  0.5621620000000  0.5976910000000 1.0
C      1  0.5100140000000  0.6058010000000  0.4794890000000 1.0
C      1  0.5952340000000  0.5083420000000  0.4501940000000 1.0
C      1  0.5896620000000  0.4538650000000  0.4726790000000 1.0
C      1  0.5930190000000  0.4554690000000  0.5452900000000 1.0
C      1  0.5835090000000  0.5217180000000  0.5584970000000 1.0
C      1  0.5858840000000  0.5494020000000  0.4900170000000 1.0
C      1  0.5175280000000  0.5622060000000  0.4865820000000 1.0
C      1  0.5218390000000  0.5050250000000  0.4337050000000 1.0
C      1  0.5221140000000  0.4398650000000  0.4654650000000 1.0
C      1  0.5153970000000  0.4489010000000  0.5441340000000 1.0
C      1  0.5109240000000  0.5245850000000  0.5520440000000 1.0
C      1  0.5363800000000  0.5993420000000  0.5448270000000 1.0
C      1  0.5277610000000  0.5793280000000  0.4302200000000 1.0
C      1  0.5369780000000  0.4522780000000  0.4067060000000 1.0
C      1  0.5353170000000  0.3976910000000  0.5144690000000 1.0
C      1  0.5315570000000  0.4832210000000  0.6087350000000 1.0
C      1  0.5476530000000  0.4492660000000  0.5549480000000 1.0
C      1  0.5370170000000  0.5456230000000  0.5579980000000 1.0
C      1  0.5406800000000  0.5742290000000  0.4735370000000 1.0
C      1  0.5521660000000  0.5006920000000  0.4188900000000 1.0
C      1  0.5527330000000  0.4285470000000  0.4751480000000 1.0
C      1  0.4443610000000  0.4327440000000  0.5249790000000 1.0
C      1  0.4468420000000  0.5062840000000  0.5831070000000 1.0
C      1  0.4496130000000  0.5667770000000  0.5263640000000 1.0
C      1  0.4456260000000  0.5358380000000  0.4439070000000 1.0
C      1  0.4499240000000  0.4567730000000  0.4458610000000 1.0
C      1  0.4446320000000  0.4284340000000  0.4567490000000 1.0
C      1  0.4369310000000  0.4303520000000  0.5582950000000 1.0
C      1  0.4433370000000  0.5390200000000  0.5916090000000 1.0
C      1  0.4379480000000  0.5976830000000  0.4958200000000 1.0
C      1  0.4396010000000  0.5268970000000  0.4116520000000 1.0
C      1  0.4267550000000  0.5625260000000  0.4532120000000 1.0
C      1  0.4319770000000  0.4691610000000  0.4217700000000 1.0
C      1  0.4232280000000  0.3935980000000  0.4843420000000 1.0
C      1  0.4286190000000  0.4798950000000  0.5838610000000 1.0
C      1  0.4341440000000  0.5738970000000  0.5514630000000 1.0
C      1  0.4206690000000  0.5258290000000  0.5148220000000 1.0
C      1  0.4134270000000  0.5229410000000  0.4868410000000 1.0
C      1  0.3904720000000  0.5041180000000  0.4859460000000 1.0
C      1  0.4005060000000  0.4840050000000  0.5054920000000 1.0
C      1  0.4129900000000  0.5013910000000  0.5275590000000 1.0
C      1  0.5836240000000  0.4798290000000  0.5273290000000 1.0
C      1  0.5729910000000  0.5070210000000  0.5322020000000 1.0
C      1  0.5735370000000  0.5249620000000  0.5101780000000 1.0
C      1  0.5825180000000  0.5167080000000  0.4807430000000 1.0
C      1  0.5821340000000  0.4854630000000  0.4711730000000 1.0
C      1  0.4845110000000  0.5868960000000  0.4552110000000 1.0
C      1  0.4824590000000  0.4782860000000  0.4035670000000 1.0
C      1  0.4811140000000  0.4093220000000  0.4917630000000 1.0
C      1  0.4796970000000  0.4641870000000  0.5845330000000 1.0
C      1  0.4922420000000  0.5737730000000  0.5570060000000 1.0
C      1  0.5074660000000  0.5230860000000  0.5201010000000 1.0
C      1  0.5057000000000  0.5204370000000  0.4862710000000 1.0
C      1  0.5076930000000  0.4908170000000  0.4752640000000 1.0
C      1  0.5059800000000  0.4640880000000  0.4926190000000 1.0
C      1  0.5108260000000  0.4723130000000  0.5236020000000 1.0
C      1  0.4663740000000  0.5213860000000  0.4768830000000 1.0
C      1  0.4662620000000  0.4884440000000  0.4720630000000 1.0
C      1  0.4687440000000  0.4749980000000  0.4998950000000 1.0
C      1  0.4667300000000  0.4973560000000  0.5217420000000 1.0
C      1  0.4696960000000  0.5252810000000  0.5073240000000 1.0
END
