TITL C-2622953-3516-825 -0.0133427347065456 125000 -871.372335013326 0 0 151 (C1) n - 1
REM
REM in /nfs/bkarasulu/CARBON/AIRSS/Generating-Clusters/AIREBO/with-SteepDescent/Higher-Symm/SD-CG/HFTN-CG
REM
REM
REM
REM
REM
REM ./C.cell (b20cbc046b6831c77cfcea5457e17084)
REM
REM compiler GCC version 9.2.1 20190827 (Red Hat 9.2.1-1)
REM options -cpp -mtune=generic -march=x86-64 -g -O0 -fpre-include=/usr/include/finclude/math-vector-fortran.h
REM seed 139341183 196897607 -1772721241 -467101569 -758858423 283934220 -1094836254 -1522813831 425023453 1199020916 2030955196 907221353 3869459 1552554149 51175205 980255654 2055099542 975006219 1855970578 878749185 1280867705 -172624520 -1296597387 777594922 -26040872 -328651926 -1170914740 1908642805 584497088 1859625341 -817284714 964958787 470508155
REM
CELL 1.54180   50.00000   50.00000   50.00000   90.00000   90.00000   90.00000
LATT -1
SFAC C  
C      1  0.4446000000000  0.5222600000000  0.4335980000000 1.0
C      1  0.4437760000000  0.4720170000000  0.4217090000000 1.0
C      1  0.4328130000000  0.4356620000000  0.4482930000000 1.0
C      1  0.4315210000000  0.4205740000000  0.4916340000000 1.0
C      1  0.4402590000000  0.4315620000000  0.5376270000000 1.0
C      1  0.4337750000000  0.4649980000000  0.5737670000000 1.0
C      1  0.4434760000000  0.5136920000000  0.5769310000000 1.0
C      1  0.4230540000000  0.5559720000000  0.5609270000000 1.0
C      1  0.4352070000000  0.5754450000000  0.5282700000000 1.0
C      1  0.4360170000000  0.5808780000000  0.4825460000000 1.0
C      1  0.4358030000000  0.5600830000000  0.4431880000000 1.0
C      1  0.5402220000000  0.5152360000000  0.4029680000000 1.0
C      1  0.5377600000000  0.4586520000000  0.4043210000000 1.0
C      1  0.5396630000000  0.4238640000000  0.4459290000000 1.0
C      1  0.5367290000000  0.4104020000000  0.5009010000000 1.0
C      1  0.5412360000000  0.4162100000000  0.5556160000000 1.0
C      1  0.5463910000000  0.4540780000000  0.5674030000000 1.0
C      1  0.5347890000000  0.5024440000000  0.5940230000000 1.0
C      1  0.5393870000000  0.5455370000000  0.5687180000000 1.0
C      1  0.5350840000000  0.5921970000000  0.5346630000000 1.0
C      1  0.5349520000000  0.5948670000000  0.4790200000000 1.0
C      1  0.5344060000000  0.5664300000000  0.4328750000000 1.0
C      1  0.5210600000000  0.4331140000000  0.4196300000000 1.0
C      1  0.5200960000000  0.4147590000000  0.4715230000000 1.0
C      1  0.5230940000000  0.4040100000000  0.5313990000000 1.0
C      1  0.5193570000000  0.4350910000000  0.5735430000000 1.0
C      1  0.5253380000000  0.4732440000000  0.5862610000000 1.0
C      1  0.5225620000000  0.5344390000000  0.5940330000000 1.0
C      1  0.5234340000000  0.5732380000000  0.5571210000000 1.0
C      1  0.5189820000000  0.6037490000000  0.5070290000000 1.0
C      1  0.5187270000000  0.5904880000000  0.4508720000000 1.0
C      1  0.5207860000000  0.5399150000000  0.4170820000000 1.0
C      1  0.5225580000000  0.4861490000000  0.3942700000000 1.0
C      1  0.4125460000000  0.5341990000000  0.5419850000000 1.0
C      1  0.4188980000000  0.5541550000000  0.5175850000000 1.0
C      1  0.4199370000000  0.5566110000000  0.4875540000000 1.0
C      1  0.4216110000000  0.5418250000000  0.4607540000000 1.0
C      1  0.4207140000000  0.5106090000000  0.4468330000000 1.0
C      1  0.4238190000000  0.4816180000000  0.4451890000000 1.0
C      1  0.4194000000000  0.4582780000000  0.4628300000000 1.0
C      1  0.4225920000000  0.4486990000000  0.4943880000000 1.0
C      1  0.4187640000000  0.4559380000000  0.5274530000000 1.0
C      1  0.4198600000000  0.4772760000000  0.5489870000000 1.0
C      1  0.4196880000000  0.5066300000000  0.5536700000000 1.0
C      1  0.4421930000000  0.5438770000000  0.5813760000000 1.0
C      1  0.4521160000000  0.5741080000000  0.5577370000000 1.0
C      1  0.4530090000000  0.5941790000000  0.5074160000000 1.0
C      1  0.4559680000000  0.5819550000000  0.4562860000000 1.0
C      1  0.4494830000000  0.5474930000000  0.4195770000000 1.0
C      1  0.4567620000000  0.4904200000000  0.3983490000000 1.0
C      1  0.4535160000000  0.4403980000000  0.4252010000000 1.0
C      1  0.4434270000000  0.4156800000000  0.4664320000000 1.0
C      1  0.4451650000000  0.4124850000000  0.5141620000000 1.0
C      1  0.4489230000000  0.4347210000000  0.5693270000000 1.0
C      1  0.4519780000000  0.4866070000000  0.5932210000000 1.0
C      1  0.5397140000000  0.4710050000000  0.5427200000000 1.0
C      1  0.5230890000000  0.4967540000000  0.5536140000000 1.0
C      1  0.5368510000000  0.5240320000000  0.5465290000000 1.0
C      1  0.5432440000000  0.5346600000000  0.5220120000000 1.0
C      1  0.5255850000000  0.5464600000000  0.5036180000000 1.0
C      1  0.5255350000000  0.5425980000000  0.4769300000000 1.0
C      1  0.5321540000000  0.5162960000000  0.4609380000000 1.0
C      1  0.5290680000000  0.4917260000000  0.4494850000000 1.0
C      1  0.5257350000000  0.4629140000000  0.4644350000000 1.0
C      1  0.5393150000000  0.4503430000000  0.4939370000000 1.0
C      1  0.5415960000000  0.4649580000000  0.5167710000000 1.0
C      1  0.5955730000000  0.4526000000000  0.4804040000000 1.0
C      1  0.6085170000000  0.4558950000000  0.5048090000000 1.0
C      1  0.6065430000000  0.4629170000000  0.5316540000000 1.0
C      1  0.6104370000000  0.4888600000000  0.5411690000000 1.0
C      1  0.6027730000000  0.5150160000000  0.5468120000000 1.0
C      1  0.6027370000000  0.5372680000000  0.5307080000000 1.0
C      1  0.5933670000000  0.5484660000000  0.5027520000000 1.0
C      1  0.5902050000000  0.5488860000000  0.4755210000000 1.0
C      1  0.5905890000000  0.5264640000000  0.4564760000000 1.0
C      1  0.5977190000000  0.4989410000000  0.4573310000000 1.0
C      1  0.5950940000000  0.4709260000000  0.4587750000000 1.0
C      1  0.5646910000000  0.5035810000000  0.5941150000000 1.0
C      1  0.5715290000000  0.5465620000000  0.5631140000000 1.0
C      1  0.5645930000000  0.5850250000000  0.5272880000000 1.0
C      1  0.5641410000000  0.5919530000000  0.4790890000000 1.0
C      1  0.5641220000000  0.5614000000000  0.4374910000000 1.0
C      1  0.5669530000000  0.5127710000000  0.4160700000000 1.0
C      1  0.5667390000000  0.4606340000000  0.4056180000000 1.0
C      1  0.5670820000000  0.4311290000000  0.4495280000000 1.0
C      1  0.5665160000000  0.4183660000000  0.4991330000000 1.0
C      1  0.5681030000000  0.4187210000000  0.5510700000000 1.0
C      1  0.5758400000000  0.4589010000000  0.5705690000000 1.0
C      1  0.5028690000000  0.4150650000000  0.4422000000000 1.0
C      1  0.5046500000000  0.3986500000000  0.5043840000000 1.0
C      1  0.5022170000000  0.4149340000000  0.5548300000000 1.0
C      1  0.4971120000000  0.4546970000000  0.5901820000000 1.0
C      1  0.5024780000000  0.5098560000000  0.6015830000000 1.0
C      1  0.5044490000000  0.5597180000000  0.5818790000000 1.0
C      1  0.5009720000000  0.5965810000000  0.5339160000000 1.0
C      1  0.5013330000000  0.6012900000000  0.4780200000000 1.0
C      1  0.5017660000000  0.5751030000000  0.4266640000000 1.0
C      1  0.5070610000000  0.5162610000000  0.3973300000000 1.0
C      1  0.5040880000000  0.4577630000000  0.4034300000000 1.0
C      1  0.4730660000000  0.5857200000000  0.5330550000000 1.0
C      1  0.4753050000000  0.5862950000000  0.4829160000000 1.0
C      1  0.4747930000000  0.5631310000000  0.4351220000000 1.0
C      1  0.4799310000000  0.5039540000000  0.4093720000000 1.0
C      1  0.4769290000000  0.4626670000000  0.4186500000000 1.0
C      1  0.4717430000000  0.4263020000000  0.4502270000000 1.0
C      1  0.4747630000000  0.4120610000000  0.5079060000000 1.0
C      1  0.4729990000000  0.4271410000000  0.5467600000000 1.0
C      1  0.4676720000000  0.4625120000000  0.5750650000000 1.0
C      1  0.4762370000000  0.5090350000000  0.5851930000000 1.0
C      1  0.4731220000000  0.5549130000000  0.5763760000000 1.0
C      1  0.4657770000000  0.5358420000000  0.5503510000000 1.0
C      1  0.4707490000000  0.5533930000000  0.5293260000000 1.0
C      1  0.4739280000000  0.5358320000000  0.4783140000000 1.0
C      1  0.4818150000000  0.5351650000000  0.4499880000000 1.0
C      1  0.4712670000000  0.5072110000000  0.4401710000000 1.0
C      1  0.4769920000000  0.4812250000000  0.4580700000000 1.0
C      1  0.4780990000000  0.4497690000000  0.4714500000000 1.0
C      1  0.4653150000000  0.4436750000000  0.4994700000000 1.0
C      1  0.4721350000000  0.4615980000000  0.5203970000000 1.0
C      1  0.4681600000000  0.4790750000000  0.5453570000000 1.0
C      1  0.4718200000000  0.5064300000000  0.5457530000000 1.0
C      1  0.5803940000000  0.4860310000000  0.5721360000000 1.0
C      1  0.5854250000000  0.5196700000000  0.5727490000000 1.0
C      1  0.5740120000000  0.5554620000000  0.5305610000000 1.0
C      1  0.5746490000000  0.5975430000000  0.5049070000000 1.0
C      1  0.5747240000000  0.5707610000000  0.4632910000000 1.0
C      1  0.5752810000000  0.5344880000000  0.4325740000000 1.0
C      1  0.5731160000000  0.4872590000000  0.4238030000000 1.0
C      1  0.5802270000000  0.4557520000000  0.4346670000000 1.0
C      1  0.5772680000000  0.4303920000000  0.4760540000000 1.0
C      1  0.5782400000000  0.4279160000000  0.5220910000000 1.0
C      1  0.5925970000000  0.4414400000000  0.5499410000000 1.0
C      1  0.5075800000000  0.4424420000000  0.4846240000000 1.0
C      1  0.5004960000000  0.4319910000000  0.5141650000000 1.0
C      1  0.4957550000000  0.4509820000000  0.5392270000000 1.0
C      1  0.5040630000000  0.4693100000000  0.5600320000000 1.0
C      1  0.4989160000000  0.5165610000000  0.5609660000000 1.0
C      1  0.5041900000000  0.5466140000000  0.5498270000000 1.0
C      1  0.5001950000000  0.5522220000000  0.5166990000000 1.0
C      1  0.4818210000000  0.5580480000000  0.4920910000000 1.0
C      1  0.5117130000000  0.5370660000000  0.4471510000000 1.0
C      1  0.5063660000000  0.4930750000000  0.4277090000000 1.0
C      1  0.5007000000000  0.4650780000000  0.4425660000000 1.0
C      1  0.5436570000000  0.5002170000000  0.4985280000000 1.0
C      1  0.4158060000000  0.5018160000000  0.4986120000000 1.0
C      1  0.5697230000000  0.4991410000000  0.5009670000000 1.0
C      1  0.4681350000000  0.5109330000000  0.4896660000000 1.0
C      1  0.4425140000000  0.5056620000000  0.4990070000000 1.0
C      1  0.4906500000000  0.4963670000000  0.4963990000000 1.0
C      1  0.3894940000000  0.5005600000000  0.4988820000000 1.0
C      1  0.5165500000000  0.4959300000000  0.5035710000000 1.0
END
