TITL C-2622960-5345-451 -0.000171079905574026 125000 -760.85700682018 0 0 144 (C1) n - 1
REM
REM in /nfs/bkarasulu/CARBON/AIRSS/Generating-Clusters/AIREBO/with-SteepDescent/Higher-Symm/SD-CG/HFTN-CG
REM
REM
REM
REM
REM
REM ./C.cell (b20cbc046b6831c77cfcea5457e17084)
REM
REM compiler GCC version 9.2.1 20190827 (Red Hat 9.2.1-1)
REM options -cpp -mtune=generic -march=x86-64 -g -O0 -fpre-include=/usr/include/finclude/math-vector-fortran.h
REM seed -878585096 -171727696 -1869359652 -1265431399 -2049634420 -120767491 1524112416 -1750596271 759383391 -462636764 1524794310 -252708081 -1990640511 -1469868318 1028791108 1421087600 -1523466587 -2037099865 1177587586 250476728 -2027915662 528251619 -1291105127 -2110264254 -1014364975 -173730849 1514473040 1607385312 1674144190 -1685415976 378325822 -354957070 1793504111
REM
CELL 1.54180   50.00000   50.00000   50.00000   90.00000   90.00000   90.00000
LATT -1
SFAC C  
C      1  0.5794750000000  0.5596880000000  0.4922610000000 1.0
C      1  0.4772290000000  0.4788050000000  0.5889060000000 1.0
C      1  0.4344470000000  0.5201250000000  0.5358690000000 1.0
C      1  0.4787530000000  0.4339230000000  0.5418750000000 1.0
C      1  0.5145320000000  0.5023430000000  0.4497740000000 1.0
C      1  0.4635180000000  0.5020770000000  0.5078850000000 1.0
C      1  0.4007660000000  0.5358290000000  0.5035370000000 1.0
C      1  0.5325540000000  0.5361940000000  0.4919100000000 1.0
C      1  0.4232170000000  0.4774600000000  0.5528100000000 1.0
C      1  0.4096930000000  0.4740270000000  0.4488590000000 1.0
C      1  0.5703560000000  0.5354720000000  0.5110800000000 1.0
C      1  0.4594430000000  0.5571930000000  0.4275960000000 1.0
C      1  0.5487020000000  0.4942300000000  0.5398640000000 1.0
C      1  0.5291190000000  0.4920510000000  0.5635470000000 1.0
C      1  0.5290380000000  0.5058660000000  0.4037920000000 1.0
C      1  0.6118900000000  0.5124520000000  0.5008440000000 1.0
C      1  0.5010870000000  0.4785420000000  0.5512960000000 1.0
C      1  0.5160550000000  0.5349730000000  0.5947020000000 1.0
C      1  0.4402450000000  0.4696290000000  0.4854770000000 1.0
C      1  0.4632510000000  0.5271890000000  0.5447450000000 1.0
C      1  0.4819670000000  0.5941320000000  0.4966520000000 1.0
C      1  0.4956370000000  0.5497850000000  0.4561710000000 1.0
C      1  0.5319330000000  0.4938820000000  0.4846080000000 1.0
C      1  0.5128190000000  0.5163640000000  0.5112520000000 1.0
C      1  0.5516810000000  0.5711740000000  0.5089400000000 1.0
C      1  0.5115030000000  0.5821480000000  0.4728760000000 1.0
C      1  0.3999710000000  0.4836850000000  0.5287620000000 1.0
C      1  0.5229180000000  0.4556850000000  0.5836270000000 1.0
C      1  0.5148770000000  0.4820780000000  0.4224730000000 1.0
C      1  0.5165500000000  0.5838690000000  0.5513320000000 1.0
C      1  0.4699230000000  0.4518240000000  0.5143450000000 1.0
C      1  0.5115000000000  0.4126270000000  0.4707920000000 1.0
C      1  0.5435700000000  0.4213670000000  0.5179140000000 1.0
C      1  0.4650230000000  0.5483500000000  0.4660320000000 1.0
C      1  0.5377930000000  0.5195790000000  0.5278930000000 1.0
C      1  0.4633260000000  0.4146740000000  0.4770220000000 1.0
C      1  0.4907950000000  0.5230180000000  0.5972130000000 1.0
C      1  0.4370940000000  0.4126720000000  0.5310390000000 1.0
C      1  0.4689350000000  0.5653750000000  0.5110600000000 1.0
C      1  0.5538530000000  0.5544450000000  0.4726820000000 1.0
C      1  0.5673670000000  0.5355030000000  0.4238400000000 1.0
C      1  0.5368730000000  0.5133350000000  0.5894520000000 1.0
C      1  0.5441440000000  0.5048330000000  0.4567560000000 1.0
C      1  0.4630120000000  0.5836280000000  0.4357630000000 1.0
C      1  0.4686450000000  0.5585810000000  0.5442330000000 1.0
C      1  0.4976550000000  0.4550480000000  0.4338250000000 1.0
C      1  0.4877090000000  0.5703720000000  0.5632570000000 1.0
C      1  0.4718640000000  0.4885560000000  0.5370650000000 1.0
C      1  0.5440020000000  0.4710590000000  0.5197590000000 1.0
C      1  0.4887100000000  0.5043940000000  0.5696790000000 1.0
C      1  0.5888900000000  0.4685520000000  0.5433960000000 1.0
C      1  0.5583950000000  0.5948830000000  0.5314560000000 1.0
C      1  0.4927890000000  0.4587550000000  0.4672840000000 1.0
C      1  0.5336560000000  0.4809660000000  0.5952650000000 1.0
C      1  0.5553110000000  0.4089480000000  0.4914720000000 1.0
C      1  0.4348710000000  0.5583670000000  0.5481520000000 1.0
C      1  0.4833160000000  0.5310400000000  0.4888780000000 1.0
C      1  0.5795480000000  0.4987790000000  0.5455050000000 1.0
C      1  0.5350970000000  0.5324450000000  0.4134840000000 1.0
C      1  0.4227530000000  0.4980410000000  0.4873330000000 1.0
C      1  0.5039260000000  0.4849650000000  0.5017020000000 1.0
C      1  0.4580730000000  0.5759970000000  0.4806330000000 1.0
C      1  0.6010590000000  0.4838980000000  0.5153670000000 1.0
C      1  0.4367240000000  0.5130410000000  0.4238930000000 1.0
C      1  0.5566260000000  0.5309460000000  0.4544500000000 1.0
C      1  0.5613490000000  0.4456000000000  0.5257630000000 1.0
C      1  0.5762780000000  0.4687240000000  0.4635340000000 1.0
C      1  0.5817590000000  0.4898730000000  0.4879670000000 1.0
C      1  0.5496750000000  0.5473380000000  0.5331050000000 1.0
C      1  0.5421950000000  0.5996230000000  0.5501800000000 1.0
C      1  0.4506370000000  0.4622250000000  0.5406290000000 1.0
C      1  0.4673910000000  0.5014370000000  0.4457250000000 1.0
C      1  0.4036710000000  0.5067550000000  0.5118290000000 1.0
C      1  0.5929490000000  0.5212850000000  0.5269010000000 1.0
C      1  0.5413220000000  0.4633740000000  0.4306950000000 1.0
C      1  0.5110170000000  0.5266580000000  0.4689690000000 1.0
C      1  0.5023090000000  0.5293250000000  0.5510680000000 1.0
C      1  0.4904650000000  0.4871310000000  0.4563350000000 1.0
C      1  0.4735410000000  0.4747080000000  0.4903570000000 1.0
C      1  0.3946330000000  0.4610110000000  0.5141830000000 1.0
C      1  0.5848950000000  0.5093810000000  0.5743310000000 1.0
C      1  0.4287320000000  0.5737800000000  0.4804070000000 1.0
C      1  0.4872320000000  0.5310320000000  0.5215500000000 1.0
C      1  0.4840210000000  0.4823660000000  0.4081910000000 1.0
C      1  0.4738110000000  0.5013110000000  0.3846750000000 1.0
C      1  0.4175890000000  0.5089280000000  0.5538680000000 1.0
C      1  0.4450200000000  0.4834580000000  0.4329130000000 1.0
C      1  0.4654650000000  0.4477310000000  0.5675830000000 1.0
C      1  0.5208410000000  0.3953340000000  0.5585730000000 1.0
C      1  0.5391200000000  0.4632420000000  0.4871550000000 1.0
C      1  0.5139360000000  0.4603910000000  0.5180910000000 1.0
C      1  0.4782960000000  0.4225490000000  0.5035910000000 1.0
C      1  0.5687600000000  0.4483510000000  0.5565620000000 1.0
C      1  0.5570670000000  0.5126490000000  0.4936560000000 1.0
C      1  0.4529090000000  0.4403730000000  0.4008800000000 1.0
C      1  0.4083590000000  0.4990000000000  0.4603340000000 1.0
C      1  0.4080080000000  0.5238660000000  0.4484690000000 1.0
C      1  0.4199060000000  0.4478990000000  0.4999170000000 1.0
C      1  0.5110160000000  0.5488430000000  0.4193450000000 1.0
C      1  0.4824790000000  0.5427820000000  0.4175650000000 1.0
C      1  0.5277260000000  0.4223010000000  0.5467850000000 1.0
C      1  0.5066600000000  0.4297010000000  0.4172490000000 1.0
C      1  0.4553460000000  0.5010900000000  0.5640120000000 1.0
C      1  0.5013830000000  0.5850800000000  0.5230710000000 1.0
C      1  0.5499660000000  0.4474860000000  0.4598160000000 1.0
C      1  0.5595700000000  0.4827140000000  0.4438950000000 1.0
C      1  0.4388900000000  0.4587150000000  0.4542900000000 1.0
C      1  0.4651230000000  0.4574440000000  0.4242260000000 1.0
C      1  0.4758880000000  0.5140400000000  0.4163760000000 1.0
C      1  0.5795880000000  0.4595720000000  0.5056940000000 1.0
C      1  0.4945000000000  0.4535990000000  0.5843350000000 1.0
C      1  0.5864350000000  0.5224100000000  0.4490640000000 1.0
C      1  0.5152300000000  0.4441100000000  0.4792400000000 1.0
C      1  0.4852600000000  0.4106920000000  0.4532050000000 1.0
C      1  0.5156810000000  0.5705870000000  0.4409120000000 1.0
C      1  0.4388800000000  0.5380860000000  0.4468270000000 1.0
C      1  0.5508780000000  0.5515290000000  0.5628180000000 1.0
C      1  0.4256000000000  0.5438550000000  0.4776230000000 1.0
C      1  0.5413350000000  0.4423860000000  0.5666980000000 1.0
C      1  0.5181180000000  0.5542460000000  0.5679680000000 1.0
C      1  0.6019030000000  0.5419540000000  0.5496190000000 1.0
C      1  0.5190330000000  0.5661090000000  0.5008830000000 1.0
C      1  0.4960320000000  0.4078880000000  0.4248410000000 1.0
C      1  0.5837910000000  0.5498710000000  0.5689330000000 1.0
C      1  0.5620510000000  0.5286090000000  0.5845440000000 1.0
C      1  0.5416180000000  0.5799740000000  0.4592340000000 1.0
C      1  0.4450410000000  0.4732600000000  0.5785700000000 1.0
C      1  0.4271410000000  0.5534350000000  0.5158600000000 1.0
C      1  0.5433980000000  0.4183740000000  0.4676490000000 1.0
C      1  0.4383460000000  0.5242760000000  0.5023480000000 1.0
C      1  0.4345250000000  0.4052630000000  0.4805160000000 1.0
C      1  0.4639270000000  0.4086010000000  0.5296780000000 1.0
C      1  0.5063530000000  0.4458230000000  0.5450160000000 1.0
C      1  0.5115360000000  0.4278370000000  0.5084870000000 1.0
C      1  0.4429010000000  0.5821350000000  0.5251080000000 1.0
C      1  0.4718290000000  0.5972120000000  0.5347050000000 1.0
C      1  0.4301290000000  0.4387380000000  0.5276260000000 1.0
C      1  0.5503130000000  0.5951920000000  0.4849050000000 1.0
C      1  0.4816460000000  0.5922150000000  0.4622530000000 1.0
C      1  0.5102790000000  0.3951340000000  0.4989730000000 1.0
C      1  0.4633060000000  0.4371840000000  0.4516170000000 1.0
C      1  0.6009810000000  0.5114140000000  0.4700010000000 1.0
C      1  0.4159290000000  0.4219730000000  0.4836450000000 1.0
C      1  0.4632230000000  0.5098220000000  0.4747740000000 1.0
END
