TITL C-2622960-5345-231 -0.00248235927623344 125000 -627.331285868838 0 0 115 (C1) n - 1
REM
REM in /nfs/bkarasulu/CARBON/AIRSS/Generating-Clusters/AIREBO/with-SteepDescent/Higher-Symm/SD-CG/HFTN-CG
REM
REM
REM
REM
REM
REM ./C.cell (b20cbc046b6831c77cfcea5457e17084)
REM
REM compiler GCC version 9.2.1 20190827 (Red Hat 9.2.1-1)
REM options -cpp -mtune=generic -march=x86-64 -g -O0 -fpre-include=/usr/include/finclude/math-vector-fortran.h
REM seed -607128772 -1420497848 -1183043486 -800316761 -211516701 712237837 2132169508 1914163694 -259722175 2113605030 -76778597 382260687 -887101486 315209 1565824589 807319581 1588541578 1663511845 -1850545675 -1942153207 -1094914696 1800358784 680946859 -372672978 -1502701042 1424499936 775614615 -466824224 -194686211 810930664 -656877717 -507631586 1617248185
REM
CELL 1.54180   50.00000   50.00000   50.00000   90.00000   90.00000   90.00000
LATT -1
SFAC C  
C      1  0.4860520000000  0.4852560000000  0.4309380000000 1.0
C      1  0.4928580000000  0.5584770000000  0.5187230000000 1.0
C      1  0.4969500000000  0.4462680000000  0.5430810000000 1.0
C      1  0.4243750000000  0.4810810000000  0.5354290000000 1.0
C      1  0.4176490000000  0.4794340000000  0.4624150000000 1.0
C      1  0.4216010000000  0.5455610000000  0.5041920000000 1.0
C      1  0.5204050000000  0.4867610000000  0.4507540000000 1.0
C      1  0.5317210000000  0.5266780000000  0.5066140000000 1.0
C      1  0.5390560000000  0.4690250000000  0.5276190000000 1.0
C      1  0.5506560000000  0.4323520000000  0.5485530000000 1.0
C      1  0.5461310000000  0.4904800000000  0.4207150000000 1.0
C      1  0.5278830000000  0.5710410000000  0.5367770000000 1.0
C      1  0.4910990000000  0.4207000000000  0.5015520000000 1.0
C      1  0.4812410000000  0.5342800000000  0.4395680000000 1.0
C      1  0.4846650000000  0.5524950000000  0.5637930000000 1.0
C      1  0.5166070000000  0.4036480000000  0.5031200000000 1.0
C      1  0.5063830000000  0.5415350000000  0.4235660000000 1.0
C      1  0.5098660000000  0.5684380000000  0.5655580000000 1.0
C      1  0.4851880000000  0.4237150000000  0.4553510000000 1.0
C      1  0.4880380000000  0.5719200000000  0.4510910000000 1.0
C      1  0.4801240000000  0.5126320000000  0.5905650000000 1.0
C      1  0.5618480000000  0.4625840000000  0.5063980000000 1.0
C      1  0.5671120000000  0.5082200000000  0.4705110000000 1.0
C      1  0.5566710000000  0.5156880000000  0.5269460000000 1.0
C      1  0.5160090000000  0.5178800000000  0.5354230000000 1.0
C      1  0.5096390000000  0.4599120000000  0.5193050000000 1.0
C      1  0.5217930000000  0.5179480000000  0.4616670000000 1.0
C      1  0.4685510000000  0.4613400000000  0.5530830000000 1.0
C      1  0.4601100000000  0.4726340000000  0.4349690000000 1.0
C      1  0.4595940000000  0.5682680000000  0.4956520000000 1.0
C      1  0.4286180000000  0.5161930000000  0.5159560000000 1.0
C      1  0.4066670000000  0.4910180000000  0.5095460000000 1.0
C      1  0.3976200000000  0.4898340000000  0.4810330000000 1.0
C      1  0.5369560000000  0.5771880000000  0.4896050000000 1.0
C      1  0.5379820000000  0.4671530000000  0.5779980000000 1.0
C      1  0.5534920000000  0.4470390000000  0.4334260000000 1.0
C      1  0.4408370000000  0.5314050000000  0.5666140000000 1.0
C      1  0.4469520000000  0.4344680000000  0.4892190000000 1.0
C      1  0.4394340000000  0.5469230000000  0.4537460000000 1.0
C      1  0.4754980000000  0.4251040000000  0.5285980000000 1.0
C      1  0.4647820000000  0.5115840000000  0.4275460000000 1.0
C      1  0.4694770000000  0.5624740000000  0.5380200000000 1.0
C      1  0.4863240000000  0.5249800000000  0.5438400000000 1.0
C      1  0.5027620000000  0.4509550000000  0.4916380000000 1.0
C      1  0.4895530000000  0.5237610000000  0.4708280000000 1.0
C      1  0.4511970000000  0.4790480000000  0.4624110000000 1.0
C      1  0.4691670000000  0.5379390000000  0.4940840000000 1.0
C      1  0.4573300000000  0.4838380000000  0.5366810000000 1.0
C      1  0.5108110000000  0.5840260000000  0.5103640000000 1.0
C      1  0.5217270000000  0.4424650000000  0.5611160000000 1.0
C      1  0.5146040000000  0.4866590000000  0.4172110000000 1.0
C      1  0.4638840000000  0.6133910000000  0.5177350000000 1.0
C      1  0.4682360000000  0.4219340000000  0.5594820000000 1.0
C      1  0.4658610000000  0.4962230000000  0.3983760000000 1.0
C      1  0.5077280000000  0.4378420000000  0.4616440000000 1.0
C      1  0.5025190000000  0.5554380000000  0.4666330000000 1.0
C      1  0.4988690000000  0.5067400000000  0.5696770000000 1.0
C      1  0.4804520000000  0.4424740000000  0.5792320000000 1.0
C      1  0.4920470000000  0.4897830000000  0.3918240000000 1.0
C      1  0.4807200000000  0.5928490000000  0.5029690000000 1.0
C      1  0.5929280000000  0.5001920000000  0.4874450000000 1.0
C      1  0.5885430000000  0.5075300000000  0.5183110000000 1.0
C      1  0.5916540000000  0.4763940000000  0.5093780000000 1.0
C      1  0.5693520000000  0.4255970000000  0.4432850000000 1.0
C      1  0.5579060000000  0.5844880000000  0.4653510000000 1.0
C      1  0.5538270000000  0.4915370000000  0.5927180000000 1.0
C      1  0.4381170000000  0.5062500000000  0.5537130000000 1.0
C      1  0.4341350000000  0.4545650000000  0.4767120000000 1.0
C      1  0.4351020000000  0.5536640000000  0.4803510000000 1.0
C      1  0.5613860000000  0.4675960000000  0.4167910000000 1.0
C      1  0.5493680000000  0.5863290000000  0.5183110000000 1.0
C      1  0.5584210000000  0.4425560000000  0.5756840000000 1.0
C      1  0.4480630000000  0.5839040000000  0.5237560000000 1.0
C      1  0.4433670000000  0.4412590000000  0.5639780000000 1.0
C      1  0.4407000000000  0.4819710000000  0.4136460000000 1.0
C      1  0.5807220000000  0.4655440000000  0.3982510000000 1.0
C      1  0.5709530000000  0.5992650000000  0.5240190000000 1.0
C      1  0.5749570000000  0.4323600000000  0.5945550000000 1.0
C      1  0.5364440000000  0.5551190000000  0.5723010000000 1.0
C      1  0.5404610000000  0.4094600000000  0.5061760000000 1.0
C      1  0.5299480000000  0.5344310000000  0.4222230000000 1.0
C      1  0.5324540000000  0.5451620000000  0.4790610000000 1.0
C      1  0.5225800000000  0.4947680000000  0.5681090000000 1.0
C      1  0.5318120000000  0.4564470000000  0.4557140000000 1.0
C      1  0.4482420000000  0.4365980000000  0.5171330000000 1.0
C      1  0.4373250000000  0.5215490000000  0.4418700000000 1.0
C      1  0.4385910000000  0.5550010000000  0.5494640000000 1.0
C      1  0.4994810000000  0.4753630000000  0.4721330000000 1.0
C      1  0.5017270000000  0.5339510000000  0.5018690000000 1.0
C      1  0.5164750000000  0.4919910000000  0.5192010000000 1.0
C      1  0.3852790000000  0.4781640000000  0.5283820000000 1.0
C      1  0.3736240000000  0.4971320000000  0.4737170000000 1.0
C      1  0.3971090000000  0.5237980000000  0.5262770000000 1.0
C      1  0.5714250000000  0.4284590000000  0.4714150000000 1.0
C      1  0.5714560000000  0.5615310000000  0.4542720000000 1.0
C      1  0.5704940000000  0.5077270000000  0.5782170000000 1.0
C      1  0.4690090000000  0.4199800000000  0.4788570000000 1.0
C      1  0.4620990000000  0.5605320000000  0.4418710000000 1.0
C      1  0.4648630000000  0.5350940000000  0.5820160000000 1.0
C      1  0.4220010000000  0.5639660000000  0.5255810000000 1.0
C      1  0.4337780000000  0.4503450000000  0.5367450000000 1.0
C      1  0.4258880000000  0.4957440000000  0.4363450000000 1.0
C      1  0.5741210000000  0.5223170000000  0.5553820000000 1.0
C      1  0.5782840000000  0.4171020000000  0.4964530000000 1.0
C      1  0.5703960000000  0.5400000000000  0.4323750000000 1.0
C      1  0.5495000000000  0.5150080000000  0.4421450000000 1.0
C      1  0.5393920000000  0.5403900000000  0.5431170000000 1.0
C      1  0.5599100000000  0.4315530000000  0.5202050000000 1.0
C      1  0.5557810000000  0.4520240000000  0.4767420000000 1.0
C      1  0.5623720000000  0.5390850000000  0.4713010000000 1.0
C      1  0.5441540000000  0.4922250000000  0.5476330000000 1.0
C      1  0.4744190000000  0.4932010000000  0.4769680000000 1.0
C      1  0.4623000000000  0.5199350000000  0.5202150000000 1.0
C      1  0.4665620000000  0.4916720000000  0.5064920000000 1.0
C      1  0.5553790000000  0.4953000000000  0.4997290000000 1.0
END
