TITL C-2622964-2985-58 0.00454641566891148 125000 -229.748677068292 0 0 43 (C1) n - 1
REM
REM in /nfs/bkarasulu/CARBON/AIRSS/Generating-Clusters/AIREBO/with-SteepDescent/Higher-Symm/SD-CG/HFTN-CG
REM
REM
REM
REM
REM
REM ./C.cell (b20cbc046b6831c77cfcea5457e17084)
REM
REM compiler GCC version 9.2.1 20190827 (Red Hat 9.2.1-1)
REM options -cpp -mtune=generic -march=x86-64 -g -O0 -fpre-include=/usr/include/finclude/math-vector-fortran.h
REM seed -344517831 1674235172 -1718252401 -2031101829 1478173693 -1328212686 -547525214 1463337317 -1906268061 -372454312 -1127712027 -143414205 -2068550833 182488341 -510829857 1011991982 -907500599 -1992937536 -1049913692 172140787 846771340 -545741468 -2111491846 -578958847 1983197884 -1844996379 -256671381 -974873912 1434840490 1726297841 1713175934 -1085367648 1752434107
REM
CELL 1.54180   50.00000   50.00000   50.00000   90.00000   90.00000   90.00000
LATT -1
SFAC C  
C      1  0.4608270000000  0.5385710000000  0.5430660000000 1.0
C      1  0.4635970000000  0.5475510000000  0.4739570000000 1.0
C      1  0.4579410000000  0.4959370000000  0.4426320000000 1.0
C      1  0.4635200000000  0.4426740000000  0.4902050000000 1.0
C      1  0.4636660000000  0.4737990000000  0.5358810000000 1.0
C      1  0.5101250000000  0.5677370000000  0.4906840000000 1.0
C      1  0.5101620000000  0.5103500000000  0.4326170000000 1.0
C      1  0.5083140000000  0.4365310000000  0.4695540000000 1.0
C      1  0.5108080000000  0.4490370000000  0.5442290000000 1.0
C      1  0.5130590000000  0.5313700000000  0.5610130000000 1.0
C      1  0.4825280000000  0.4937460000000  0.4298280000000 1.0
C      1  0.4862130000000  0.4262730000000  0.4905600000000 1.0
C      1  0.4843590000000  0.4656610000000  0.5508410000000 1.0
C      1  0.4852900000000  0.5456290000000  0.5532240000000 1.0
C      1  0.4865530000000  0.5611180000000  0.4701630000000 1.0
C      1  0.4719190000000  0.4716130000000  0.4844930000000 1.0
C      1  0.4712840000000  0.4893540000000  0.5109300000000 1.0
C      1  0.4621380000000  0.5208350000000  0.5199600000000 1.0
C      1  0.4671130000000  0.5208120000000  0.4865890000000 1.0
C      1  0.4594410000000  0.4966100000000  0.4707440000000 1.0
C      1  0.5234160000000  0.5164310000000  0.5163700000000 1.0
C      1  0.5353570000000  0.5386600000000  0.4853920000000 1.0
C      1  0.5246050000000  0.4878370000000  0.4619710000000 1.0
C      1  0.5281660000000  0.4659790000000  0.4878030000000 1.0
C      1  0.5372210000000  0.4768630000000  0.5380370000000 1.0
C      1  0.5130950000000  0.4780750000000  0.5619650000000 1.0
C      1  0.5131850000000  0.5570410000000  0.5419810000000 1.0
C      1  0.5177670000000  0.5537690000000  0.4603490000000 1.0
C      1  0.5105220000000  0.4776760000000  0.4328110000000 1.0
C      1  0.5181600000000  0.4288760000000  0.4986070000000 1.0
C      1  0.4991130000000  0.4674370000000  0.4704640000000 1.0
C      1  0.5268540000000  0.4533490000000  0.5167760000000 1.0
C      1  0.5224290000000  0.5062130000000  0.5472460000000 1.0
C      1  0.5210520000000  0.5491750000000  0.5143940000000 1.0
C      1  0.5214200000000  0.5206870000000  0.4606520000000 1.0
C      1  0.4367340000000  0.5467650000000  0.5530860000000 1.0
C      1  0.4384200000000  0.5567400000000  0.4684580000000 1.0
C      1  0.4345570000000  0.4976880000000  0.4294030000000 1.0
C      1  0.4376310000000  0.4353600000000  0.4946910000000 1.0
C      1  0.4371700000000  0.4695730000000  0.5413470000000 1.0
C      1  0.5534140000000  0.5108470000000  0.5088090000000 1.0
C      1  0.4934360000000  0.5151250000000  0.5079630000000 1.0
C      1  0.5773410000000  0.5038630000000  0.5028530000000 1.0
END
