TITL C-2622957-9142-461 0.0010189027341536 125000 -476.325730169948 0 0 86 (C1) n - 1
REM
REM in /nfs/bkarasulu/CARBON/AIRSS/Generating-Clusters/AIREBO/with-SteepDescent/Higher-Symm/SD-CG/HFTN-CG
REM
REM
REM
REM
REM
REM ./C.cell (b20cbc046b6831c77cfcea5457e17084)
REM
REM compiler GCC version 9.2.1 20190827 (Red Hat 9.2.1-1)
REM options -cpp -mtune=generic -march=x86-64 -g -O0 -fpre-include=/usr/include/finclude/math-vector-fortran.h
REM seed -1378644642 45807826 -336494693 1742340112 1566267890 485309414 -423039912 434194200 794258981 1000200161 1921488025 -498321377 -162435253 1206452602 -1343855785 -2003334050 -1903423367 -868483474 154375870 -1149463675 -689374397 -582890353 283512326 -586117905 -888736659 1446759207 -1445640339 520701628 70130527 -1802306899 87294257 -659476499 2137232628
REM
CELL 1.54180   50.00000   50.00000   50.00000   90.00000   90.00000   90.00000
LATT -1
SFAC C  
C      1  0.4421270000000  0.5369600000000  0.5382390000000 1.0
C      1  0.5196010000000  0.4177440000000  0.5147930000000 1.0
C      1  0.4186260000000  0.5263170000000  0.4717990000000 1.0
C      1  0.5286960000000  0.4731930000000  0.5707140000000 1.0
C      1  0.4917170000000  0.5648370000000  0.5475020000000 1.0
C      1  0.4636670000000  0.5633750000000  0.4926960000000 1.0
C      1  0.4659760000000  0.4535260000000  0.4881230000000 1.0
C      1  0.4710950000000  0.4647670000000  0.4304470000000 1.0
C      1  0.5684750000000  0.4742230000000  0.5397750000000 1.0
C      1  0.4842860000000  0.5211200000000  0.4839000000000 1.0
C      1  0.4435100000000  0.4597670000000  0.5205920000000 1.0
C      1  0.4228210000000  0.4789860000000  0.4762650000000 1.0
C      1  0.4337130000000  0.4589610000000  0.4928000000000 1.0
C      1  0.4327130000000  0.5131630000000  0.5174990000000 1.0
C      1  0.4377090000000  0.5524530000000  0.4784790000000 1.0
C      1  0.5315600000000  0.5175880000000  0.4552160000000 1.0
C      1  0.4190410000000  0.5040690000000  0.4877230000000 1.0
C      1  0.5400350000000  0.5590100000000  0.4816350000000 1.0
C      1  0.5318930000000  0.4937910000000  0.4909400000000 1.0
C      1  0.4025670000000  0.5155480000000  0.5268300000000 1.0
C      1  0.5683320000000  0.5096790000000  0.4941170000000 1.0
C      1  0.5400160000000  0.5547190000000  0.5405290000000 1.0
C      1  0.5168390000000  0.4828110000000  0.3948490000000 1.0
C      1  0.5113680000000  0.4699220000000  0.4919710000000 1.0
C      1  0.4637760000000  0.4706050000000  0.4610460000000 1.0
C      1  0.5087930000000  0.4974600000000  0.4166880000000 1.0
C      1  0.4123850000000  0.5936570000000  0.4502610000000 1.0
C      1  0.5395280000000  0.4138600000000  0.4615590000000 1.0
C      1  0.4728840000000  0.5410100000000  0.5403110000000 1.0
C      1  0.5086270000000  0.5698740000000  0.4404360000000 1.0
C      1  0.4258730000000  0.4786030000000  0.4477010000000 1.0
C      1  0.4993770000000  0.4154780000000  0.4968500000000 1.0
C      1  0.5389490000000  0.5262750000000  0.5593490000000 1.0
C      1  0.4616020000000  0.5120770000000  0.4280680000000 1.0
C      1  0.4459970000000  0.4836230000000  0.4277030000000 1.0
C      1  0.4251550000000  0.5474760000000  0.5551450000000 1.0
C      1  0.4749060000000  0.4254220000000  0.5050540000000 1.0
C      1  0.5107650000000  0.5758670000000  0.5027580000000 1.0
C      1  0.5336930000000  0.4270560000000  0.5509470000000 1.0
C      1  0.5695010000000  0.5570580000000  0.4961330000000 1.0
C      1  0.5125310000000  0.5943290000000  0.4287330000000 1.0
C      1  0.4844910000000  0.4500280000000  0.5473440000000 1.0
C      1  0.5429250000000  0.5443070000000  0.5114440000000 1.0
C      1  0.5082160000000  0.5026250000000  0.4693460000000 1.0
C      1  0.5362270000000  0.4489090000000  0.4832480000000 1.0
C      1  0.4760030000000  0.4872970000000  0.5358360000000 1.0
C      1  0.5049370000000  0.4796900000000  0.5845380000000 1.0
C      1  0.5563720000000  0.4893790000000  0.5141310000000 1.0
C      1  0.4840350000000  0.4748950000000  0.5056580000000 1.0
C      1  0.5098990000000  0.4222520000000  0.4670000000000 1.0
C      1  0.5840030000000  0.4374240000000  0.4839440000000 1.0
C      1  0.4986630000000  0.4811100000000  0.4447950000000 1.0
C      1  0.5281840000000  0.5547730000000  0.5723740000000 1.0
C      1  0.4229670000000  0.5750100000000  0.4641030000000 1.0
C      1  0.4976770000000  0.5056960000000  0.5077850000000 1.0
C      1  0.5779460000000  0.4480850000000  0.5322410000000 1.0
C      1  0.5940360000000  0.4434980000000  0.5090920000000 1.0
C      1  0.4633450000000  0.5656890000000  0.5195880000000 1.0
C      1  0.4793080000000  0.4749420000000  0.5673590000000 1.0
C      1  0.4855340000000  0.5226180000000  0.4160360000000 1.0
C      1  0.5559410000000  0.4300330000000  0.5330720000000 1.0
C      1  0.5160990000000  0.4523340000000  0.5504750000000 1.0
C      1  0.5591420000000  0.4316210000000  0.4728890000000 1.0
C      1  0.5547650000000  0.4823770000000  0.5643240000000 1.0
C      1  0.5591870000000  0.5092330000000  0.5720710000000 1.0
C      1  0.4780990000000  0.4311170000000  0.4655950000000 1.0
C      1  0.5796610000000  0.5186040000000  0.5874080000000 1.0
C      1  0.5230590000000  0.5231310000000  0.4291200000000 1.0
C      1  0.5338860000000  0.4467100000000  0.5153460000000 1.0
C      1  0.5510870000000  0.5300860000000  0.4730850000000 1.0
C      1  0.4488440000000  0.4868040000000  0.5649000000000 1.0
C      1  0.5123130000000  0.5684330000000  0.5283920000000 1.0
C      1  0.4869240000000  0.5517910000000  0.4817440000000 1.0
C      1  0.5095580000000  0.4555560000000  0.4627030000000 1.0
C      1  0.4889240000000  0.5162130000000  0.5384380000000 1.0
C      1  0.5844540000000  0.5238390000000  0.4707070000000 1.0
C      1  0.5296740000000  0.4767140000000  0.5309610000000 1.0
C      1  0.4434730000000  0.4879060000000  0.5324510000000 1.0
C      1  0.4526270000000  0.5250930000000  0.4926400000000 1.0
C      1  0.4715070000000  0.4994570000000  0.4538770000000 1.0
C      1  0.5208860000000  0.5083280000000  0.5401660000000 1.0
C      1  0.5120680000000  0.5667520000000  0.4700180000000 1.0
C      1  0.5028660000000  0.5646200000000  0.5735750000000 1.0
C      1  0.5039630000000  0.5463260000000  0.4260750000000 1.0
C      1  0.5292010000000  0.5184230000000  0.5109570000000 1.0
C      1  0.4662960000000  0.4440110000000  0.5269710000000 1.0
END
