TITL C-2622956-4641-720 -9.33727277033471e-05 125000 -721.738767343906 0 0 130 (C1) n - 1
REM
REM in /nfs/bkarasulu/CARBON/AIRSS/Generating-Clusters/AIREBO/with-SteepDescent/Higher-Symm/SD-CG/HFTN-CG
REM
REM
REM
REM
REM
REM ./C.cell (b20cbc046b6831c77cfcea5457e17084)
REM
REM compiler GCC version 9.2.1 20190827 (Red Hat 9.2.1-1)
REM options -cpp -mtune=generic -march=x86-64 -g -O0 -fpre-include=/usr/include/finclude/math-vector-fortran.h
REM seed -727462346 1214342835 1053343648 -518181170 -774411540 -645661138 -2019474893 586020334 -1103471176 -391039094 945225985 17647588 1580382428 1475117331 -1678973105 635138483 -1325515567 1303368553 618161966 -1473619685 1884968299 -131970938 -159785677 -1182576425 657561578 1854768902 477670544 1619499813 1021856861 1748075116 -1189712563 -345078753 -1753697535
REM
CELL 1.54180   50.00000   50.00000   50.00000   90.00000   90.00000   90.00000
LATT -1
SFAC C  
C      1  0.5130500000000  0.5512390000000  0.4052050000000 1.0
C      1  0.5488490000000  0.5042420000000  0.4109050000000 1.0
C      1  0.5154740000000  0.4518910000000  0.4081100000000 1.0
C      1  0.4567430000000  0.4685230000000  0.4109560000000 1.0
C      1  0.4539320000000  0.5294290000000  0.4090690000000 1.0
C      1  0.5161410000000  0.5849760000000  0.5135400000000 1.0
C      1  0.5818570000000  0.5127970000000  0.5105580000000 1.0
C      1  0.5446860000000  0.4244120000000  0.5187940000000 1.0
C      1  0.4409790000000  0.4432320000000  0.5087840000000 1.0
C      1  0.4331280000000  0.5434030000000  0.5179680000000 1.0
C      1  0.4357760000000  0.4752580000000  0.5728260000000 1.0
C      1  0.4637830000000  0.5791720000000  0.5664050000000 1.0
C      1  0.5435240000000  0.5521530000000  0.5752580000000 1.0
C      1  0.5588060000000  0.4681560000000  0.5664750000000 1.0
C      1  0.4903750000000  0.4221410000000  0.5730210000000 1.0
C      1  0.5446860000000  0.4784410000000  0.4837890000000 1.0
C      1  0.4942710000000  0.4568270000000  0.4855930000000 1.0
C      1  0.4556620000000  0.4806110000000  0.4882820000000 1.0
C      1  0.4747070000000  0.5390700000000  0.4826040000000 1.0
C      1  0.5258080000000  0.5425010000000  0.4817110000000 1.0
C      1  0.4391490000000  0.5666620000000  0.4410250000000 1.0
C      1  0.5434050000000  0.5771540000000  0.4498870000000 1.0
C      1  0.5844350000000  0.4757910000000  0.4438440000000 1.0
C      1  0.5074090000000  0.4177530000000  0.4492110000000 1.0
C      1  0.4162480000000  0.4608120000000  0.4491070000000 1.0
C      1  0.4959880000000  0.5262510000000  0.4606280000000 1.0
C      1  0.5281540000000  0.5152350000000  0.4628790000000 1.0
C      1  0.5238190000000  0.4826920000000  0.4572780000000 1.0
C      1  0.4934430000000  0.4781680000000  0.4611240000000 1.0
C      1  0.4723540000000  0.5022370000000  0.4679970000000 1.0
C      1  0.5077660000000  0.5359480000000  0.5048400000000 1.0
C      1  0.5149430000000  0.5077230000000  0.5159300000000 1.0
C      1  0.5131170000000  0.4833150000000  0.4955660000000 1.0
C      1  0.4812880000000  0.4888390000000  0.5062350000000 1.0
C      1  0.4780800000000  0.5208740000000  0.5086440000000 1.0
C      1  0.4079040000000  0.4811940000000  0.5292160000000 1.0
C      1  0.4638480000000  0.5788860000000  0.5223540000000 1.0
C      1  0.5627090000000  0.5603410000000  0.5256200000000 1.0
C      1  0.5801040000000  0.4650230000000  0.5329420000000 1.0
C      1  0.4896060000000  0.4051600000000  0.5240270000000 1.0
C      1  0.5135300000000  0.5563670000000  0.5272770000000 1.0
C      1  0.5603850000000  0.5080880000000  0.5265990000000 1.0
C      1  0.5170410000000  0.4395660000000  0.5256900000000 1.0
C      1  0.4533550000000  0.4620670000000  0.5249930000000 1.0
C      1  0.4597410000000  0.5320770000000  0.5306170000000 1.0
C      1  0.4598490000000  0.4329470000000  0.5613810000000 1.0
C      1  0.4391460000000  0.4959670000000  0.5898070000000 1.0
C      1  0.4975450000000  0.5777270000000  0.5625520000000 1.0
C      1  0.5609870000000  0.5253570000000  0.5636700000000 1.0
C      1  0.5395910000000  0.4410250000000  0.5736960000000 1.0
C      1  0.4607120000000  0.4390730000000  0.4176480000000 1.0
C      1  0.4330530000000  0.5132020000000  0.4195690000000 1.0
C      1  0.4943720000000  0.5737820000000  0.4120960000000 1.0
C      1  0.5629240000000  0.5287320000000  0.4185300000000 1.0
C      1  0.5419830000000  0.4441300000000  0.4203040000000 1.0
C      1  0.4345050000000  0.4464340000000  0.5595100000000 1.0
C      1  0.4376040000000  0.5865700000000  0.5560710000000 1.0
C      1  0.5268850000000  0.5765700000000  0.5599230000000 1.0
C      1  0.5772720000000  0.4956960000000  0.5603280000000 1.0
C      1  0.5204130000000  0.4199260000000  0.5611400000000 1.0
C      1  0.5212470000000  0.4502610000000  0.4678430000000 1.0
C      1  0.4635130000000  0.4639280000000  0.4610950000000 1.0
C      1  0.4494120000000  0.5261420000000  0.4653500000000 1.0
C      1  0.5100150000000  0.5564130000000  0.4571980000000 1.0
C      1  0.5589840000000  0.5009500000000  0.4615600000000 1.0
C      1  0.5714800000000  0.4196370000000  0.5184890000000 1.0
C      1  0.4468350000000  0.4173640000000  0.5003430000000 1.0
C      1  0.4110800000000  0.5286060000000  0.5158220000000 1.0
C      1  0.4999960000000  0.6043020000000  0.5044940000000 1.0
C      1  0.5957440000000  0.5349800000000  0.5015980000000 1.0
C      1  0.5224120000000  0.5017010000000  0.4010920000000 1.0
C      1  0.5058140000000  0.4774960000000  0.4021010000000 1.0
C      1  0.4776420000000  0.4859470000000  0.4023790000000 1.0
C      1  0.4772710000000  0.5153870000000  0.4014390000000 1.0
C      1  0.5047540000000  0.5247760000000  0.3999940000000 1.0
C      1  0.4109950000000  0.4507730000000  0.5038610000000 1.0
C      1  0.4356900000000  0.5672730000000  0.4968780000000 1.0
C      1  0.5453480000000  0.5889720000000  0.5045730000000 1.0
C      1  0.5947280000000  0.4864250000000  0.5027820000000 1.0
C      1  0.5241390000000  0.4071250000000  0.5034240000000 1.0
C      1  0.5238690000000  0.4649320000000  0.5843940000000 1.0
C      1  0.4752970000000  0.4828260000000  0.5595940000000 1.0
C      1  0.4767710000000  0.5262330000000  0.5674760000000 1.0
C      1  0.5154670000000  0.5172610000000  0.5721670000000 1.0
C      1  0.5228500000000  0.4854030000000  0.5628520000000 1.0
C      1  0.4801200000000  0.4773480000000  0.5887490000000 1.0
C      1  0.4686140000000  0.5071300000000  0.5936670000000 1.0
C      1  0.5001000000000  0.5168270000000  0.5984030000000 1.0
C      1  0.5104220000000  0.4976180000000  0.6168470000000 1.0
C      1  0.5043860000000  0.4723130000000  0.6031140000000 1.0
C      1  0.5211390000000  0.4173430000000  0.4764320000000 1.0
C      1  0.4049630000000  0.4510570000000  0.4720470000000 1.0
C      1  0.4364040000000  0.5555620000000  0.4658940000000 1.0
C      1  0.5476980000000  0.5926750000000  0.4718350000000 1.0
C      1  0.5886820000000  0.4849160000000  0.4711250000000 1.0
C      1  0.5185430000000  0.4012200000000  0.5365020000000 1.0
C      1  0.4143580000000  0.4489150000000  0.5377460000000 1.0
C      1  0.4326410000000  0.5814540000000  0.5277100000000 1.0
C      1  0.5461770000000  0.5861080000000  0.5385460000000 1.0
C      1  0.6004180000000  0.4889470000000  0.5363480000000 1.0
C      1  0.4672390000000  0.5671830000000  0.4882260000000 1.0
C      1  0.5500020000000  0.5581540000000  0.4917090000000 1.0
C      1  0.5672710000000  0.4667210000000  0.4990390000000 1.0
C      1  0.4943800000000  0.4335530000000  0.5022270000000 1.0
C      1  0.4280250000000  0.4798120000000  0.4990860000000 1.0
C      1  0.5031750000000  0.5391330000000  0.5537030000000 1.0
C      1  0.5303530000000  0.5114640000000  0.5421390000000 1.0
C      1  0.5189410000000  0.4718200000000  0.5335070000000 1.0
C      1  0.4853140000000  0.4670030000000  0.5319940000000 1.0
C      1  0.4543730000000  0.5076280000000  0.5512090000000 1.0
C      1  0.5058910000000  0.4273020000000  0.4235060000000 1.0
C      1  0.4415070000000  0.4673220000000  0.4383080000000 1.0
C      1  0.4506070000000  0.5565620000000  0.4176450000000 1.0
C      1  0.5278930000000  0.5611980000000  0.4298090000000 1.0
C      1  0.5590110000000  0.4862440000000  0.4308970000000 1.0
C      1  0.5723240000000  0.5276120000000  0.4452050000000 1.0
C      1  0.5424300000000  0.4369060000000  0.4469550000000 1.0
C      1  0.4645370000000  0.4353960000000  0.4450210000000 1.0
C      1  0.4259890000000  0.5180470000000  0.4457480000000 1.0
C      1  0.4929620000000  0.5780150000000  0.4394550000000 1.0
C      1  0.4769040000000  0.5580140000000  0.5432470000000 1.0
C      1  0.5412380000000  0.5436810000000  0.5424060000000 1.0
C      1  0.5508470000000  0.4778550000000  0.5355830000000 1.0
C      1  0.4873490000000  0.4342970000000  0.5414060000000 1.0
C      1  0.4373040000000  0.4815710000000  0.5408910000000 1.0
C      1  0.5855170000000  0.4416710000000  0.5124740000000 1.0
C      1  0.4721160000000  0.4095070000000  0.4981740000000 1.0
C      1  0.4067240000000  0.5039550000000  0.5072760000000 1.0
C      1  0.4753500000000  0.5966350000000  0.4990840000000 1.0
C      1  0.5815090000000  0.5573560000000  0.5007040000000 1.0
END
