TITL C-2622955-8511-523 -0.0024962151853158 125000 -1002.88509113565 0 0 186 (C1) n - 1
REM
REM in /nfs/bkarasulu/CARBON/AIRSS/Generating-Clusters/AIREBO/with-SteepDescent/Higher-Symm/SD-CG/HFTN-CG
REM
REM
REM
REM
REM
REM ./C.cell (b20cbc046b6831c77cfcea5457e17084)
REM
REM compiler GCC version 9.2.1 20190827 (Red Hat 9.2.1-1)
REM options -cpp -mtune=generic -march=x86-64 -g -O0 -fpre-include=/usr/include/finclude/math-vector-fortran.h
REM seed -1571008853 1745916886 -818627487 -1703213049 -1848096735 -2093602456 -1019539769 2026474402 69009726 -2076420269 1539644821 1438404042 1598890026 -2033487104 -1319107907 1373027253 -1869778744 -925554756 951093622 -1011821468 209079661 -131526489 -1020101328 -2046701795 1084980829 -1611872429 -425780505 290481960 1024583290 614957464 1681386805 -978586404 -1704967214
REM
CELL 1.54180   50.00000   50.00000   50.00000   90.00000   90.00000   90.00000
LATT -1
SFAC C  
C      1  0.4796720000000  0.4694960000000  0.4210020000000 1.0
C      1  0.4950980000000  0.5254950000000  0.5757640000000 1.0
C      1  0.5169870000000  0.5329050000000  0.4103830000000 1.0
C      1  0.4937120000000  0.4773820000000  0.5730170000000 1.0
C      1  0.4547770000000  0.5275650000000  0.4148070000000 1.0
C      1  0.4642250000000  0.4777190000000  0.5835720000000 1.0
C      1  0.5339850000000  0.4805010000000  0.4242150000000 1.0
C      1  0.5290130000000  0.5228130000000  0.5746600000000 1.0
C      1  0.4683230000000  0.4234120000000  0.4326930000000 1.0
C      1  0.4640410000000  0.5645950000000  0.5903370000000 1.0
C      1  0.5221230000000  0.5736840000000  0.4281210000000 1.0
C      1  0.5239110000000  0.4474790000000  0.5970720000000 1.0
C      1  0.5427650000000  0.4482560000000  0.5699260000000 1.0
C      1  0.5530570000000  0.5611430000000  0.4349060000000 1.0
C      1  0.4415780000000  0.5654200000000  0.5682690000000 1.0
C      1  0.4403850000000  0.4367570000000  0.4372660000000 1.0
C      1  0.5573650000000  0.4488890000000  0.4736960000000 1.0
C      1  0.5499570000000  0.5655040000000  0.5161820000000 1.0
C      1  0.4650790000000  0.5559370000000  0.4841540000000 1.0
C      1  0.4526400000000  0.4384760000000  0.5193900000000 1.0
C      1  0.5104560000000  0.4309720000000  0.4938960000000 1.0
C      1  0.5263080000000  0.5664450000000  0.4976210000000 1.0
C      1  0.4944070000000  0.5664060000000  0.4868910000000 1.0
C      1  0.4830990000000  0.4317090000000  0.5099950000000 1.0
C      1  0.4995010000000  0.5977900000000  0.4856850000000 1.0
C      1  0.5165050000000  0.3898060000000  0.5210780000000 1.0
C      1  0.5083870000000  0.4016010000000  0.4838240000000 1.0
C      1  0.5089850000000  0.6044650000000  0.5233600000000 1.0
C      1  0.4318770000000  0.5582480000000  0.4297870000000 1.0
C      1  0.4342280000000  0.4634180000000  0.6056130000000 1.0
C      1  0.5640930000000  0.4802180000000  0.3821350000000 1.0
C      1  0.5562080000000  0.5400550000000  0.6140270000000 1.0
C      1  0.5323120000000  0.4778160000000  0.3903160000000 1.0
C      1  0.5377030000000  0.5482580000000  0.5945090000000 1.0
C      1  0.4699460000000  0.5472030000000  0.3934140000000 1.0
C      1  0.4633010000000  0.4485470000000  0.5994850000000 1.0
C      1  0.5562140000000  0.5190050000000  0.4949900000000 1.0
C      1  0.5623770000000  0.4882110000000  0.5085930000000 1.0
C      1  0.4292700000000  0.4755120000000  0.4959440000000 1.0
C      1  0.4425390000000  0.5063190000000  0.5015970000000 1.0
C      1  0.5559360000000  0.4895710000000  0.4569950000000 1.0
C      1  0.5265400000000  0.5064140000000  0.5249780000000 1.0
C      1  0.4656100000000  0.5098610000000  0.4582760000000 1.0
C      1  0.4646630000000  0.4936120000000  0.5250110000000 1.0
C      1  0.4251740000000  0.4292770000000  0.4808730000000 1.0
C      1  0.4344320000000  0.5541490000000  0.5299190000000 1.0
C      1  0.5848640000000  0.5689120000000  0.4770780000000 1.0
C      1  0.5724200000000  0.4302360000000  0.5184170000000 1.0
C      1  0.4760740000000  0.4277280000000  0.5771730000000 1.0
C      1  0.4632990000000  0.5662640000000  0.4200330000000 1.0
C      1  0.5340550000000  0.5708320000000  0.5789900000000 1.0
C      1  0.5167260000000  0.4175210000000  0.4311240000000 1.0
C      1  0.4784390000000  0.6098750000000  0.5094930000000 1.0
C      1  0.4908130000000  0.3860910000000  0.5053910000000 1.0
C      1  0.5432290000000  0.3919420000000  0.5090780000000 1.0
C      1  0.5308250000000  0.6061320000000  0.4972280000000 1.0
C      1  0.4130620000000  0.5802760000000  0.5345970000000 1.0
C      1  0.4043480000000  0.4056770000000  0.4951380000000 1.0
C      1  0.5949420000000  0.4132300000000  0.5306360000000 1.0
C      1  0.6126760000000  0.5779190000000  0.4682760000000 1.0
C      1  0.5120900000000  0.5106500000000  0.4663980000000 1.0
C      1  0.5222700000000  0.4779950000000  0.5067730000000 1.0
C      1  0.5022280000000  0.4802580000000  0.4722980000000 1.0
C      1  0.4923830000000  0.5323480000000  0.5076710000000 1.0
C      1  0.5865070000000  0.5396360000000  0.5367630000000 1.0
C      1  0.6042540000000  0.4658690000000  0.4675200000000 1.0
C      1  0.4082790000000  0.4593130000000  0.5369740000000 1.0
C      1  0.4248040000000  0.5449880000000  0.4581860000000 1.0
C      1  0.4328720000000  0.4153420000000  0.5109250000000 1.0
C      1  0.4411310000000  0.5693290000000  0.5000250000000 1.0
C      1  0.5767000000000  0.5800700000000  0.5064960000000 1.0
C      1  0.5680140000000  0.4246390000000  0.4887620000000 1.0
C      1  0.5668580000000  0.5218360000000  0.4064090000000 1.0
C      1  0.5654300000000  0.4881470000000  0.5951370000000 1.0
C      1  0.4296950000000  0.4815820000000  0.4179780000000 1.0
C      1  0.4379560000000  0.5082910000000  0.5744400000000 1.0
C      1  0.5872800000000  0.4720750000000  0.5454380000000 1.0
C      1  0.5951870000000  0.5149900000000  0.4526710000000 1.0
C      1  0.3995130000000  0.5358930000000  0.5362480000000 1.0
C      1  0.4001180000000  0.4724070000000  0.4634530000000 1.0
C      1  0.4637250000000  0.5174640000000  0.5869420000000 1.0
C      1  0.4554680000000  0.4788990000000  0.4055860000000 1.0
C      1  0.5365320000000  0.4767060000000  0.5970590000000 1.0
C      1  0.5421220000000  0.5264900000000  0.3939730000000 1.0
C      1  0.5622700000000  0.4734340000000  0.5660020000000 1.0
C      1  0.5727160000000  0.5332090000000  0.4347800000000 1.0
C      1  0.4106850000000  0.5518950000000  0.5618480000000 1.0
C      1  0.4221300000000  0.4638310000000  0.4402720000000 1.0
C      1  0.4027650000000  0.5018390000000  0.4708530000000 1.0
C      1  0.3954120000000  0.5068500000000  0.5291520000000 1.0
C      1  0.5949220000000  0.5047070000000  0.4851260000000 1.0
C      1  0.5998460000000  0.4966020000000  0.5413880000000 1.0
C      1  0.4959490000000  0.5569100000000  0.4220940000000 1.0
C      1  0.5017830000000  0.4477850000000  0.5718910000000 1.0
C      1  0.4930140000000  0.4391410000000  0.4249940000000 1.0
C      1  0.4893140000000  0.5576120000000  0.5839260000000 1.0
C      1  0.4799330000000  0.5143050000000  0.5474270000000 1.0
C      1  0.4775180000000  0.4829740000000  0.4510560000000 1.0
C      1  0.5044640000000  0.4926240000000  0.5463970000000 1.0
C      1  0.5211180000000  0.5087020000000  0.4335810000000 1.0
C      1  0.4172640000000  0.5541790000000  0.4860330000000 1.0
C      1  0.3922290000000  0.4490090000000  0.5179810000000 1.0
C      1  0.6068050000000  0.4597780000000  0.4965960000000 1.0
C      1  0.5968880000000  0.5548760000000  0.5123140000000 1.0
C      1  0.5069900000000  0.5758780000000  0.5733170000000 1.0
C      1  0.5028810000000  0.3942270000000  0.4515030000000 1.0
C      1  0.4882220000000  0.4005970000000  0.5613280000000 1.0
C      1  0.4915820000000  0.6054810000000  0.4551470000000 1.0
C      1  0.5942260000000  0.4853380000000  0.4462640000000 1.0
C      1  0.5883700000000  0.5187880000000  0.5544930000000 1.0
C      1  0.4065440000000  0.5211800000000  0.4433170000000 1.0
C      1  0.4103520000000  0.4880840000000  0.5451920000000 1.0
C      1  0.5418780000000  0.5666740000000  0.5486910000000 1.0
C      1  0.5410820000000  0.4330840000000  0.4495000000000 1.0
C      1  0.4611690000000  0.4425510000000  0.5508400000000 1.0
C      1  0.4638520000000  0.5616940000000  0.4529670000000 1.0
C      1  0.5352150000000  0.5068610000000  0.3757330000000 1.0
C      1  0.5197380000000  0.4922810000000  0.5832230000000 1.0
C      1  0.4603950000000  0.5032350000000  0.3934360000000 1.0
C      1  0.4717570000000  0.4976100000000  0.6101100000000 1.0
C      1  0.5250010000000  0.4468670000000  0.5201990000000 1.0
C      1  0.5273160000000  0.5606260000000  0.4654980000000 1.0
C      1  0.4787050000000  0.5537240000000  0.5303190000000 1.0
C      1  0.4790280000000  0.4388120000000  0.4706420000000 1.0
C      1  0.4954040000000  0.5403850000000  0.3858720000000 1.0
C      1  0.4940780000000  0.4406910000000  0.6103790000000 1.0
C      1  0.5044690000000  0.4679380000000  0.4004300000000 1.0
C      1  0.4970460000000  0.5140180000000  0.6077220000000 1.0
C      1  0.5590780000000  0.6043660000000  0.5137820000000 1.0
C      1  0.5543570000000  0.4001590000000  0.4850290000000 1.0
C      1  0.4620400000000  0.3983500000000  0.5151530000000 1.0
C      1  0.4575130000000  0.5947400000000  0.4898080000000 1.0
C      1  0.4993380000000  0.4373460000000  0.5403750000000 1.0
C      1  0.4996750000000  0.5408580000000  0.4642980000000 1.0
C      1  0.5121750000000  0.5552810000000  0.5245410000000 1.0
C      1  0.5083030000000  0.4471720000000  0.4673280000000 1.0
C      1  0.5676760000000  0.4801890000000  0.4290100000000 1.0
C      1  0.5617580000000  0.5136750000000  0.5727430000000 1.0
C      1  0.4252530000000  0.5110240000000  0.4187680000000 1.0
C      1  0.4400520000000  0.4799250000000  0.5596330000000 1.0
C      1  0.5426400000000  0.4186680000000  0.5300900000000 1.0
C      1  0.5368460000000  0.5929340000000  0.4695850000000 1.0
C      1  0.4740710000000  0.5873640000000  0.5320650000000 1.0
C      1  0.4641760000000  0.4162680000000  0.4863350000000 1.0
C      1  0.5294810000000  0.5353560000000  0.5430560000000 1.0
C      1  0.5198560000000  0.4563950000000  0.4367650000000 1.0
C      1  0.4800360000000  0.4642670000000  0.5326950000000 1.0
C      1  0.4770340000000  0.5344080000000  0.4397480000000 1.0
C      1  0.5342780000000  0.4025360000000  0.4626220000000 1.0
C      1  0.5385030000000  0.5981000000000  0.5357910000000 1.0
C      1  0.4669280000000  0.5910180000000  0.4636470000000 1.0
C      1  0.4635910000000  0.4091960000000  0.5442640000000 1.0
C      1  0.5515340000000  0.4878570000000  0.5378560000000 1.0
C      1  0.5564590000000  0.5188550000000  0.4609850000000 1.0
C      1  0.4344530000000  0.5296810000000  0.5535560000000 1.0
C      1  0.4369120000000  0.4592630000000  0.4699570000000 1.0
C      1  0.5702700000000  0.5186720000000  0.6052790000000 1.0
C      1  0.5745450000000  0.4949410000000  0.4033840000000 1.0
C      1  0.4258190000000  0.4853680000000  0.5964310000000 1.0
C      1  0.4178950000000  0.5423230000000  0.4110740000000 1.0
C      1  0.4732860000000  0.3995550000000  0.4475410000000 1.0
C      1  0.5036730000000  0.5810770000000  0.5451690000000 1.0
C      1  0.5170080000000  0.5953830000000  0.4458190000000 1.0
C      1  0.5143090000000  0.4084520000000  0.5459390000000 1.0
C      1  0.4345150000000  0.5142770000000  0.4691230000000 1.0
C      1  0.4408230000000  0.4694480000000  0.5272940000000 1.0
C      1  0.5750060000000  0.4775480000000  0.4803430000000 1.0
C      1  0.5617110000000  0.5381600000000  0.5205420000000 1.0
C      1  0.5809870000000  0.4603280000000  0.5171880000000 1.0
C      1  0.5843480000000  0.5362760000000  0.4867500000000 1.0
C      1  0.4204360000000  0.5310290000000  0.5098220000000 1.0
C      1  0.4032190000000  0.4544100000000  0.4901600000000 1.0
C      1  0.5533330000000  0.4238820000000  0.5605230000000 1.0
C      1  0.5626520000000  0.5779860000000  0.4586610000000 1.0
C      1  0.4460700000000  0.5837350000000  0.5420020000000 1.0
C      1  0.4437640000000  0.4091160000000  0.4607600000000 1.0
C      1  0.5276020000000  0.4675660000000  0.5470550000000 1.0
C      1  0.5347460000000  0.5362050000000  0.4459760000000 1.0
C      1  0.4635910000000  0.5431920000000  0.5548370000000 1.0
C      1  0.4623150000000  0.4563140000000  0.4544440000000 1.0
C      1  0.5223170000000  0.5220400000000  0.4950710000000 1.0
C      1  0.5353730000000  0.4745710000000  0.4773710000000 1.0
C      1  0.4891280000000  0.4796240000000  0.5037500000000 1.0
C      1  0.4683630000000  0.5242070000000  0.4885840000000 1.0
C      1  0.6089630000000  0.5005110000000  0.5141820000000 1.0
C      1  0.3884510000000  0.5054990000000  0.5005940000000 1.0
END
