TITL C-2622963-3633-783 0.00296530893497893 125000 -804.53059467263 0 0 146 (C1) n - 1
REM
REM in /nfs/bkarasulu/CARBON/AIRSS/Generating-Clusters/AIREBO/with-SteepDescent/Higher-Symm/SD-CG/HFTN-CG
REM
REM
REM
REM
REM
REM ./C.cell (b20cbc046b6831c77cfcea5457e17084)
REM
REM compiler GCC version 9.2.1 20190827 (Red Hat 9.2.1-1)
REM options -cpp -mtune=generic -march=x86-64 -g -O0 -fpre-include=/usr/include/finclude/math-vector-fortran.h
REM seed 394611216 -1769873348 -1810980965 -965247049 -1200597171 -2009273497 -1465210948 743706879 164325942 1967859335 -1423113337 416752337 -1530660474 -161327024 1394791469 209809532 -1009221752 -1955370066 1842385124 578097076 -586931591 -774918152 751074921 1285765660 1457084656 -801200669 801591880 1159017265 162664721 255515827 -1241859522 -1582587230 1340836021
REM
CELL 1.54180   50.00000   50.00000   50.00000   90.00000   90.00000   90.00000
LATT -1
SFAC C  
C      1  0.4314950000000  0.4885710000000  0.5779760000000 1.0
C      1  0.4098400000000  0.4800660000000  0.4700510000000 1.0
C      1  0.5060750000000  0.4852210000000  0.4072210000000 1.0
C      1  0.5943790000000  0.4815550000000  0.4700970000000 1.0
C      1  0.5535280000000  0.4840230000000  0.5858060000000 1.0
C      1  0.5951310000000  0.5048410000000  0.5250920000000 1.0
C      1  0.4977890000000  0.5061980000000  0.6025980000000 1.0
C      1  0.4102410000000  0.5037130000000  0.5289560000000 1.0
C      1  0.4418430000000  0.5034780000000  0.4227800000000 1.0
C      1  0.5541670000000  0.5072410000000  0.4173060000000 1.0
C      1  0.5458230000000  0.5311050000000  0.5183880000000 1.0
C      1  0.5113930000000  0.5496980000000  0.5540600000000 1.0
C      1  0.4567990000000  0.5343710000000  0.5210930000000 1.0
C      1  0.4749590000000  0.5348200000000  0.4589940000000 1.0
C      1  0.5285410000000  0.5333650000000  0.4634810000000 1.0
C      1  0.5039100000000  0.5156670000000  0.5208600000000 1.0
C      1  0.4750070000000  0.5081830000000  0.5085580000000 1.0
C      1  0.4864870000000  0.5106560000000  0.4792560000000 1.0
C      1  0.5170000000000  0.5040450000000  0.4713190000000 1.0
C      1  0.5309160000000  0.5025760000000  0.5174210000000 1.0
C      1  0.5819890000000  0.4949940000000  0.4431840000000 1.0
C      1  0.5722990000000  0.4898660000000  0.5605990000000 1.0
C      1  0.4620510000000  0.4912640000000  0.5926460000000 1.0
C      1  0.3932810000000  0.4905840000000  0.4952390000000 1.0
C      1  0.4752460000000  0.4924660000000  0.4037350000000 1.0
C      1  0.5697520000000  0.4951400000000  0.5108400000000 1.0
C      1  0.5057570000000  0.4988810000000  0.5746390000000 1.0
C      1  0.4379960000000  0.4989290000000  0.5286230000000 1.0
C      1  0.4537320000000  0.4902360000000  0.4497500000000 1.0
C      1  0.5344080000000  0.4963020000000  0.4365020000000 1.0
C      1  0.5279210000000  0.4736090000000  0.5055730000000 1.0
C      1  0.5077610000000  0.4661970000000  0.5304050000000 1.0
C      1  0.4801140000000  0.4787820000000  0.5248700000000 1.0
C      1  0.4824280000000  0.4728940000000  0.4914330000000 1.0
C      1  0.5116040000000  0.4715350000000  0.4772310000000 1.0
C      1  0.4372590000000  0.5215580000000  0.5851590000000 1.0
C      1  0.4085840000000  0.5136970000000  0.4616490000000 1.0
C      1  0.5167480000000  0.5143480000000  0.3957180000000 1.0
C      1  0.6018690000000  0.5144550000000  0.4762110000000 1.0
C      1  0.5512350000000  0.5150000000000  0.5987910000000 1.0
C      1  0.4631880000000  0.4626590000000  0.5478130000000 1.0
C      1  0.4540750000000  0.4594370000000  0.5015180000000 1.0
C      1  0.5016790000000  0.4684530000000  0.4448540000000 1.0
C      1  0.5494730000000  0.4589040000000  0.4752850000000 1.0
C      1  0.5346710000000  0.4616910000000  0.5464420000000 1.0
C      1  0.5701180000000  0.5029920000000  0.4805260000000 1.0
C      1  0.5340020000000  0.5070810000000  0.5702050000000 1.0
C      1  0.4523220000000  0.5002870000000  0.5550710000000 1.0
C      1  0.4369580000000  0.5000850000000  0.4745390000000 1.0
C      1  0.5053140000000  0.5063660000000  0.4331400000000 1.0
C      1  0.4300500000000  0.5501210000000  0.5125560000000 1.0
C      1  0.4555450000000  0.5503320000000  0.4364270000000 1.0
C      1  0.5426000000000  0.5526770000000  0.4402160000000 1.0
C      1  0.5723380000000  0.5487180000000  0.5300630000000 1.0
C      1  0.4897020000000  0.5567500000000  0.5775730000000 1.0
C      1  0.4630730000000  0.5797540000000  0.4464340000000 1.0
C      1  0.5320140000000  0.5781300000000  0.4425160000000 1.0
C      1  0.5556740000000  0.5752460000000  0.5292250000000 1.0
C      1  0.4940020000000  0.5845760000000  0.5584870000000 1.0
C      1  0.4457800000000  0.5803250000000  0.5114180000000 1.0
C      1  0.5823620000000  0.5396180000000  0.4702620000000 1.0
C      1  0.5574360000000  0.5388150000000  0.5763410000000 1.0
C      1  0.4573840000000  0.5471830000000  0.5753250000000 1.0
C      1  0.4151210000000  0.5388690000000  0.4837490000000 1.0
C      1  0.4982880000000  0.5371840000000  0.4086320000000 1.0
C      1  0.5175220000000  0.4141020000000  0.5479290000000 1.0
C      1  0.4569240000000  0.4157660000000  0.5289700000000 1.0
C      1  0.4612470000000  0.4198100000000  0.4684780000000 1.0
C      1  0.5179900000000  0.4158490000000  0.4451550000000 1.0
C      1  0.5489340000000  0.4211760000000  0.4948470000000 1.0
C      1  0.5298760000000  0.4653300000000  0.5759870000000 1.0
C      1  0.4329110000000  0.4655470000000  0.5529980000000 1.0
C      1  0.4213130000000  0.4533780000000  0.4612850000000 1.0
C      1  0.5180970000000  0.4584440000000  0.4168140000000 1.0
C      1  0.5787690000000  0.4624920000000  0.4895860000000 1.0
C      1  0.4171190000000  0.4548610000000  0.5316300000000 1.0
C      1  0.4502830000000  0.4569370000000  0.4438110000000 1.0
C      1  0.5478330000000  0.4528070000000  0.4235740000000 1.0
C      1  0.5801590000000  0.4542450000000  0.5167930000000 1.0
C      1  0.5049130000000  0.4547740000000  0.5839540000000 1.0
C      1  0.5054060000000  0.5446730000000  0.5246150000000 1.0
C      1  0.4792660000000  0.5544110000000  0.5156060000000 1.0
C      1  0.4798920000000  0.5569340000000  0.4841210000000 1.0
C      1  0.5102610000000  0.5490830000000  0.4842420000000 1.0
C      1  0.5283160000000  0.5570430000000  0.5070970000000 1.0
C      1  0.5242730000000  0.5938500000000  0.4923400000000 1.0
C      1  0.5085080000000  0.5929980000000  0.5154040000000 1.0
C      1  0.4761910000000  0.5980350000000  0.5059210000000 1.0
C      1  0.4796200000000  0.5994650000000  0.4719670000000 1.0
C      1  0.5116540000000  0.5958170000000  0.4632590000000 1.0
C      1  0.4241010000000  0.5688750000000  0.4705140000000 1.0
C      1  0.4988620000000  0.5691220000000  0.4151220000000 1.0
C      1  0.5755570000000  0.5696410000000  0.4805920000000 1.0
C      1  0.5429780000000  0.5687840000000  0.5692830000000 1.0
C      1  0.4480880000000  0.5736510000000  0.5589640000000 1.0
C      1  0.5027940000000  0.5375600000000  0.4416620000000 1.0
C      1  0.5544910000000  0.5324810000000  0.4855280000000 1.0
C      1  0.5368940000000  0.5328270000000  0.5511690000000 1.0
C      1  0.4542920000000  0.5291930000000  0.5500120000000 1.0
C      1  0.4469690000000  0.5308500000000  0.4751810000000 1.0
C      1  0.3986620000000  0.4757880000000  0.5212480000000 1.0
C      1  0.4531180000000  0.4736400000000  0.4136210000000 1.0
C      1  0.5660620000000  0.4759810000000  0.4234760000000 1.0
C      1  0.5903030000000  0.4732870000000  0.5368100000000 1.0
C      1  0.4894630000000  0.4731630000000  0.6003010000000 1.0
C      1  0.5257890000000  0.4409960000000  0.5052820000000 1.0
C      1  0.5028450000000  0.4352580000000  0.5274020000000 1.0
C      1  0.4745910000000  0.4379090000000  0.5124810000000 1.0
C      1  0.4739340000000  0.4513520000000  0.4679630000000 1.0
C      1  0.5219940000000  0.4411910000000  0.4659080000000 1.0
C      1  0.5247180000000  0.4003100000000  0.4961010000000 1.0
C      1  0.5082890000000  0.3964780000000  0.5203380000000 1.0
C      1  0.4801680000000  0.3984290000000  0.5112040000000 1.0
C      1  0.4801310000000  0.4003000000000  0.4820880000000 1.0
C      1  0.5076340000000  0.4007450000000  0.4729890000000 1.0
C      1  0.4714620000000  0.4345820000000  0.5521440000000 1.0
C      1  0.4374030000000  0.4383030000000  0.4841460000000 1.0
C      1  0.4968760000000  0.4374600000000  0.4333610000000 1.0
C      1  0.5600390000000  0.4289740000000  0.4657420000000 1.0
C      1  0.5434070000000  0.4334800000000  0.5415190000000 1.0
C      1  0.4722230000000  0.5206600000000  0.4021980000000 1.0
C      1  0.5819180000000  0.5232990000000  0.4426970000000 1.0
C      1  0.5807350000000  0.5196880000000  0.5653530000000 1.0
C      1  0.4610020000000  0.5213130000000  0.6056090000000 1.0
C      1  0.3911670000000  0.5188770000000  0.4972820000000 1.0
C      1  0.5905810000000  0.5292340000000  0.5406160000000 1.0
C      1  0.4867010000000  0.5347580000000  0.6019940000000 1.0
C      1  0.4043080000000  0.5322990000000  0.5216350000000 1.0
C      1  0.4490700000000  0.5314300000000  0.4164960000000 1.0
C      1  0.5613080000000  0.5357930000000  0.4254760000000 1.0
C      1  0.5515590000000  0.5798190000000  0.4974900000000 1.0
C      1  0.5245500000000  0.5788600000000  0.5425120000000 1.0
C      1  0.4705090000000  0.5809250000000  0.5347550000000 1.0
C      1  0.4545190000000  0.5777190000000  0.4792780000000 1.0
C      1  0.4926720000000  0.5834680000000  0.4378820000000 1.0
C      1  0.4798210000000  0.4867300000000  0.5639910000000 1.0
C      1  0.4476820000000  0.4896290000000  0.5016060000000 1.0
C      1  0.4831790000000  0.4939380000000  0.4525680000000 1.0
C      1  0.5460700000000  0.4877770000000  0.4652840000000 1.0
C      1  0.5520510000000  0.4845500000000  0.5354320000000 1.0
C      1  0.4958080000000  0.4319980000000  0.5665870000000 1.0
C      1  0.4295920000000  0.4320600000000  0.5166600000000 1.0
C      1  0.4674490000000  0.4285810000000  0.4362120000000 1.0
C      1  0.5483270000000  0.4280340000000  0.4389400000000 1.0
C      1  0.5626780000000  0.4317170000000  0.5211870000000 1.0
C      1  0.4967520000000  0.4361040000000  0.4880520000000 1.0
END
