TITL C-2622968-4806-840 0.000135263847843922 125000 -397.367324858185 0 0 70 (C1) n - 1
REM
REM in /nfs/bkarasulu/CARBON/AIRSS/Generating-Clusters/AIREBO/with-SteepDescent/Higher-Symm/SD-CG/HFTN-CG
REM
REM
REM
REM
REM
REM ./C.cell (b20cbc046b6831c77cfcea5457e17084)
REM
REM compiler GCC version 9.2.1 20190827 (Red Hat 9.2.1-1)
REM options -cpp -mtune=generic -march=x86-64 -g -O0 -fpre-include=/usr/include/finclude/math-vector-fortran.h
REM seed 1893247833 -141941756 -552919479 -1654417028 123253927 1421245171 -1908068119 -1621174851 -1026435284 649778793 -1013938920 -541503739 1516009789 758893652 -2147051802 -473602586 -1207131673 1783968303 -1365392247 -491020338 102787417 -1336576989 1542933785 -1057130440 -276564691 108196465 1639176834 1083861978 94870386 1696153703 1052008628 1082090432 2031209558
REM
CELL 1.54180   50.00000   50.00000   50.00000   90.00000   90.00000   90.00000
LATT -1
SFAC C  
C      1  0.5828370000000  0.5064280000000  0.5115710000000 1.0
C      1  0.4194140000000  0.5046010000000  0.4888070000000 1.0
C      1  0.4192600000000  0.4896680000000  0.5132040000000 1.0
C      1  0.5814830000000  0.4916840000000  0.4873070000000 1.0
C      1  0.5109890000000  0.5337110000000  0.4559240000000 1.0
C      1  0.4884710000000  0.5265840000000  0.5422240000000 1.0
C      1  0.4929570000000  0.4718980000000  0.4589470000000 1.0
C      1  0.5126900000000  0.4783370000000  0.5419250000000 1.0
C      1  0.4538020000000  0.5576010000000  0.5038250000000 1.0
C      1  0.5512780000000  0.5594940000000  0.4971560000000 1.0
C      1  0.5439640000000  0.4409300000000  0.5021170000000 1.0
C      1  0.4471830000000  0.4469450000000  0.5007570000000 1.0
C      1  0.5253380000000  0.5318020000000  0.4852290000000 1.0
C      1  0.4731520000000  0.5238090000000  0.5126900000000 1.0
C      1  0.4716590000000  0.4709320000000  0.4804760000000 1.0
C      1  0.5279330000000  0.4760900000000  0.5120600000000 1.0
C      1  0.5549420000000  0.5600010000000  0.4693320000000 1.0
C      1  0.4487680000000  0.5592540000000  0.5313160000000 1.0
C      1  0.4505470000000  0.4359590000000  0.4711250000000 1.0
C      1  0.5476890000000  0.4391960000000  0.5299190000000 1.0
C      1  0.5036620000000  0.5537900000000  0.5505320000000 1.0
C      1  0.4961900000000  0.5623160000000  0.4504010000000 1.0
C      1  0.4980820000000  0.4481550000000  0.5475550000000 1.0
C      1  0.4953050000000  0.4409630000000  0.4505530000000 1.0
C      1  0.4418050000000  0.5159550000000  0.5563780000000 1.0
C      1  0.5566660000000  0.5162200000000  0.4442560000000 1.0
C      1  0.5571750000000  0.4834430000000  0.5546330000000 1.0
C      1  0.4408830000000  0.4900870000000  0.4427510000000 1.0
C      1  0.4203450000000  0.4896110000000  0.4661160000000 1.0
C      1  0.5794720000000  0.4883980000000  0.5352460000000 1.0
C      1  0.5773910000000  0.5094980000000  0.4642380000000 1.0
C      1  0.4203970000000  0.5092950000000  0.5364380000000 1.0
C      1  0.4844320000000  0.5216730000000  0.4734820000000 1.0
C      1  0.5151090000000  0.5099150000000  0.5290890000000 1.0
C      1  0.5186670000000  0.4823010000000  0.4737550000000 1.0
C      1  0.4835700000000  0.4856420000000  0.5259210000000 1.0
C      1  0.4875040000000  0.4949900000000  0.4403600000000 1.0
C      1  0.5134800000000  0.4966900000000  0.5705430000000 1.0
C      1  0.5119960000000  0.5075740000000  0.4380420000000 1.0
C      1  0.4856170000000  0.5039990000000  0.5653710000000 1.0
C      1  0.5408660000000  0.4602990000000  0.5480700000000 1.0
C      1  0.4717980000000  0.4259760000000  0.4554340000000 1.0
C      1  0.4576380000000  0.5389490000000  0.5494980000000 1.0
C      1  0.5436380000000  0.5414240000000  0.4503610000000 1.0
C      1  0.5208010000000  0.4436950000000  0.4660980000000 1.0
C      1  0.4750450000000  0.4470870000000  0.5319040000000 1.0
C      1  0.4750920000000  0.5601290000000  0.4694950000000 1.0
C      1  0.5258810000000  0.5549520000000  0.5339220000000 1.0
C      1  0.4414610000000  0.5224810000000  0.5169370000000 1.0
C      1  0.5566200000000  0.5227000000000  0.4836390000000 1.0
C      1  0.5591990000000  0.4746980000000  0.5156810000000 1.0
C      1  0.4435630000000  0.4664870000000  0.4660620000000 1.0
C      1  0.5640590000000  0.5329480000000  0.5141540000000 1.0
C      1  0.4344610000000  0.5350700000000  0.4871300000000 1.0
C      1  0.4360450000000  0.4668350000000  0.5172110000000 1.0
C      1  0.5646650000000  0.4621120000000  0.4852850000000 1.0
C      1  0.4568300000000  0.4720810000000  0.5395510000000 1.0
C      1  0.5440230000000  0.4677810000000  0.4599670000000 1.0
C      1  0.5424050000000  0.5284690000000  0.5367250000000 1.0
C      1  0.4560020000000  0.5345370000000  0.4631310000000 1.0
C      1  0.4862430000000  0.5521630000000  0.4992200000000 1.0
C      1  0.5178380000000  0.5583640000000  0.5035630000000 1.0
C      1  0.5127100000000  0.4498250000000  0.4967460000000 1.0
C      1  0.4811960000000  0.4465910000000  0.5003490000000 1.0
C      1  0.5406000000000  0.5058720000000  0.5604340000000 1.0
C      1  0.4624300000000  0.5077690000000  0.4431730000000 1.0
C      1  0.4590780000000  0.4938620000000  0.5621870000000 1.0
C      1  0.5375050000000  0.4952430000000  0.4409680000000 1.0
C      1  0.4763000000000  0.4970800000000  0.4947370000000 1.0
C      1  0.5239070000000  0.5039170000000  0.4967920000000 1.0
END
