TITL C-2622968-4806-879 -0.00025588308352111 125000 -755.487173286652 0 0 133 (C1) n - 1
REM
REM in /nfs/bkarasulu/CARBON/AIRSS/Generating-Clusters/AIREBO/with-SteepDescent/Higher-Symm/SD-CG/HFTN-CG
REM
REM
REM
REM
REM
REM ./C.cell (b20cbc046b6831c77cfcea5457e17084)
REM
REM compiler GCC version 9.2.1 20190827 (Red Hat 9.2.1-1)
REM options -cpp -mtune=generic -march=x86-64 -g -O0 -fpre-include=/usr/include/finclude/math-vector-fortran.h
REM seed 1748429707 382249748 1583074560 1084445296 -728681401 -998028889 -86482545 1866147210 -2136208621 990849089 -437262868 1220442987 790336932 -900515753 -1867325661 -1259244381 983822511 -1131866213 153849532 1344124324 851040418 -1447911994 2146931973 -470066831 -1122332770 1072412751 -599251810 -1283927522 -289529191 -1635037409 -1581341456 -1187947760 821021871
REM
CELL 1.54180   50.00000   50.00000   50.00000   90.00000   90.00000   90.00000
LATT -1
SFAC C  
C      1  0.5066520000000  0.5748100000000  0.5566060000000 1.0
C      1  0.5076780000000  0.5790930000000  0.4440370000000 1.0
C      1  0.5150420000000  0.4764460000000  0.4066650000000 1.0
C      1  0.5080330000000  0.4242700000000  0.5079120000000 1.0
C      1  0.5083560000000  0.4685790000000  0.5901320000000 1.0
C      1  0.4540910000000  0.4464480000000  0.5100490000000 1.0
C      1  0.4463400000000  0.4910120000000  0.5534220000000 1.0
C      1  0.4506420000000  0.5481480000000  0.5272840000000 1.0
C      1  0.4509690000000  0.5396900000000  0.4612560000000 1.0
C      1  0.4496830000000  0.4749590000000  0.4542470000000 1.0
C      1  0.4599000000000  0.4762350000000  0.5072980000000 1.0
C      1  0.4429390000000  0.4969040000000  0.5248870000000 1.0
C      1  0.4472270000000  0.5235620000000  0.5098260000000 1.0
C      1  0.4433210000000  0.5185750000000  0.4804840000000 1.0
C      1  0.4439670000000  0.4868330000000  0.4812650000000 1.0
C      1  0.5292370000000  0.4284550000000  0.5643780000000 1.0
C      1  0.5309500000000  0.5291410000000  0.5792210000000 1.0
C      1  0.5233130000000  0.5891630000000  0.4940770000000 1.0
C      1  0.5271050000000  0.5246810000000  0.4164580000000 1.0
C      1  0.5309300000000  0.4270460000000  0.4595420000000 1.0
C      1  0.5642510000000  0.4938760000000  0.5694370000000 1.0
C      1  0.5516650000000  0.5446050000000  0.5368480000000 1.0
C      1  0.5678480000000  0.5536460000000  0.4541920000000 1.0
C      1  0.5612560000000  0.4710040000000  0.4414610000000 1.0
C      1  0.5607810000000  0.4302590000000  0.5108030000000 1.0
C      1  0.4867670000000  0.5929940000000  0.5345980000000 1.0
C      1  0.4911550000000  0.5622920000000  0.4185160000000 1.0
C      1  0.4866720000000  0.4403480000000  0.4331870000000 1.0
C      1  0.4888670000000  0.4101480000000  0.5322110000000 1.0
C      1  0.4926570000000  0.4928830000000  0.6021300000000 1.0
C      1  0.5145270000000  0.4377500000000  0.5891480000000 1.0
C      1  0.5187560000000  0.5567270000000  0.5828580000000 1.0
C      1  0.5123210000000  0.6013670000000  0.4693100000000 1.0
C      1  0.5209150000000  0.5044640000000  0.3956930000000 1.0
C      1  0.5127270000000  0.4123360000000  0.4764190000000 1.0
C      1  0.5389490000000  0.4901150000000  0.5771290000000 1.0
C      1  0.5328420000000  0.5694400000000  0.5379380000000 1.0
C      1  0.5386760000000  0.5653500000000  0.4411960000000 1.0
C      1  0.5317280000000  0.4636890000000  0.4286490000000 1.0
C      1  0.5391280000000  0.4148270000000  0.5179130000000 1.0
C      1  0.4963110000000  0.4466910000000  0.4645150000000 1.0
C      1  0.4945740000000  0.4370870000000  0.5464160000000 1.0
C      1  0.5024890000000  0.5189260000000  0.5488350000000 1.0
C      1  0.4905880000000  0.5582370000000  0.4905800000000 1.0
C      1  0.4921070000000  0.5062430000000  0.4388520000000 1.0
C      1  0.5815350000000  0.4544670000000  0.5215540000000 1.0
C      1  0.5742610000000  0.5057160000000  0.5421760000000 1.0
C      1  0.5732570000000  0.5432010000000  0.5101260000000 1.0
C      1  0.5818980000000  0.5226690000000  0.4540430000000 1.0
C      1  0.5761050000000  0.4663470000000  0.4695430000000 1.0
C      1  0.4098700000000  0.5314730000000  0.4980550000000 1.0
C      1  0.4120690000000  0.5091120000000  0.4724780000000 1.0
C      1  0.4128500000000  0.4777840000000  0.4866470000000 1.0
C      1  0.4082490000000  0.4780590000000  0.5189790000000 1.0
C      1  0.4125300000000  0.5112050000000  0.5252380000000 1.0
C      1  0.4264490000000  0.4320240000000  0.4964770000000 1.0
C      1  0.4224470000000  0.4723290000000  0.5657990000000 1.0
C      1  0.4306620000000  0.5490160000000  0.5518060000000 1.0
C      1  0.4296430000000  0.5623070000000  0.4655860000000 1.0
C      1  0.4322200000000  0.4872600000000  0.4313110000000 1.0
C      1  0.4626170000000  0.5550720000000  0.4207190000000 1.0
C      1  0.4583040000000  0.4443000000000  0.4301760000000 1.0
C      1  0.4558100000000  0.4112100000000  0.5288870000000 1.0
C      1  0.4643320000000  0.4956770000000  0.5938290000000 1.0
C      1  0.4584430000000  0.5871390000000  0.5313960000000 1.0
C      1  0.4871950000000  0.5849410000000  0.4777350000000 1.0
C      1  0.4916800000000  0.5083840000000  0.4083400000000 1.0
C      1  0.4863300000000  0.4141280000000  0.4631070000000 1.0
C      1  0.4880920000000  0.4384910000000  0.5735930000000 1.0
C      1  0.4936140000000  0.5404720000000  0.5717720000000 1.0
C      1  0.6083840000000  0.4638250000000  0.5390010000000 1.0
C      1  0.5838960000000  0.5383320000000  0.5420500000000 1.0
C      1  0.5962470000000  0.5543790000000  0.4724990000000 1.0
C      1  0.6109030000000  0.5091200000000  0.4495750000000 1.0
C      1  0.6069070000000  0.4528810000000  0.4746570000000 1.0
C      1  0.4960080000000  0.5342890000000  0.5098990000000 1.0
C      1  0.4989830000000  0.5245650000000  0.4625540000000 1.0
C      1  0.4972550000000  0.4802620000000  0.4698510000000 1.0
C      1  0.4908140000000  0.4824270000000  0.5129220000000 1.0
C      1  0.4956270000000  0.4899120000000  0.5435640000000 1.0
C      1  0.4430990000000  0.4711730000000  0.5879940000000 1.0
C      1  0.4465330000000  0.5738310000000  0.5575570000000 1.0
C      1  0.4438650000000  0.5738470000000  0.4417160000000 1.0
C      1  0.4506950000000  0.4695880000000  0.4146860000000 1.0
C      1  0.4436020000000  0.4068680000000  0.5014220000000 1.0
C      1  0.4795390000000  0.5380650000000  0.5349160000000 1.0
C      1  0.4790880000000  0.5485550000000  0.4633560000000 1.0
C      1  0.4767240000000  0.4793700000000  0.4465610000000 1.0
C      1  0.4760490000000  0.4301550000000  0.5000610000000 1.0
C      1  0.4719290000000  0.4790900000000  0.5580560000000 1.0
C      1  0.5559930000000  0.4573010000000  0.4911280000000 1.0
C      1  0.5508660000000  0.4665540000000  0.5238820000000 1.0
C      1  0.5458690000000  0.4975680000000  0.5265670000000 1.0
C      1  0.5601000000000  0.5420760000000  0.4840770000000 1.0
C      1  0.5607220000000  0.5007120000000  0.4507410000000 1.0
C      1  0.4655830000000  0.4100460000000  0.4814220000000 1.0
C      1  0.4705250000000  0.4591680000000  0.5788160000000 1.0
C      1  0.4753280000000  0.5624070000000  0.5576450000000 1.0
C      1  0.4739490000000  0.5795040000000  0.4499030000000 1.0
C      1  0.4828900000000  0.4763230000000  0.4140330000000 1.0
C      1  0.5183940000000  0.4750520000000  0.5582670000000 1.0
C      1  0.5214020000000  0.5528440000000  0.5123420000000 1.0
C      1  0.5275880000000  0.5399580000000  0.4609040000000 1.0
C      1  0.5262910000000  0.4814930000000  0.4566470000000 1.0
C      1  0.5100090000000  0.4582050000000  0.5088740000000 1.0
C      1  0.4372410000000  0.5095670000000  0.5784580000000 1.0
C      1  0.4380280000000  0.5719930000000  0.5108530000000 1.0
C      1  0.4415760000000  0.5326720000000  0.4318550000000 1.0
C      1  0.4366230000000  0.4462380000000  0.4538340000000 1.0
C      1  0.4353110000000  0.4377080000000  0.5348400000000 1.0
C      1  0.5996080000000  0.4917520000000  0.5266000000000 1.0
C      1  0.5991270000000  0.5220860000000  0.5158160000000 1.0
C      1  0.5980280000000  0.5243350000000  0.4840260000000 1.0
C      1  0.5986950000000  0.4916680000000  0.4739530000000 1.0
C      1  0.6007900000000  0.4713510000000  0.5004970000000 1.0
C      1  0.5221140000000  0.4088520000000  0.5419420000000 1.0
C      1  0.5207570000000  0.5061190000000  0.5958200000000 1.0
C      1  0.5148260000000  0.5911610000000  0.5211460000000 1.0
C      1  0.5200880000000  0.5516270000000  0.4180000000000 1.0
C      1  0.5198020000000  0.4359350000000  0.4342230000000 1.0
C      1  0.4179020000000  0.4475150000000  0.4752010000000 1.0
C      1  0.4173820000000  0.4595060000000  0.5399000000000 1.0
C      1  0.4210910000000  0.5233820000000  0.5559010000000 1.0
C      1  0.4200780000000  0.5593310000000  0.4920740000000 1.0
C      1  0.4228250000000  0.5118410000000  0.4401270000000 1.0
C      1  0.5351140000000  0.5208660000000  0.5478440000000 1.0
C      1  0.5345710000000  0.5605020000000  0.4858680000000 1.0
C      1  0.5323580000000  0.5125980000000  0.4442650000000 1.0
C      1  0.5260450000000  0.4544240000000  0.4791060000000 1.0
C      1  0.5250380000000  0.4497550000000  0.5381910000000 1.0
C      1  0.5326020000000  0.5041320000000  0.4998520000000 1.0
C      1  0.5519080000000  0.5138580000000  0.4789720000000 1.0
C      1  0.5013570000000  0.5063930000000  0.4912230000000 1.0
END
