TITL C-2622959-7779-108 -0.00168111675652408 125000 -417.925839728761 0 0 91 (C1) n - 1
REM
REM in /nfs/bkarasulu/CARBON/AIRSS/Generating-Clusters/AIREBO/with-SteepDescent/Higher-Symm/SD-CG/HFTN-CG
REM
REM
REM
REM
REM
REM ./C.cell (b20cbc046b6831c77cfcea5457e17084)
REM
REM compiler GCC version 9.2.1 20190827 (Red Hat 9.2.1-1)
REM options -cpp -mtune=generic -march=x86-64 -g -O0 -fpre-include=/usr/include/finclude/math-vector-fortran.h
REM seed -1204843191 -24209581 -1014243963 -193394466 -1316804 -549348450 439616651 884633959 -863528537 -128957060 -1726329250 847251096 -768753921 -399856890 2098577897 -1921880702 25981759 -2021737083 -960285431 1812232947 -456163162 -1115056157 1006071564 286510403 -2124944935 992164840 767996045 1466601021 -1191420182 -65851974 1711579435 -664096221 -655959606
REM
CELL 1.54180   50.00000   50.00000   50.00000   90.00000   90.00000   90.00000
LATT -1
SFAC C  
C      1  0.5232510000000  0.4747090000000  0.5646600000000 1.0
C      1  0.5567760000000  0.5217920000000  0.4766230000000 1.0
C      1  0.4744820000000  0.5679310000000  0.5272390000000 1.0
C      1  0.4783880000000  0.5255100000000  0.5673770000000 1.0
C      1  0.4821510000000  0.4739180000000  0.4352870000000 1.0
C      1  0.5211420000000  0.5218680000000  0.4356900000000 1.0
C      1  0.4423450000000  0.4777990000000  0.4690150000000 1.0
C      1  0.4418910000000  0.5251930000000  0.5301280000000 1.0
C      1  0.5622600000000  0.4796240000000  0.5252990000000 1.0
C      1  0.5288870000000  0.4374160000000  0.5261280000000 1.0
C      1  0.5198420000000  0.5623050000000  0.4799380000000 1.0
C      1  0.4687480000000  0.4360270000000  0.4692210000000 1.0
C      1  0.5212620000000  0.4703980000000  0.4421980000000 1.0
C      1  0.5587410000000  0.5194170000000  0.5246680000000 1.0
C      1  0.4753080000000  0.5584580000000  0.4867300000000 1.0
C      1  0.4765690000000  0.5286710000000  0.4466720000000 1.0
C      1  0.4855560000000  0.4747290000000  0.5508240000000 1.0
C      1  0.5151590000000  0.5247660000000  0.5519050000000 1.0
C      1  0.4459020000000  0.4859550000000  0.5240470000000 1.0
C      1  0.4375620000000  0.5190770000000  0.4785220000000 1.0
C      1  0.5552970000000  0.4819810000000  0.4771000000000 1.0
C      1  0.5250830000000  0.4407780000000  0.4865080000000 1.0
C      1  0.5262200000000  0.5639680000000  0.5193820000000 1.0
C      1  0.4764420000000  0.4388720000000  0.5163520000000 1.0
C      1  0.5170440000000  0.4436600000000  0.4216120000000 1.0
C      1  0.4151260000000  0.5172510000000  0.4530210000000 1.0
C      1  0.4475590000000  0.4224610000000  0.5090680000000 1.0
C      1  0.4843100000000  0.5524710000000  0.4241910000000 1.0
C      1  0.4877220000000  0.4549530000000  0.5784240000000 1.0
C      1  0.5132750000000  0.5450600000000  0.5791350000000 1.0
C      1  0.5803330000000  0.4907690000000  0.4558230000000 1.0
C      1  0.5795180000000  0.5121780000000  0.5505980000000 1.0
C      1  0.4224510000000  0.4913800000000  0.5480750000000 1.0
C      1  0.5528160000000  0.5825940000000  0.5092680000000 1.0
C      1  0.5512490000000  0.4199930000000  0.4928310000000 1.0
C      1  0.4510580000000  0.5818420000000  0.4914210000000 1.0
C      1  0.5179490000000  0.4495590000000  0.5869200000000 1.0
C      1  0.4176790000000  0.5220610000000  0.5538120000000 1.0
C      1  0.4421460000000  0.4177150000000  0.4789990000000 1.0
C      1  0.4836540000000  0.5520470000000  0.5879710000000 1.0
C      1  0.4871910000000  0.4494370000000  0.4122150000000 1.0
C      1  0.5120880000000  0.5462510000000  0.4137670000000 1.0
C      1  0.5856830000000  0.4821990000000  0.5498260000000 1.0
C      1  0.5827610000000  0.5220580000000  0.4546760000000 1.0
C      1  0.4212990000000  0.4885050000000  0.4450250000000 1.0
C      1  0.5452270000000  0.5849280000000  0.4791410000000 1.0
C      1  0.5545220000000  0.4151830000000  0.5238080000000 1.0
C      1  0.4472500000000  0.5877250000000  0.5224700000000 1.0
C      1  0.5173260000000  0.4398330000000  0.4565810000000 1.0
C      1  0.4505440000000  0.5155150000000  0.4472860000000 1.0
C      1  0.4479340000000  0.4572870000000  0.5140880000000 1.0
C      1  0.4840130000000  0.5593440000000  0.4574880000000 1.0
C      1  0.4836250000000  0.4410400000000  0.5465590000000 1.0
C      1  0.5173030000000  0.5584010000000  0.5473640000000 1.0
C      1  0.5493310000000  0.4809040000000  0.4436420000000 1.0
C      1  0.5454240000000  0.5171040000000  0.5558680000000 1.0
C      1  0.4551700000000  0.4832190000000  0.5566500000000 1.0
C      1  0.5565470000000  0.5487310000000  0.5172480000000 1.0
C      1  0.5564770000000  0.4538430000000  0.4863240000000 1.0
C      1  0.4428330000000  0.5483680000000  0.4863200000000 1.0
C      1  0.5165260000000  0.4437950000000  0.5534280000000 1.0
C      1  0.4516040000000  0.5152610000000  0.5611660000000 1.0
C      1  0.4424700000000  0.4521660000000  0.4828320000000 1.0
C      1  0.4849010000000  0.5558170000000  0.5533990000000 1.0
C      1  0.4860440000000  0.4420050000000  0.4463930000000 1.0
C      1  0.5159870000000  0.5529700000000  0.4484670000000 1.0
C      1  0.5506510000000  0.4851940000000  0.5567760000000 1.0
C      1  0.5500910000000  0.5140190000000  0.4441940000000 1.0
C      1  0.4542490000000  0.4842000000000  0.4378300000000 1.0
C      1  0.5512920000000  0.5506300000000  0.4855340000000 1.0
C      1  0.5595780000000  0.4496850000000  0.5181240000000 1.0
C      1  0.4455380000000  0.5535430000000  0.5188840000000 1.0
C      1  0.4786160000000  0.5263110000000  0.4947030000000 1.0
C      1  0.5240660000000  0.4663450000000  0.5089190000000 1.0
C      1  0.4934870000000  0.4754500000000  0.5175740000000 1.0
C      1  0.5019520000000  0.5157110000000  0.4630130000000 1.0
C      1  0.5163920000000  0.5365910000000  0.5019210000000 1.0
C      1  0.5054700000000  0.5134520000000  0.5213080000000 1.0
C      1  0.5337540000000  0.4970550000000  0.5189710000000 1.0
C      1  0.4808970000000  0.4599660000000  0.4900460000000 1.0
C      1  0.4965290000000  0.4762060000000  0.4660230000000 1.0
C      1  0.4711220000000  0.5094470000000  0.5227730000000 1.0
C      1  0.4647010000000  0.4986740000000  0.4806110000000 1.0
C      1  0.5286440000000  0.5029430000000  0.4797860000000 1.0
C      1  0.5009150000000  0.4999440000000  0.5676870000000 1.0
C      1  0.5724360000000  0.5017840000000  0.4992390000000 1.0
C      1  0.4982770000000  0.5761570000000  0.5043300000000 1.0
C      1  0.5065140000000  0.4940240000000  0.4226900000000 1.0
C      1  0.4261480000000  0.5070170000000  0.5060850000000 1.0
C      1  0.5043110000000  0.4232460000000  0.5073800000000 1.0
C      1  0.4973210000000  0.4980210000000  0.4921050000000 1.0
END
