TITL C-2622957-9142-554 -0.000416011002562679 125000 -510.745321568678 0 0 89 (C1) n - 1
REM
REM in /nfs/bkarasulu/CARBON/AIRSS/Generating-Clusters/AIREBO/with-SteepDescent/Higher-Symm/SD-CG/HFTN-CG
REM
REM
REM
REM
REM
REM ./C.cell (b20cbc046b6831c77cfcea5457e17084)
REM
REM compiler GCC version 9.2.1 20190827 (Red Hat 9.2.1-1)
REM options -cpp -mtune=generic -march=x86-64 -g -O0 -fpre-include=/usr/include/finclude/math-vector-fortran.h
REM seed 1384309043 471444181 1134461294 -510770641 -302292875 -1459184137 -12206433 -527939697 -1891733359 99982954 633523255 -1885916710 -1328224080 -1785981909 832768070 800829148 663681825 1522977988 -1787507313 -666136692 382670147 -54022726 -1357577350 -1381490906 897964126 -395312769 -1574806232 99506181 -318568649 652830539 853287911 -794871611 1296032581
REM
CELL 1.54180   50.00000   50.00000   50.00000   90.00000   90.00000   90.00000
LATT -1
SFAC C  
C      1  0.4780710000000  0.4669530000000  0.4535820000000 1.0
C      1  0.4710380000000  0.4973140000000  0.4567710000000 1.0
C      1  0.4746140000000  0.5273720000000  0.4642650000000 1.0
C      1  0.5007850000000  0.5413510000000  0.4601600000000 1.0
C      1  0.5283440000000  0.5236830000000  0.4577030000000 1.0
C      1  0.5338810000000  0.4952470000000  0.4547500000000 1.0
C      1  0.5195050000000  0.4698280000000  0.4577180000000 1.0
C      1  0.5021150000000  0.4620720000000  0.4301800000000 1.0
C      1  0.5101110000000  0.5385720000000  0.5810780000000 1.0
C      1  0.5334600000000  0.5174950000000  0.5919980000000 1.0
C      1  0.5387450000000  0.4900910000000  0.5893770000000 1.0
C      1  0.5166920000000  0.4735650000000  0.5956080000000 1.0
C      1  0.4888800000000  0.4719820000000  0.5911760000000 1.0
C      1  0.4710440000000  0.4910630000000  0.6022670000000 1.0
C      1  0.4613970000000  0.5151570000000  0.5910640000000 1.0
C      1  0.4785780000000  0.5374970000000  0.5899010000000 1.0
C      1  0.4420090000000  0.5119720000000  0.4474540000000 1.0
C      1  0.4661700000000  0.5519210000000  0.4431400000000 1.0
C      1  0.5156620000000  0.5628440000000  0.4399780000000 1.0
C      1  0.5541250000000  0.5363490000000  0.4413790000000 1.0
C      1  0.5626210000000  0.4919250000000  0.4442940000000 1.0
C      1  0.5410260000000  0.4471030000000  0.4445710000000 1.0
C      1  0.4800920000000  0.4290860000000  0.4338080000000 1.0
C      1  0.4442570000000  0.4688680000000  0.4503800000000 1.0
C      1  0.4915110000000  0.5715390000000  0.4860900000000 1.0
C      1  0.5461010000000  0.5610370000000  0.4876340000000 1.0
C      1  0.5774710000000  0.5176470000000  0.4839370000000 1.0
C      1  0.5510830000000  0.4533890000000  0.4958660000000 1.0
C      1  0.5148660000000  0.4207550000000  0.4767800000000 1.0
C      1  0.4472670000000  0.4498960000000  0.4914990000000 1.0
C      1  0.4242350000000  0.4947690000000  0.4883680000000 1.0
C      1  0.4434770000000  0.5431550000000  0.4876870000000 1.0
C      1  0.4313130000000  0.4683910000000  0.4757210000000 1.0
C      1  0.4274840000000  0.5182330000000  0.4708980000000 1.0
C      1  0.4625730000000  0.5644620000000  0.4721490000000 1.0
C      1  0.5204310000000  0.5743480000000  0.4697470000000 1.0
C      1  0.5652220000000  0.5399990000000  0.4702550000000 1.0
C      1  0.5780840000000  0.4919110000000  0.4674080000000 1.0
C      1  0.5381820000000  0.4385220000000  0.4740960000000 1.0
C      1  0.4914280000000  0.4277270000000  0.4601340000000 1.0
C      1  0.5394660000000  0.5369840000000  0.5653240000000 1.0
C      1  0.5437600000000  0.5076570000000  0.5538950000000 1.0
C      1  0.5630200000000  0.4857480000000  0.5700530000000 1.0
C      1  0.4987090000000  0.4392870000000  0.5528020000000 1.0
C      1  0.4787060000000  0.4605950000000  0.5648200000000 1.0
C      1  0.4616530000000  0.4877210000000  0.5527980000000 1.0
C      1  0.4451910000000  0.5125430000000  0.5643370000000 1.0
C      1  0.4867490000000  0.5455240000000  0.5580080000000 1.0
C      1  0.5034730000000  0.5527220000000  0.5320560000000 1.0
C      1  0.5241380000000  0.5266590000000  0.5250060000000 1.0
C      1  0.5216880000000  0.4943150000000  0.5350850000000 1.0
C      1  0.5209670000000  0.4698750000000  0.5162180000000 1.0
C      1  0.4952570000000  0.4541630000000  0.5230370000000 1.0
C      1  0.4734830000000  0.4710030000000  0.5126950000000 1.0
C      1  0.4637320000000  0.5021880000000  0.5220980000000 1.0
C      1  0.4829460000000  0.5302390000000  0.5212690000000 1.0
C      1  0.4738830000000  0.4545160000000  0.4159890000000 1.0
C      1  0.4545260000000  0.4751200000000  0.4223760000000 1.0
C      1  0.4594000000000  0.5058780000000  0.4197360000000 1.0
C      1  0.4798950000000  0.5297210000000  0.4246860000000 1.0
C      1  0.5089960000000  0.5364270000000  0.4214240000000 1.0
C      1  0.5353650000000  0.5216520000000  0.4185730000000 1.0
C      1  0.5455000000000  0.4928170000000  0.4168890000000 1.0
C      1  0.5328170000000  0.4667490000000  0.4202450000000 1.0
C      1  0.5368440000000  0.5060650000000  0.5010790000000 1.0
C      1  0.5600940000000  0.4835670000000  0.4946020000000 1.0
C      1  0.5077240000000  0.4615720000000  0.4859620000000 1.0
C      1  0.4769230000000  0.4482560000000  0.4800790000000 1.0
C      1  0.4801600000000  0.4899400000000  0.4879100000000 1.0
C      1  0.4616980000000  0.5158470000000  0.4909070000000 1.0
C      1  0.4990620000000  0.5404860000000  0.4942750000000 1.0
C      1  0.5293390000000  0.5336550000000  0.4864780000000 1.0
C      1  0.4987730000000  0.5781610000000  0.5164610000000 1.0
C      1  0.5416640000000  0.5541080000000  0.5189520000000 1.0
C      1  0.5745730000000  0.5073180000000  0.5142710000000 1.0
C      1  0.5411120000000  0.4469050000000  0.5238030000000 1.0
C      1  0.5086930000000  0.4085440000000  0.5019070000000 1.0
C      1  0.4477550000000  0.4533340000000  0.5206550000000 1.0
C      1  0.4302840000000  0.4995470000000  0.5165800000000 1.0
C      1  0.4506810000000  0.5408820000000  0.5199340000000 1.0
C      1  0.5314620000000  0.4336120000000  0.5455650000000 1.0
C      1  0.5003210000000  0.4211410000000  0.5238720000000 1.0
C      1  0.4487620000000  0.4571700000000  0.5490730000000 1.0
C      1  0.4210820000000  0.5057980000000  0.5425300000000 1.0
C      1  0.4566340000000  0.5386670000000  0.5499460000000 1.0
C      1  0.5011100000000  0.6024480000000  0.5256220000000 1.0
C      1  0.5489260000000  0.5588300000000  0.5460660000000 1.0
C      1  0.5725860000000  0.5001270000000  0.5407120000000 1.0
C      1  0.5110400000000  0.4952760000000  0.4873560000000 1.0
END
