TITL C-2622957-9142-75 -0.00169688269439723 125000 -1060.88515843946 0 0 194 (C1) n - 1
REM
REM in /nfs/bkarasulu/CARBON/AIRSS/Generating-Clusters/AIREBO/with-SteepDescent/Higher-Symm/SD-CG/HFTN-CG
REM
REM
REM
REM
REM
REM ./C.cell (b20cbc046b6831c77cfcea5457e17084)
REM
REM compiler GCC version 9.2.1 20190827 (Red Hat 9.2.1-1)
REM options -cpp -mtune=generic -march=x86-64 -g -O0 -fpre-include=/usr/include/finclude/math-vector-fortran.h
REM seed -383562148 460817389 -2027328491 1749687067 -171406977 779557392 -1177886184 1683913436 -1530852309 -1777316368 -674510622 167792289 -1687305377 -941300819 1915533148 -2069396031 1307081751 -2001856245 -1604160804 -1690442916 -2819488 -1441986368 252791740 793313734 -348744017 1544855110 770144811 680100735 -886518423 77571077 952833654 -1812640412 325712988
REM
CELL 1.54180   50.00000   50.00000   50.00000   90.00000   90.00000   90.00000
LATT -1
SFAC C  
C      1  0.5494720000000  0.5383300000000  0.4895990000000 1.0
C      1  0.5167550000000  0.5358480000000  0.5407120000000 1.0
C      1  0.4565360000000  0.5346170000000  0.5276130000000 1.0
C      1  0.4575210000000  0.5275690000000  0.4744990000000 1.0
C      1  0.5199420000000  0.5431600000000  0.4575610000000 1.0
C      1  0.5485300000000  0.4701830000000  0.5040330000000 1.0
C      1  0.5125890000000  0.4713170000000  0.5491550000000 1.0
C      1  0.4582650000000  0.4632160000000  0.5346700000000 1.0
C      1  0.4706440000000  0.4684430000000  0.4674360000000 1.0
C      1  0.5153750000000  0.4601610000000  0.4495970000000 1.0
C      1  0.4815070000000  0.4838970000000  0.4391500000000 1.0
C      1  0.5513810000000  0.4886650000000  0.4596460000000 1.0
C      1  0.5615410000000  0.4816680000000  0.5333380000000 1.0
C      1  0.4864840000000  0.4852810000000  0.5641710000000 1.0
C      1  0.4362830000000  0.4752850000000  0.5116750000000 1.0
C      1  0.4710380000000  0.5159530000000  0.4460970000000 1.0
C      1  0.5451210000000  0.5209690000000  0.4521200000000 1.0
C      1  0.5603110000000  0.5139680000000  0.5343540000000 1.0
C      1  0.4927000000000  0.5179160000000  0.5567170000000 1.0
C      1  0.4269370000000  0.5222860000000  0.5197740000000 1.0
C      1  0.4766880000000  0.4881820000000  0.5951890000000 1.0
C      1  0.4056330000000  0.4815200000000  0.5112210000000 1.0
C      1  0.4652420000000  0.4892830000000  0.4097600000000 1.0
C      1  0.5759090000000  0.4897460000000  0.4378850000000 1.0
C      1  0.5844830000000  0.4880320000000  0.5576180000000 1.0
C      1  0.4771470000000  0.5150220000000  0.6052970000000 1.0
C      1  0.3960460000000  0.5105600000000  0.5115110000000 1.0
C      1  0.4571080000000  0.5191740000000  0.3993670000000 1.0
C      1  0.5841760000000  0.5163090000000  0.4302330000000 1.0
C      1  0.5958620000000  0.5116840000000  0.5618010000000 1.0
C      1  0.4420200000000  0.4383040000000  0.4272980000000 1.0
C      1  0.5483980000000  0.4454180000000  0.4316570000000 1.0
C      1  0.5871830000000  0.4273850000000  0.5219880000000 1.0
C      1  0.5018400000000  0.4401140000000  0.5825580000000 1.0
C      1  0.4140460000000  0.4331970000000  0.5373520000000 1.0
C      1  0.4358750000000  0.5598930000000  0.4310680000000 1.0
C      1  0.5479340000000  0.5655440000000  0.4159530000000 1.0
C      1  0.5887370000000  0.5588350000000  0.5236280000000 1.0
C      1  0.5099960000000  0.5635930000000  0.5876660000000 1.0
C      1  0.4143800000000  0.5614420000000  0.5337010000000 1.0
C      1  0.4737600000000  0.4616650000000  0.3915810000000 1.0
C      1  0.5883250000000  0.4582310000000  0.4416800000000 1.0
C      1  0.5844680000000  0.4583920000000  0.5563760000000 1.0
C      1  0.4642740000000  0.4569970000000  0.6008270000000 1.0
C      1  0.3951320000000  0.4517790000000  0.4987230000000 1.0
C      1  0.4751060000000  0.5376050000000  0.3875790000000 1.0
C      1  0.5925380000000  0.5452610000000  0.4403090000000 1.0
C      1  0.5932980000000  0.5441350000000  0.5696130000000 1.0
C      1  0.4662280000000  0.5453970000000  0.6033750000000 1.0
C      1  0.3853480000000  0.5409630000000  0.5000390000000 1.0
C      1  0.5263140000000  0.5947620000000  0.5687880000000 1.0
C      1  0.4373010000000  0.5917320000000  0.5460800000000 1.0
C      1  0.4355850000000  0.5893900000000  0.4580400000000 1.0
C      1  0.5241960000000  0.5897460000000  0.4186000000000 1.0
C      1  0.5832540000000  0.5950450000000  0.4921970000000 1.0
C      1  0.5201720000000  0.4066750000000  0.5706080000000 1.0
C      1  0.4401110000000  0.4039470000000  0.5450600000000 1.0
C      1  0.4347610000000  0.4094300000000  0.4649310000000 1.0
C      1  0.5168510000000  0.4126150000000  0.4278590000000 1.0
C      1  0.5708970000000  0.4014950000000  0.4963940000000 1.0
C      1  0.6024640000000  0.5340360000000  0.5380930000000 1.0
C      1  0.5002040000000  0.5393990000000  0.6037750000000 1.0
C      1  0.3923100000000  0.5366320000000  0.5330240000000 1.0
C      1  0.4352710000000  0.5337550000000  0.4171550000000 1.0
C      1  0.5693180000000  0.5426040000000  0.4146120000000 1.0
C      1  0.5959480000000  0.4518480000000  0.5317560000000 1.0
C      1  0.4975030000000  0.4632960000000  0.6043260000000 1.0
C      1  0.3949210000000  0.4574200000000  0.5326790000000 1.0
C      1  0.4437930000000  0.4629870000000  0.4075910000000 1.0
C      1  0.5679080000000  0.4658290000000  0.4155760000000 1.0
C      1  0.5972000000000  0.5149650000000  0.4828660000000 1.0
C      1  0.5523770000000  0.5178090000000  0.5922700000000 1.0
C      1  0.4260310000000  0.5171970000000  0.5846730000000 1.0
C      1  0.4136540000000  0.5146270000000  0.4637920000000 1.0
C      1  0.5130750000000  0.5211440000000  0.3962650000000 1.0
C      1  0.6014490000000  0.4884440000000  0.4844620000000 1.0
C      1  0.5474560000000  0.4908430000000  0.5940480000000 1.0
C      1  0.4197610000000  0.4906040000000  0.5802630000000 1.0
C      1  0.4161470000000  0.4892910000000  0.4576810000000 1.0
C      1  0.5205920000000  0.4950300000000  0.3928870000000 1.0
C      1  0.5456700000000  0.5187950000000  0.4201340000000 1.0
C      1  0.5911690000000  0.5059840000000  0.5225180000000 1.0
C      1  0.5137310000000  0.5178160000000  0.5824300000000 1.0
C      1  0.4112470000000  0.5127370000000  0.5480730000000 1.0
C      1  0.4414550000000  0.5097900000000  0.4345270000000 1.0
C      1  0.5456300000000  0.4875950000000  0.4119440000000 1.0
C      1  0.5950340000000  0.4742150000000  0.5128040000000 1.0
C      1  0.5162350000000  0.4849610000000  0.5908340000000 1.0
C      1  0.4059960000000  0.4806910000000  0.5511050000000 1.0
C      1  0.4353390000000  0.4782910000000  0.4339150000000 1.0
C      1  0.5220440000000  0.4426810000000  0.4746550000000 1.0
C      1  0.5345230000000  0.4403330000000  0.5123410000000 1.0
C      1  0.5026030000000  0.4414990000000  0.5361960000000 1.0
C      1  0.4702380000000  0.4400320000000  0.5128610000000 1.0
C      1  0.4820700000000  0.4419080000000  0.4751450000000 1.0
C      1  0.5094080000000  0.5688640000000  0.4681500000000 1.0
C      1  0.5391570000000  0.5668520000000  0.5007830000000 1.0
C      1  0.5137980000000  0.5617460000000  0.5213500000000 1.0
C      1  0.4617170000000  0.5615270000000  0.5121240000000 1.0
C      1  0.4731140000000  0.5530020000000  0.4679040000000 1.0
C      1  0.5178040000000  0.6067610000000  0.4743280000000 1.0
C      1  0.5291470000000  0.6090710000000  0.5064380000000 1.0
C      1  0.4995690000000  0.5990390000000  0.5200320000000 1.0
C      1  0.4713700000000  0.6096820000000  0.5042930000000 1.0
C      1  0.4846590000000  0.6052350000000  0.4733010000000 1.0
C      1  0.5161590000000  0.3889940000000  0.4776250000000 1.0
C      1  0.5231260000000  0.3876590000000  0.5107020000000 1.0
C      1  0.4951450000000  0.3868830000000  0.5268670000000 1.0
C      1  0.4702320000000  0.3879320000000  0.5037260000000 1.0
C      1  0.4834900000000  0.3899480000000  0.4725830000000 1.0
C      1  0.4614660000000  0.5820420000000  0.4760840000000 1.0
C      1  0.5089450000000  0.5923830000000  0.4448070000000 1.0
C      1  0.5530960000000  0.5943020000000  0.4877960000000 1.0
C      1  0.5244070000000  0.5879350000000  0.5395460000000 1.0
C      1  0.4624480000000  0.5875710000000  0.5285350000000 1.0
C      1  0.4648940000000  0.4174850000000  0.4777580000000 1.0
C      1  0.5092980000000  0.4167010000000  0.4591410000000 1.0
C      1  0.5406880000000  0.4128730000000  0.4978180000000 1.0
C      1  0.5134370000000  0.4122600000000  0.5402270000000 1.0
C      1  0.4651930000000  0.4126090000000  0.5258320000000 1.0
C      1  0.5475620000000  0.4543780000000  0.5404360000000 1.0
C      1  0.4793820000000  0.4518340000000  0.5587880000000 1.0
C      1  0.4423450000000  0.4473090000000  0.4935850000000 1.0
C      1  0.4903960000000  0.4534190000000  0.4268840000000 1.0
C      1  0.5521740000000  0.4549670000000  0.4642820000000 1.0
C      1  0.5639650000000  0.5431210000000  0.5432050000000 1.0
C      1  0.4712610000000  0.5406660000000  0.5642590000000 1.0
C      1  0.4293480000000  0.5525520000000  0.5044720000000 1.0
C      1  0.4849760000000  0.5455350000000  0.4367360000000 1.0
C      1  0.5594100000000  0.5502740000000  0.4617870000000 1.0
C      1  0.5515910000000  0.5940490000000  0.5273080000000 1.0
C      1  0.4860620000000  0.5877460000000  0.5491940000000 1.0
C      1  0.4405350000000  0.5974600000000  0.4968140000000 1.0
C      1  0.4762740000000  0.5954680000000  0.4417670000000 1.0
C      1  0.5462060000000  0.5981280000000  0.4577260000000 1.0
C      1  0.5443240000000  0.3991390000000  0.5347480000000 1.0
C      1  0.4785450000000  0.3993970000000  0.5538160000000 1.0
C      1  0.4404960000000  0.4027340000000  0.4962970000000 1.0
C      1  0.4807950000000  0.4071070000000  0.4432650000000 1.0
C      1  0.5453520000000  0.4019790000000  0.4660000000000 1.0
C      1  0.5657620000000  0.4170360000000  0.5386820000000 1.0
C      1  0.4790350000000  0.4163570000000  0.5770720000000 1.0
C      1  0.4267090000000  0.4247340000000  0.5136540000000 1.0
C      1  0.4688500000000  0.4293390000000  0.4297270000000 1.0
C      1  0.5594370000000  0.4190060000000  0.4483900000000 1.0
C      1  0.5728360000000  0.5816230000000  0.5417020000000 1.0
C      1  0.4892420000000  0.5678410000000  0.5683900000000 1.0
C      1  0.4157720000000  0.5835830000000  0.5075330000000 1.0
C      1  0.4627060000000  0.5710660000000  0.4337920000000 1.0
C      1  0.5531160000000  0.5737440000000  0.4444910000000 1.0
C      1  0.5282740000000  0.4883530000000  0.4845880000000 1.0
C      1  0.5193390000000  0.4869290000000  0.5255430000000 1.0
C      1  0.4796130000000  0.4850190000000  0.5226910000000 1.0
C      1  0.4627170000000  0.4829240000000  0.4934680000000 1.0
C      1  0.5103680000000  0.4907590000000  0.4557700000000 1.0
C      1  0.5274950000000  0.5186420000000  0.4957890000000 1.0
C      1  0.5315170000000  0.5135590000000  0.5253800000000 1.0
C      1  0.4810530000000  0.5154490000000  0.5275880000000 1.0
C      1  0.4698970000000  0.5129500000000  0.4963780000000 1.0
C      1  0.5003600000000  0.5185760000000  0.4631090000000 1.0
C      1  0.5656910000000  0.5640350000000  0.5699570000000 1.0
C      1  0.4470470000000  0.5574390000000  0.5812440000000 1.0
C      1  0.4040470000000  0.5615080000000  0.4835720000000 1.0
C      1  0.4913160000000  0.5536160000000  0.4043200000000 1.0
C      1  0.5908940000000  0.5534190000000  0.4706600000000 1.0
C      1  0.5597640000000  0.4368480000000  0.5655470000000 1.0
C      1  0.4538570000000  0.4383460000000  0.5767640000000 1.0
C      1  0.4128130000000  0.4400540000000  0.4783430000000 1.0
C      1  0.5005030000000  0.4464370000000  0.3951710000000 1.0
C      1  0.5808460000000  0.4366640000000  0.4638580000000 1.0
C      1  0.5236770000000  0.4356160000000  0.4137320000000 1.0
C      1  0.5887750000000  0.4234950000000  0.4908800000000 1.0
C      1  0.5342010000000  0.4296190000000  0.5820790000000 1.0
C      1  0.4302710000000  0.4256290000000  0.5614230000000 1.0
C      1  0.4241810000000  0.4312090000000  0.4484350000000 1.0
C      1  0.5171690000000  0.5629200000000  0.4020940000000 1.0
C      1  0.5944350000000  0.5701000000000  0.4944890000000 1.0
C      1  0.5385190000000  0.5729220000000  0.5831810000000 1.0
C      1  0.4293900000000  0.5691590000000  0.5628050000000 1.0
C      1  0.4159210000000  0.5681030000000  0.4550770000000 1.0
C      1  0.5158420000000  0.4744680000000  0.4187490000000 1.0
C      1  0.5741050000000  0.4682320000000  0.4866770000000 1.0
C      1  0.5374240000000  0.4695760000000  0.5691450000000 1.0
C      1  0.4384680000000  0.4767630000000  0.5572570000000 1.0
C      1  0.4394070000000  0.4664050000000  0.4655760000000 1.0
C      1  0.5142050000000  0.5306820000000  0.4276330000000 1.0
C      1  0.5750300000000  0.5242850000000  0.4988390000000 1.0
C      1  0.5402660000000  0.5318360000000  0.5649640000000 1.0
C      1  0.4411760000000  0.5266520000000  0.5566980000000 1.0
C      1  0.4290090000000  0.5309710000000  0.4781900000000 1.0
C      1  0.4979210000000  0.5275000000000  0.4928450000000 1.0
C      1  0.5018900000000  0.4770610000000  0.5009870000000 1.0
C      1  0.4914640000000  0.5600600000000  0.4956630000000 1.0
C      1  0.5022940000000  0.4445940000000  0.5023140000000 1.0
END
