TITL C-2622967-6265-436 2.69174487929412e-06 125000 -820.019751360821 0 0 152 (C1) n - 1
REM
REM in /nfs/bkarasulu/CARBON/AIRSS/Generating-Clusters/AIREBO/with-SteepDescent/Higher-Symm/SD-CG/HFTN-CG
REM
REM
REM
REM
REM
REM ./C.cell (b20cbc046b6831c77cfcea5457e17084)
REM
REM compiler GCC version 9.2.1 20190827 (Red Hat 9.2.1-1)
REM options -cpp -mtune=generic -march=x86-64 -g -O0 -fpre-include=/usr/include/finclude/math-vector-fortran.h
REM seed 724662949 -1514286926 -1056568032 1583451228 1254653681 -1364078403 1642034565 -1678705335 1341303883 -1788910202 1978527704 -1314313207 -1699852297 669411789 315243064 -1006085707 -1041788181 1307919685 -744918072 1267108104 -1645166075 -65305477 1647135095 -41058059 775877500 -997656379 -419866310 -842920430 -825894796 941871443 -171205692 -2049742787 -1274240325
REM
CELL 1.54180   50.00000   50.00000   50.00000   90.00000   90.00000   90.00000
LATT -1
SFAC C  
C      1  0.3908840000000  0.5580010000000  0.4272410000000 1.0
C      1  0.5355170000000  0.4211410000000  0.4277040000000 1.0
C      1  0.4314290000000  0.4382520000000  0.5293310000000 1.0
C      1  0.5762030000000  0.4529220000000  0.4258910000000 1.0
C      1  0.4197320000000  0.4367300000000  0.5911370000000 1.0
C      1  0.5756960000000  0.5426670000000  0.5697780000000 1.0
C      1  0.4701300000000  0.5735920000000  0.4277840000000 1.0
C      1  0.5466730000000  0.5829810000000  0.5823110000000 1.0
C      1  0.4533940000000  0.4068540000000  0.5636220000000 1.0
C      1  0.5728090000000  0.5740020000000  0.5311050000000 1.0
C      1  0.4266690000000  0.5728270000000  0.4576870000000 1.0
C      1  0.5833500000000  0.4314690000000  0.4719740000000 1.0
C      1  0.4311450000000  0.5446390000000  0.5827420000000 1.0
C      1  0.5384070000000  0.4311290000000  0.5733260000000 1.0
C      1  0.4228240000000  0.4454010000000  0.4692160000000 1.0
C      1  0.5732850000000  0.4609950000000  0.5654100000000 1.0
C      1  0.4404910000000  0.4576030000000  0.4114720000000 1.0
C      1  0.5855810000000  0.5275980000000  0.4406220000000 1.0
C      1  0.4679400000000  0.5730350000000  0.5716310000000 1.0
C      1  0.5994540000000  0.5723260000000  0.4321410000000 1.0
C      1  0.4609740000000  0.4216310000000  0.4240170000000 1.0
C      1  0.5673380000000  0.5676080000000  0.4754690000000 1.0
C      1  0.4230830000000  0.5608610000000  0.5356860000000 1.0
C      1  0.5683160000000  0.4398440000000  0.5198790000000 1.0
C      1  0.5669860000000  0.4761910000000  0.4467510000000 1.0
C      1  0.4800050000000  0.4586560000000  0.5677340000000 1.0
C      1  0.4222250000000  0.5640970000000  0.4844750000000 1.0
C      1  0.4373810000000  0.5112130000000  0.4458980000000 1.0
C      1  0.5563400000000  0.5270070000000  0.5446500000000 1.0
C      1  0.4498540000000  0.4871500000000  0.5565690000000 1.0
C      1  0.5106640000000  0.5366110000000  0.5553220000000 1.0
C      1  0.4892830000000  0.5459400000000  0.4327460000000 1.0
C      1  0.5108630000000  0.4550410000000  0.4485760000000 1.0
C      1  0.5530370000000  0.4180780000000  0.4799420000000 1.0
C      1  0.4530530000000  0.4195670000000  0.5112000000000 1.0
C      1  0.5415920000000  0.5770560000000  0.5175350000000 1.0
C      1  0.5544620000000  0.4822000000000  0.5504590000000 1.0
C      1  0.4800190000000  0.4473910000000  0.4364840000000 1.0
C      1  0.4352610000000  0.5733280000000  0.5079540000000 1.0
C      1  0.4436040000000  0.5195440000000  0.5648770000000 1.0
C      1  0.5614610000000  0.5050430000000  0.4487380000000 1.0
C      1  0.4374620000000  0.4835630000000  0.4645270000000 1.0
C      1  0.5205400000000  0.5514400000000  0.4309150000000 1.0
C      1  0.4875020000000  0.5549080000000  0.5519190000000 1.0
C      1  0.5116060000000  0.4491790000000  0.5621550000000 1.0
C      1  0.5405340000000  0.4295630000000  0.5067860000000 1.0
C      1  0.4515890000000  0.4347550000000  0.4847220000000 1.0
C      1  0.5399100000000  0.5745630000000  0.4862460000000 1.0
C      1  0.5454420000000  0.5820470000000  0.5494300000000 1.0
C      1  0.5907250000000  0.5619220000000  0.5562560000000 1.0
C      1  0.5550730000000  0.5546430000000  0.5890210000000 1.0
C      1  0.4326510000000  0.4070660000000  0.5428410000000 1.0
C      1  0.5569280000000  0.4287840000000  0.4511740000000 1.0
C      1  0.4502380000000  0.5854000000000  0.4514080000000 1.0
C      1  0.4191750000000  0.4399310000000  0.5601280000000 1.0
C      1  0.5943980000000  0.4371440000000  0.4403210000000 1.0
C      1  0.4160850000000  0.5558820000000  0.4364320000000 1.0
C      1  0.4485460000000  0.4258200000000  0.5831760000000 1.0
C      1  0.5544350000000  0.4390260000000  0.4126790000000 1.0
C      1  0.4591840000000  0.5449870000000  0.4168990000000 1.0
C      1  0.5757240000000  0.5815310000000  0.4452610000000 1.0
C      1  0.5651030000000  0.5441270000000  0.4529250000000 1.0
C      1  0.6044570000000  0.5447110000000  0.4287920000000 1.0
C      1  0.4471780000000  0.4288370000000  0.4522030000000 1.0
C      1  0.5512210000000  0.4241280000000  0.5447200000000 1.0
C      1  0.4527820000000  0.5725980000000  0.5438830000000 1.0
C      1  0.4243270000000  0.4576250000000  0.4371830000000 1.0
C      1  0.5856930000000  0.4446530000000  0.5470840000000 1.0
C      1  0.4118820000000  0.5572880000000  0.5668330000000 1.0
C      1  0.4455990000000  0.4303250000000  0.4019030000000 1.0
C      1  0.5589360000000  0.4470330000000  0.5859020000000 1.0
C      1  0.4520050000000  0.5618010000000  0.5922610000000 1.0
C      1  0.4169480000000  0.4713110000000  0.4880470000000 1.0
C      1  0.4680690000000  0.4718490000000  0.4160810000000 1.0
C      1  0.4852080000000  0.4281320000000  0.4643030000000 1.0
C      1  0.5739870000000  0.5400500000000  0.4914990000000 1.0
C      1  0.4207010000000  0.5280060000000  0.5412080000000 1.0
C      1  0.5738030000000  0.4677690000000  0.5069680000000 1.0
C      1  0.5378950000000  0.5221740000000  0.4310690000000 1.0
C      1  0.4745560000000  0.5173770000000  0.5787890000000 1.0
C      1  0.5270400000000  0.4789980000000  0.5703210000000 1.0
C      1  0.5127660000000  0.5711290000000  0.4573250000000 1.0
C      1  0.4856200000000  0.5647060000000  0.5211520000000 1.0
C      1  0.5019030000000  0.4272910000000  0.5379940000000 1.0
C      1  0.4302490000000  0.4657660000000  0.5177390000000 1.0
C      1  0.4713690000000  0.4845140000000  0.5846660000000 1.0
C      1  0.4715520000000  0.4158100000000  0.5400480000000 1.0
C      1  0.5791540000000  0.5415440000000  0.5240380000000 1.0
C      1  0.4169760000000  0.5365490000000  0.4855750000000 1.0
C      1  0.5816530000000  0.4653830000000  0.4739640000000 1.0
C      1  0.5324350000000  0.5121320000000  0.5644420000000 1.0
C      1  0.4655270000000  0.5036870000000  0.4282450000000 1.0
C      1  0.5274490000000  0.4915000000000  0.4328610000000 1.0
C      1  0.5098610000000  0.5842250000000  0.5156310000000 1.0
C      1  0.4834070000000  0.5837330000000  0.4567320000000 1.0
C      1  0.5178770000000  0.4227840000000  0.4567480000000 1.0
C      1  0.5259580000000  0.4015070000000  0.4826860000000 1.0
C      1  0.4034090000000  0.4816690000000  0.5239830000000 1.0
C      1  0.4838610000000  0.5188360000000  0.4039300000000 1.0
C      1  0.4760550000000  0.5957790000000  0.4857360000000 1.0
C      1  0.5029330000000  0.6023290000000  0.4947560000000 1.0
C      1  0.4824810000000  0.4037030000000  0.5111820000000 1.0
C      1  0.5981640000000  0.5172220000000  0.5131010000000 1.0
C      1  0.3977470000000  0.5217750000000  0.4984710000000 1.0
C      1  0.6001020000000  0.4885510000000  0.4856380000000 1.0
C      1  0.5183570000000  0.4836560000000  0.4050380000000 1.0
C      1  0.4887250000000  0.4819170000000  0.6122820000000 1.0
C      1  0.5249790000000  0.5103190000000  0.5949410000000 1.0
C      1  0.5162250000000  0.4068730000000  0.5148600000000 1.0
C      1  0.3921820000000  0.4913590000000  0.4945300000000 1.0
C      1  0.4952430000000  0.5114710000000  0.6016940000000 1.0
C      1  0.4621680000000  0.5807040000000  0.5059220000000 1.0
C      1  0.5223200000000  0.5984680000000  0.4736460000000 1.0
C      1  0.4939570000000  0.4031880000000  0.4819610000000 1.0
C      1  0.5971890000000  0.5182450000000  0.4802820000000 1.0
C      1  0.4049270000000  0.5118720000000  0.5262160000000 1.0
C      1  0.5999270000000  0.4863770000000  0.5173980000000 1.0
C      1  0.5190790000000  0.4798140000000  0.6033750000000 1.0
C      1  0.4890950000000  0.4881580000000  0.4001170000000 1.0
C      1  0.5154190000000  0.5175390000000  0.4058320000000 1.0
C      1  0.5226160000000  0.5470650000000  0.4782450000000 1.0
C      1  0.5486390000000  0.4843050000000  0.5170120000000 1.0
C      1  0.4833550000000  0.5079090000000  0.5501260000000 1.0
C      1  0.4795390000000  0.4515710000000  0.4867630000000 1.0
C      1  0.5112720000000  0.4460070000000  0.5122130000000 1.0
C      1  0.4855760000000  0.5373040000000  0.5049890000000 1.0
C      1  0.4693160000000  0.5174830000000  0.5221850000000 1.0
C      1  0.5576440000000  0.5124100000000  0.4817270000000 1.0
C      1  0.4538170000000  0.4950550000000  0.4907650000000 1.0
C      1  0.5179570000000  0.4805540000000  0.5311850000000 1.0
C      1  0.4782450000000  0.4900740000000  0.4700240000000 1.0
C      1  0.5129980000000  0.5203750000000  0.4658530000000 1.0
C      1  0.5167590000000  0.5297660000000  0.5044000000000 1.0
C      1  0.5329860000000  0.4906450000000  0.4874940000000 1.0
C      1  0.4835320000000  0.5190970000000  0.4526350000000 1.0
C      1  0.4835300000000  0.4652140000000  0.5164220000000 1.0
C      1  0.5104630000000  0.4657800000000  0.4873330000000 1.0
C      1  0.4693850000000  0.5334430000000  0.4789460000000 1.0
C      1  0.4402580000000  0.5214500000000  0.4762960000000 1.0
C      1  0.5458950000000  0.5180190000000  0.5135650000000 1.0
C      1  0.4571330000000  0.4857470000000  0.5230950000000 1.0
C      1  0.5107730000000  0.4868430000000  0.4606400000000 1.0
C      1  0.4892130000000  0.4777340000000  0.5453780000000 1.0
C      1  0.5105140000000  0.5128720000000  0.5312140000000 1.0
C      1  0.5423990000000  0.4559800000000  0.4468360000000 1.0
C      1  0.4600030000000  0.5393950000000  0.5426720000000 1.0
C      1  0.4471180000000  0.4566480000000  0.5699790000000 1.0
C      1  0.4346410000000  0.5358740000000  0.4274090000000 1.0
C      1  0.5381090000000  0.5514370000000  0.5597200000000 1.0
C      1  0.5375630000000  0.4543210000000  0.5408030000000 1.0
C      1  0.5479240000000  0.5654100000000  0.4392830000000 1.0
C      1  0.4544710000000  0.4620480000000  0.4522910000000 1.0
END
