TITL C-2622966-9038-125 -0.00204049009493683 125000 -651.411077846825 0 0 118 (C1) n - 1
REM
REM in /nfs/bkarasulu/CARBON/AIRSS/Generating-Clusters/AIREBO/with-SteepDescent/Higher-Symm/SD-CG/HFTN-CG
REM
REM
REM
REM
REM
REM ./C.cell (b20cbc046b6831c77cfcea5457e17084)
REM
REM compiler GCC version 9.2.1 20190827 (Red Hat 9.2.1-1)
REM options -cpp -mtune=generic -march=x86-64 -g -O0 -fpre-include=/usr/include/finclude/math-vector-fortran.h
REM seed 2071695893 -797049717 460470335 1657141455 -1093511318 241795610 -1132574835 1409572038 -1522435416 400018972 -1814690919 517563023 -1581228842 932849112 612340907 -1052498093 725512290 -1743880154 1931890498 1657010151 1658480838 533391878 136210451 -1278817621 -1266756024 899106112 749214213 437144583 1521224668 -509778595 -935611467 -849459812 -772138452
REM
CELL 1.54180   50.00000   50.00000   50.00000   90.00000   90.00000   90.00000
LATT -1
SFAC C  
C      1  0.4801440000000  0.5523240000000  0.4510150000000 1.0
C      1  0.4778780000000  0.4352020000000  0.4386800000000 1.0
C      1  0.4262900000000  0.5164240000000  0.5634240000000 1.0
C      1  0.4326230000000  0.4902190000000  0.5544300000000 1.0
C      1  0.5629680000000  0.5702730000000  0.4753840000000 1.0
C      1  0.5748450000000  0.4272620000000  0.4917750000000 1.0
C      1  0.4635300000000  0.4499500000000  0.4649940000000 1.0
C      1  0.4559290000000  0.5449070000000  0.4737070000000 1.0
C      1  0.5499620000000  0.4164790000000  0.4889680000000 1.0
C      1  0.5421150000000  0.5891050000000  0.4718680000000 1.0
C      1  0.4904980000000  0.5323620000000  0.4179870000000 1.0
C      1  0.4713400000000  0.4826700000000  0.4142000000000 1.0
C      1  0.5288290000000  0.5415120000000  0.4243560000000 1.0
C      1  0.5218670000000  0.4606030000000  0.4235630000000 1.0
C      1  0.4165330000000  0.5724960000000  0.5032630000000 1.0
C      1  0.4264720000000  0.4319650000000  0.5074560000000 1.0
C      1  0.5788120000000  0.4674070000000  0.5492350000000 1.0
C      1  0.5682510000000  0.4928720000000  0.5622010000000 1.0
C      1  0.4927430000000  0.4756960000000  0.5059620000000 1.0
C      1  0.5089910000000  0.5055720000000  0.5047480000000 1.0
C      1  0.5632250000000  0.4629820000000  0.4562660000000 1.0
C      1  0.5680950000000  0.5528050000000  0.4533490000000 1.0
C      1  0.5406230000000  0.4785590000000  0.4406430000000 1.0
C      1  0.5377170000000  0.5096690000000  0.4316620000000 1.0
C      1  0.4417760000000  0.4740120000000  0.5763450000000 1.0
C      1  0.4448330000000  0.5298970000000  0.5795150000000 1.0
C      1  0.5110760000000  0.5577980000000  0.5755570000000 1.0
C      1  0.5078500000000  0.4394810000000  0.5827450000000 1.0
C      1  0.5252810000000  0.5898690000000  0.5435430000000 1.0
C      1  0.5093330000000  0.4048550000000  0.5281130000000 1.0
C      1  0.4982290000000  0.4853590000000  0.5371220000000 1.0
C      1  0.4990680000000  0.5190950000000  0.5342930000000 1.0
C      1  0.4526320000000  0.4839200000000  0.4396700000000 1.0
C      1  0.4543300000000  0.5134850000000  0.4489200000000 1.0
C      1  0.4543620000000  0.4378380000000  0.4229490000000 1.0
C      1  0.4675300000000  0.5497050000000  0.4213130000000 1.0
C      1  0.4998930000000  0.5147570000000  0.5925130000000 1.0
C      1  0.4958250000000  0.4868940000000  0.5976770000000 1.0
C      1  0.3986720000000  0.4978130000000  0.5073850000000 1.0
C      1  0.4034260000000  0.5226100000000  0.5102380000000 1.0
C      1  0.5176990000000  0.4607800000000  0.5337420000000 1.0
C      1  0.5124500000000  0.5448930000000  0.5441270000000 1.0
C      1  0.5285160000000  0.4574790000000  0.5649090000000 1.0
C      1  0.5427160000000  0.5401850000000  0.5588880000000 1.0
C      1  0.5140600000000  0.4403470000000  0.5110510000000 1.0
C      1  0.5078120000000  0.5520770000000  0.5134910000000 1.0
C      1  0.5860020000000  0.5275530000000  0.5226810000000 1.0
C      1  0.5862420000000  0.4997990000000  0.5272060000000 1.0
C      1  0.5222950000000  0.5313420000000  0.5855920000000 1.0
C      1  0.5154590000000  0.4678780000000  0.5937180000000 1.0
C      1  0.5658540000000  0.5244800000000  0.4654100000000 1.0
C      1  0.5851010000000  0.5009490000000  0.4765090000000 1.0
C      1  0.4222670000000  0.4790920000000  0.4994180000000 1.0
C      1  0.4322370000000  0.5340880000000  0.4962820000000 1.0
C      1  0.4441780000000  0.4848480000000  0.5229020000000 1.0
C      1  0.4487070000000  0.5186290000000  0.5217920000000 1.0
C      1  0.5958660000000  0.4690060000000  0.5254160000000 1.0
C      1  0.5661060000000  0.5502210000000  0.5363040000000 1.0
C      1  0.5045220000000  0.4844460000000  0.4097970000000 1.0
C      1  0.5161760000000  0.5145880000000  0.4073840000000 1.0
C      1  0.4972370000000  0.5860010000000  0.5413380000000 1.0
C      1  0.4879730000000  0.4082850000000  0.5511620000000 1.0
C      1  0.4833860000000  0.5735090000000  0.5164020000000 1.0
C      1  0.4887700000000  0.4336980000000  0.5285870000000 1.0
C      1  0.5242790000000  0.5467890000000  0.4778340000000 1.0
C      1  0.5299460000000  0.4268530000000  0.4635070000000 1.0
C      1  0.5640940000000  0.5539740000000  0.5025330000000 1.0
C      1  0.5880450000000  0.4551690000000  0.4981410000000 1.0
C      1  0.4988910000000  0.4719190000000  0.4727190000000 1.0
C      1  0.5062890000000  0.5182320000000  0.4751390000000 1.0
C      1  0.5109580000000  0.4347230000000  0.4362660000000 1.0
C      1  0.5124240000000  0.5562580000000  0.4474060000000 1.0
C      1  0.4684200000000  0.4606650000000  0.5246060000000 1.0
C      1  0.4590120000000  0.5508660000000  0.5251530000000 1.0
C      1  0.5329720000000  0.4139900000000  0.5114170000000 1.0
C      1  0.5450090000000  0.5730670000000  0.5504640000000 1.0
C      1  0.4689220000000  0.5203890000000  0.5490770000000 1.0
C      1  0.4724550000000  0.4869360000000  0.5544040000000 1.0
C      1  0.5365880000000  0.5388020000000  0.5065670000000 1.0
C      1  0.5637780000000  0.4764670000000  0.4874760000000 1.0
C      1  0.5516500000000  0.5102640000000  0.5498480000000 1.0
C      1  0.5484560000000  0.4655600000000  0.5409210000000 1.0
C      1  0.6019150000000  0.4755850000000  0.4758180000000 1.0
C      1  0.5856620000000  0.5306500000000  0.4918060000000 1.0
C      1  0.4338490000000  0.4852870000000  0.4680410000000 1.0
C      1  0.4202990000000  0.5105180000000  0.4748760000000 1.0
C      1  0.4933610000000  0.5556200000000  0.4823380000000 1.0
C      1  0.5065420000000  0.4409930000000  0.4818340000000 1.0
C      1  0.5374190000000  0.5110500000000  0.4634690000000 1.0
C      1  0.5318360000000  0.4804970000000  0.4734420000000 1.0
C      1  0.4366480000000  0.4563260000000  0.4362170000000 1.0
C      1  0.4452520000000  0.5369570000000  0.4360570000000 1.0
C      1  0.4106440000000  0.5547010000000  0.4799880000000 1.0
C      1  0.4174860000000  0.4502950000000  0.4879290000000 1.0
C      1  0.4297660000000  0.4459710000000  0.4633670000000 1.0
C      1  0.4286150000000  0.5530750000000  0.4551680000000 1.0
C      1  0.4747780000000  0.5244510000000  0.5823320000000 1.0
C      1  0.4701050000000  0.4800700000000  0.5869790000000 1.0
C      1  0.5580600000000  0.4864260000000  0.5184080000000 1.0
C      1  0.5380010000000  0.5104900000000  0.5195290000000 1.0
C      1  0.4441170000000  0.5735720000000  0.5089360000000 1.0
C      1  0.4544000000000  0.4338750000000  0.5090390000000 1.0
C      1  0.4924540000000  0.4844560000000  0.4415840000000 1.0
C      1  0.4975730000000  0.5157830000000  0.4426400000000 1.0
C      1  0.5008310000000  0.4045430000000  0.4482300000000 1.0
C      1  0.5160240000000  0.5839640000000  0.4658520000000 1.0
C      1  0.4877670000000  0.5702590000000  0.5627490000000 1.0
C      1  0.4850650000000  0.4325090000000  0.5683780000000 1.0
C      1  0.5599360000000  0.4356380000000  0.4554420000000 1.0
C      1  0.5576200000000  0.5549440000000  0.4281580000000 1.0
C      1  0.4900010000000  0.5884280000000  0.4865620000000 1.0
C      1  0.4918190000000  0.4127610000000  0.4736340000000 1.0
C      1  0.4690170000000  0.4277180000000  0.4857120000000 1.0
C      1  0.4596110000000  0.5767780000000  0.4847130000000 1.0
C      1  0.4665420000000  0.5537220000000  0.5558590000000 1.0
C      1  0.4697690000000  0.4532410000000  0.5577700000000 1.0
C      1  0.4665780000000  0.4818030000000  0.4766110000000 1.0
C      1  0.4724230000000  0.5152450000000  0.4759110000000 1.0
END
