TITL C-2622958-629-296 -0.00096931663394134 125000 -818.997448580023 0 0 149 (C1) n - 1
REM
REM in /nfs/bkarasulu/CARBON/AIRSS/Generating-Clusters/AIREBO/with-SteepDescent/Higher-Symm/SD-CG/HFTN-CG
REM
REM
REM
REM
REM
REM ./C.cell (b20cbc046b6831c77cfcea5457e17084)
REM
REM compiler GCC version 9.2.1 20190827 (Red Hat 9.2.1-1)
REM options -cpp -mtune=generic -march=x86-64 -g -O0 -fpre-include=/usr/include/finclude/math-vector-fortran.h
REM seed -789649143 558619875 -505793679 895642330 1035462451 440115816 -213993226 2104331610 1765810126 -1466131604 1147662187 -604155035 -309838166 434378573 2059098708 1444444827 2104338493 1813061477 611411346 -1745242870 1144600820 638353276 -327128555 -1414138136 -887242354 -393799991 -398327907 21654845 1683999698 -745565985 -333782621 -436979444 1483614759
REM
CELL 1.54180   50.00000   50.00000   50.00000   90.00000   90.00000   90.00000
LATT -1
SFAC C  
C      1  0.4513090000000  0.4720350000000  0.4429230000000 1.0
C      1  0.4557980000000  0.5512090000000  0.4595060000000 1.0
C      1  0.4448000000000  0.5641570000000  0.5359420000000 1.0
C      1  0.4545780000000  0.4813450000000  0.5663050000000 1.0
C      1  0.4504080000000  0.4351780000000  0.5133880000000 1.0
C      1  0.4872310000000  0.4861290000000  0.5578670000000 1.0
C      1  0.4832270000000  0.4428770000000  0.5081050000000 1.0
C      1  0.4838340000000  0.4740450000000  0.4492090000000 1.0
C      1  0.4844860000000  0.5421380000000  0.4499910000000 1.0
C      1  0.4869380000000  0.5485400000000  0.5304320000000 1.0
C      1  0.5592440000000  0.4958540000000  0.5283620000000 1.0
C      1  0.5537110000000  0.4703230000000  0.4980740000000 1.0
C      1  0.5457400000000  0.4799970000000  0.4667340000000 1.0
C      1  0.5420390000000  0.5240000000000  0.4854450000000 1.0
C      1  0.5536460000000  0.5333620000000  0.5158900000000 1.0
C      1  0.5959750000000  0.4877440000000  0.4453370000000 1.0
C      1  0.5938440000000  0.5524790000000  0.4692730000000 1.0
C      1  0.5860360000000  0.5247080000000  0.5215510000000 1.0
C      1  0.5803700000000  0.4835360000000  0.5475400000000 1.0
C      1  0.5873080000000  0.4651030000000  0.4987890000000 1.0
C      1  0.5091020000000  0.4720750000000  0.5274900000000 1.0
C      1  0.4996840000000  0.4736460000000  0.4886920000000 1.0
C      1  0.5038070000000  0.5171200000000  0.4739720000000 1.0
C      1  0.5026260000000  0.5419840000000  0.4946310000000 1.0
C      1  0.5073870000000  0.5028020000000  0.5188690000000 1.0
C      1  0.5140970000000  0.5459690000000  0.5443220000000 1.0
C      1  0.5185510000000  0.4728820000000  0.5583440000000 1.0
C      1  0.5157820000000  0.4453830000000  0.4985940000000 1.0
C      1  0.5153050000000  0.4844760000000  0.4415860000000 1.0
C      1  0.5105180000000  0.5565100000000  0.4665270000000 1.0
C      1  0.5021610000000  0.4411380000000  0.6068500000000 1.0
C      1  0.5039750000000  0.3845540000000  0.4781050000000 1.0
C      1  0.4979660000000  0.4867770000000  0.3809800000000 1.0
C      1  0.5017490000000  0.6087220000000  0.4459420000000 1.0
C      1  0.4910610000000  0.5718240000000  0.5849150000000 1.0
C      1  0.5084150000000  0.5885730000000  0.4971960000000 1.0
C      1  0.5039730000000  0.5272870000000  0.5850000000000 1.0
C      1  0.5032200000000  0.4255640000000  0.5535110000000 1.0
C      1  0.5018410000000  0.4271170000000  0.4452320000000 1.0
C      1  0.5016940000000  0.5280670000000  0.4104130000000 1.0
C      1  0.5560500000000  0.5501780000000  0.4482380000000 1.0
C      1  0.5660070000000  0.5628080000000  0.5397920000000 1.0
C      1  0.5587790000000  0.4840700000000  0.5810280000000 1.0
C      1  0.5625910000000  0.4264070000000  0.5135860000000 1.0
C      1  0.5582380000000  0.4668270000000  0.4312230000000 1.0
C      1  0.5762670000000  0.4506310000000  0.4715910000000 1.0
C      1  0.5781550000000  0.5099280000000  0.4424680000000 1.0
C      1  0.5752490000000  0.5623030000000  0.4892160000000 1.0
C      1  0.5761080000000  0.5229440000000  0.5527770000000 1.0
C      1  0.5814060000000  0.4543340000000  0.5468060000000 1.0
C      1  0.4750700000000  0.4038190000000  0.5106920000000 1.0
C      1  0.4719130000000  0.4606790000000  0.4107530000000 1.0
C      1  0.4754790000000  0.5742930000000  0.4280260000000 1.0
C      1  0.4754610000000  0.5891190000000  0.5392510000000 1.0
C      1  0.4770990000000  0.4798030000000  0.5989660000000 1.0
C      1  0.5275690000000  0.5712140000000  0.4307190000000 1.0
C      1  0.5226130000000  0.5840920000000  0.5519530000000 1.0
C      1  0.5295160000000  0.4814510000000  0.5955040000000 1.0
C      1  0.5272200000000  0.4090660000000  0.5107160000000 1.0
C      1  0.5235800000000  0.4600830000000  0.4101650000000 1.0
C      1  0.4805050000000  0.4510970000000  0.4741750000000 1.0
C      1  0.4839650000000  0.5080530000000  0.4489170000000 1.0
C      1  0.4717340000000  0.5501400000000  0.5003730000000 1.0
C      1  0.4876480000000  0.5167740000000  0.5427010000000 1.0
C      1  0.4823060000000  0.4584400000000  0.5383260000000 1.0
C      1  0.3949820000000  0.5105400000000  0.4536440000000 1.0
C      1  0.3881620000000  0.5427290000000  0.4913690000000 1.0
C      1  0.3998200000000  0.5184900000000  0.5396750000000 1.0
C      1  0.3910750000000  0.4671030000000  0.5298240000000 1.0
C      1  0.3881310000000  0.4634250000000  0.4782250000000 1.0
C      1  0.5369840000000  0.5078780000000  0.5742190000000 1.0
C      1  0.5386470000000  0.4289280000000  0.5353780000000 1.0
C      1  0.5355290000000  0.4468370000000  0.4375380000000 1.0
C      1  0.5353770000000  0.5381380000000  0.4287310000000 1.0
C      1  0.5403770000000  0.5732000000000  0.5315180000000 1.0
C      1  0.4677540000000  0.5676330000000  0.5611150000000 1.0
C      1  0.4792700000000  0.4518030000000  0.5938770000000 1.0
C      1  0.4795360000000  0.3985260000000  0.4830640000000 1.0
C      1  0.4754720000000  0.4861080000000  0.3986900000000 1.0
C      1  0.4798410000000  0.5910360000000  0.4501010000000 1.0
C      1  0.5463910000000  0.4980070000000  0.4378920000000 1.0
C      1  0.5432040000000  0.5578200000000  0.4783490000000 1.0
C      1  0.5451720000000  0.5373660000000  0.5485800000000 1.0
C      1  0.5500470000000  0.4599600000000  0.5586990000000 1.0
C      1  0.5468670000000  0.4391670000000  0.4862750000000 1.0
C      1  0.5288370000000  0.5554640000000  0.5086680000000 1.0
C      1  0.5319940000000  0.5066950000000  0.5420920000000 1.0
C      1  0.5392740000000  0.4608420000000  0.5264600000000 1.0
C      1  0.5184140000000  0.4604650000000  0.4635610000000 1.0
C      1  0.5302720000000  0.5209560000000  0.4571210000000 1.0
C      1  0.5328340000000  0.4322040000000  0.5684180000000 1.0
C      1  0.5313710000000  0.4228880000000  0.4608780000000 1.0
C      1  0.5303630000000  0.5100470000000  0.4102420000000 1.0
C      1  0.5313620000000  0.5889930000000  0.4767990000000 1.0
C      1  0.5347620000000  0.5411620000000  0.5807940000000 1.0
C      1  0.5013070000000  0.5791550000000  0.5265250000000 1.0
C      1  0.5013010000000  0.4959780000000  0.5872270000000 1.0
C      1  0.5001800000000  0.4181230000000  0.5241220000000 1.0
C      1  0.4972980000000  0.4518490000000  0.4272300000000 1.0
C      1  0.5002590000000  0.5561980000000  0.4238580000000 1.0
C      1  0.4223680000000  0.5434030000000  0.5434420000000 1.0
C      1  0.4302190000000  0.4731670000000  0.5576610000000 1.0
C      1  0.4258440000000  0.4336580000000  0.4922890000000 1.0
C      1  0.4275760000000  0.4925500000000  0.4398010000000 1.0
C      1  0.4232070000000  0.5608130000000  0.4607880000000 1.0
C      1  0.4387050000000  0.5284410000000  0.4781130000000 1.0
C      1  0.4386340000000  0.5462310000000  0.5071280000000 1.0
C      1  0.4383300000000  0.4941380000000  0.5219510000000 1.0
C      1  0.4293440000000  0.4618250000000  0.5195500000000 1.0
C      1  0.4388650000000  0.4775260000000  0.4743510000000 1.0
C      1  0.4528490000000  0.4071190000000  0.5305170000000 1.0
C      1  0.4491270000000  0.4457550000000  0.4230330000000 1.0
C      1  0.4515180000000  0.5587940000000  0.4266380000000 1.0
C      1  0.4538490000000  0.5928120000000  0.5199820000000 1.0
C      1  0.4536870000000  0.4985120000000  0.5930970000000 1.0
C      1  0.4097300000000  0.4901190000000  0.5398950000000 1.0
C      1  0.4011080000000  0.4515940000000  0.5035800000000 1.0
C      1  0.4070000000000  0.4816360000000  0.4631930000000 1.0
C      1  0.4064880000000  0.5348790000000  0.4681150000000 1.0
C      1  0.4059460000000  0.5412860000000  0.5151150000000 1.0
C      1  0.5813950000000  0.4630660000000  0.4472330000000 1.0
C      1  0.5806740000000  0.5366410000000  0.4492770000000 1.0
C      1  0.5845030000000  0.5580860000000  0.5164120000000 1.0
C      1  0.5841240000000  0.5014450000000  0.5719400000000 1.0
C      1  0.5841880000000  0.4434210000000  0.5212940000000 1.0
C      1  0.4308490000000  0.4456030000000  0.5481850000000 1.0
C      1  0.4350750000000  0.4458500000000  0.4686890000000 1.0
C      1  0.4366590000000  0.5180330000000  0.4457880000000 1.0
C      1  0.4345250000000  0.5724130000000  0.4858220000000 1.0
C      1  0.4386900000000  0.5162960000000  0.5479040000000 1.0
C      1  0.4789950000000  0.5378200000000  0.5679720000000 1.0
C      1  0.4761300000000  0.4391460000000  0.5650660000000 1.0
C      1  0.4758840000000  0.4207270000000  0.4624130000000 1.0
C      1  0.4753920000000  0.5116510000000  0.4162090000000 1.0
C      1  0.4839190000000  0.5737540000000  0.4791510000000 1.0
C      1  0.5254820000000  0.4494680000000  0.5951100000000 1.0
C      1  0.5267120000000  0.4007950000000  0.4837680000000 1.0
C      1  0.5223830000000  0.4840870000000  0.3953310000000 1.0
C      1  0.5260260000000  0.5939850000000  0.4487500000000 1.0
C      1  0.5172210000000  0.5699100000000  0.5761020000000 1.0
C      1  0.4520190000000  0.5294990000000  0.4262160000000 1.0
C      1  0.4566690000000  0.5894910000000  0.4920590000000 1.0
C      1  0.4539530000000  0.5205680000000  0.5720620000000 1.0
C      1  0.4503430000000  0.4271140000000  0.5525630000000 1.0
C      1  0.4501590000000  0.4327670000000  0.4499660000000 1.0
C      1  0.4836300000000  0.4998290000000  0.4947190000000 1.0
C      1  0.5852080000000  0.4940610000000  0.5093430000000 1.0
C      1  0.5372080000000  0.4996170000000  0.5031250000000 1.0
C      1  0.4512680000000  0.5003330000000  0.4928270000000 1.0
END
