TITL C-2622965-4321-144 -0.00242587746692599 125000 -320.493910995602 0 0 59 (C1) n - 1
REM
REM in /nfs/bkarasulu/CARBON/AIRSS/Generating-Clusters/AIREBO/with-SteepDescent/Higher-Symm/SD-CG/HFTN-CG
REM
REM
REM
REM
REM
REM ./C.cell (b20cbc046b6831c77cfcea5457e17084)
REM
REM compiler GCC version 9.2.1 20190827 (Red Hat 9.2.1-1)
REM options -cpp -mtune=generic -march=x86-64 -g -O0 -fpre-include=/usr/include/finclude/math-vector-fortran.h
REM seed 948434622 -1115799007 169417655 1115428898 -309814857 -1191608413 629892747 -2143849221 -1353307482 -832930385 1276238433 1430124568 810351619 1046593753 778207677 -1183241018 -850321653 1963678394 378848233 102214720 -934201801 -780713162 1526538377 -1350822805 611764736 -950789393 -317883630 976036974 143715509 1565687553 2007006470 -1200496881 1744708583
REM
CELL 1.54180   50.00000   50.00000   50.00000   90.00000   90.00000   90.00000
LATT -1
SFAC C  
C      1  0.5231580000000  0.4391580000000  0.5383310000000 1.0
C      1  0.4390690000000  0.5137460000000  0.5367540000000 1.0
C      1  0.5404810000000  0.5481890000000  0.5379440000000 1.0
C      1  0.5356540000000  0.4416300000000  0.4593860000000 1.0
C      1  0.4414450000000  0.5049630000000  0.4620390000000 1.0
C      1  0.5225280000000  0.5444410000000  0.4549570000000 1.0
C      1  0.5158850000000  0.4490360000000  0.5066200000000 1.0
C      1  0.4430720000000  0.5120850000000  0.5029800000000 1.0
C      1  0.5362250000000  0.5365690000000  0.5061930000000 1.0
C      1  0.5111430000000  0.4391670000000  0.4766260000000 1.0
C      1  0.4470960000000  0.5325440000000  0.4776150000000 1.0
C      1  0.5404740000000  0.5280400000000  0.4747530000000 1.0
C      1  0.5180840000000  0.5683840000000  0.4736780000000 1.0
C      1  0.5607790000000  0.4456400000000  0.4772050000000 1.0
C      1  0.4253130000000  0.4872880000000  0.4771350000000 1.0
C      1  0.5260140000000  0.5721650000000  0.5205920000000 1.0
C      1  0.5518550000000  0.4421650000000  0.5223920000000 1.0
C      1  0.4234220000000  0.4857760000000  0.5253840000000 1.0
C      1  0.5445620000000  0.4888850000000  0.5375140000000 1.0
C      1  0.4673750000000  0.4649320000000  0.5316550000000 1.0
C      1  0.4862870000000  0.5476920000000  0.5359140000000 1.0
C      1  0.5425470000000  0.4944030000000  0.4701370000000 1.0
C      1  0.4683770000000  0.4649620000000  0.4701720000000 1.0
C      1  0.4751850000000  0.5428780000000  0.4751180000000 1.0
C      1  0.5307150000000  0.4522700000000  0.5658100000000 1.0
C      1  0.4414420000000  0.4934240000000  0.5611540000000 1.0
C      1  0.5249840000000  0.5510650000000  0.5648290000000 1.0
C      1  0.5354410000000  0.4484820000000  0.4259320000000 1.0
C      1  0.4858060000000  0.5041490000000  0.4422370000000 1.0
C      1  0.5092380000000  0.5498840000000  0.4241380000000 1.0
C      1  0.4946570000000  0.5213340000000  0.4873310000000 1.0
C      1  0.5218750000000  0.4755810000000  0.4890320000000 1.0
C      1  0.4864170000000  0.4886100000000  0.4832120000000 1.0
C      1  0.5051720000000  0.5292230000000  0.5159090000000 1.0
C      1  0.5190190000000  0.4808330000000  0.5203430000000 1.0
C      1  0.4693070000000  0.4920130000000  0.5111190000000 1.0
C      1  0.4583620000000  0.4746770000000  0.5599570000000 1.0
C      1  0.4996840000000  0.5507150000000  0.5637180000000 1.0
C      1  0.5419940000000  0.4750580000000  0.5651830000000 1.0
C      1  0.4630170000000  0.4908200000000  0.4509280000000 1.0
C      1  0.4910100000000  0.5344720000000  0.4483990000000 1.0
C      1  0.5429070000000  0.4719550000000  0.4458320000000 1.0
C      1  0.4851680000000  0.4396250000000  0.4675070000000 1.0
C      1  0.4256000000000  0.5536270000000  0.4737030000000 1.0
C      1  0.5694950000000  0.5157260000000  0.4628970000000 1.0
C      1  0.4897260000000  0.4435460000000  0.5338400000000 1.0
C      1  0.4568580000000  0.5395780000000  0.5374120000000 1.0
C      1  0.5532860000000  0.5182460000000  0.5370930000000 1.0
C      1  0.5616520000000  0.4728340000000  0.4882150000000 1.0
C      1  0.4415790000000  0.4652510000000  0.4869200000000 1.0
C      1  0.4929610000000  0.5660290000000  0.4877780000000 1.0
C      1  0.5572870000000  0.4699440000000  0.5163920000000 1.0
C      1  0.4404990000000  0.4647210000000  0.5152500000000 1.0
C      1  0.4978070000000  0.5684860000000  0.5156260000000 1.0
C      1  0.5621270000000  0.4273330000000  0.4998920000000 1.0
C      1  0.5389630000000  0.5680000000000  0.4935070000000 1.0
C      1  0.4113620000000  0.5000150000000  0.5006990000000 1.0
C      1  0.5102820000000  0.5030170000000  0.4637160000000 1.0
C      1  0.4971840000000  0.5003740000000  0.5230950000000 1.0
END
