TITL C-2622965-4321-100 -0.00223457105395207 125000 -255.982751599187 0 0 48 (C1) n - 1
REM
REM in /nfs/bkarasulu/CARBON/AIRSS/Generating-Clusters/AIREBO/with-SteepDescent/Higher-Symm/SD-CG/HFTN-CG
REM
REM
REM
REM
REM
REM ./C.cell (b20cbc046b6831c77cfcea5457e17084)
REM
REM compiler GCC version 9.2.1 20190827 (Red Hat 9.2.1-1)
REM options -cpp -mtune=generic -march=x86-64 -g -O0 -fpre-include=/usr/include/finclude/math-vector-fortran.h
REM seed -2109398964 -2058035830 -25302479 -2012559779 -153874553 -92621227 -1912530990 -2010568824 580380309 193733260 -867124828 -644713487 1221474900 1157673369 246534076 1113532038 -1967355448 1336265509 -1880460842 1647328149 1893664375 -878497881 972596629 -402376763 -165366023 -118987573 -832078487 -2071018573 427876662 1351610477 1853848854 1331937820 -767934711
REM
CELL 1.54180   50.00000   50.00000   50.00000   90.00000   90.00000   90.00000
LATT -1
SFAC C  
C      1  0.5156980000000  0.5594930000000  0.5206480000000 1.0
C      1  0.5701500000000  0.4846160000000  0.5715430000000 1.0
C      1  0.5080300000000  0.5157100000000  0.5510760000000 1.0
C      1  0.5532010000000  0.4375340000000  0.5540780000000 1.0
C      1  0.4735070000000  0.4716090000000  0.5632920000000 1.0
C      1  0.4667540000000  0.5429010000000  0.4504740000000 1.0
C      1  0.4976240000000  0.5551680000000  0.4425080000000 1.0
C      1  0.4492790000000  0.4853280000000  0.4475720000000 1.0
C      1  0.4607620000000  0.4513090000000  0.4861620000000 1.0
C      1  0.5449920000000  0.5690970000000  0.4537200000000 1.0
C      1  0.5379770000000  0.4193060000000  0.5322120000000 1.0
C      1  0.4224460000000  0.4971220000000  0.4836390000000 1.0
C      1  0.5627880000000  0.4613050000000  0.5620850000000 1.0
C      1  0.4238660000000  0.4404890000000  0.5164240000000 1.0
C      1  0.4389130000000  0.5334500000000  0.4550240000000 1.0
C      1  0.5520990000000  0.5405480000000  0.4409390000000 1.0
C      1  0.4406930000000  0.5064120000000  0.5256050000000 1.0
C      1  0.5002710000000  0.4912180000000  0.5594070000000 1.0
C      1  0.4872960000000  0.5498070000000  0.5046650000000 1.0
C      1  0.4351870000000  0.5062780000000  0.4602210000000 1.0
C      1  0.5766790000000  0.5322230000000  0.4965430000000 1.0
C      1  0.4184570000000  0.5516990000000  0.4557730000000 1.0
C      1  0.5434210000000  0.5706790000000  0.4815450000000 1.0
C      1  0.4332450000000  0.4876490000000  0.5075140000000 1.0
C      1  0.5468570000000  0.5522220000000  0.5323270000000 1.0
C      1  0.4408280000000  0.5341540000000  0.5422100000000 1.0
C      1  0.5461790000000  0.5454010000000  0.4990240000000 1.0
C      1  0.4444810000000  0.4592500000000  0.5111340000000 1.0
C      1  0.5205310000000  0.5425310000000  0.5495680000000 1.0
C      1  0.5233670000000  0.5543850000000  0.4354300000000 1.0
C      1  0.4758300000000  0.5264810000000  0.4264070000000 1.0
C      1  0.5769880000000  0.5430770000000  0.5240270000000 1.0
C      1  0.4853240000000  0.5589950000000  0.4732070000000 1.0
C      1  0.5565060000000  0.4053970000000  0.5547280000000 1.0
C      1  0.5839520000000  0.5218050000000  0.4720990000000 1.0
C      1  0.5027070000000  0.3715580000000  0.4595450000000 1.0
C      1  0.4960870000000  0.4649080000000  0.5399150000000 1.0
C      1  0.4669810000000  0.5236630000000  0.5264010000000 1.0
C      1  0.4815970000000  0.4336270000000  0.4891680000000 1.0
C      1  0.4974980000000  0.5239720000000  0.5226570000000 1.0
C      1  0.5216940000000  0.5251030000000  0.5011600000000 1.0
C      1  0.5028330000000  0.5782820000000  0.4953010000000 1.0
C      1  0.5187900000000  0.4161040000000  0.5137140000000 1.0
C      1  0.4644240000000  0.4608430000000  0.5334750000000 1.0
C      1  0.5762520000000  0.5282940000000  0.4463990000000 1.0
C      1  0.4536440000000  0.4623100000000  0.4617480000000 1.0
C      1  0.5025830000000  0.3927960000000  0.4749050000000 1.0
C      1  0.5007310000000  0.4138940000000  0.4927820000000 1.0
END
