TITL C-2622967-6265-411 0.00140455443640076 125000 -675.010685255664 0 0 133 (C1) n - 1
REM
REM in /nfs/bkarasulu/CARBON/AIRSS/Generating-Clusters/AIREBO/with-SteepDescent/Higher-Symm/SD-CG/HFTN-CG
REM
REM
REM
REM
REM
REM ./C.cell (b20cbc046b6831c77cfcea5457e17084)
REM
REM compiler GCC version 9.2.1 20190827 (Red Hat 9.2.1-1)
REM options -cpp -mtune=generic -march=x86-64 -g -O0 -fpre-include=/usr/include/finclude/math-vector-fortran.h
REM seed 1879764752 388263532 -1584180183 2044816298 -1772519487 1866194306 913909225 -655974836 427553799 216036914 -1092890704 1596996661 875295267 -1330286092 -1232879610 110972108 -949868174 -1454931358 -1227922087 -942932762 276839869 -1817824392 -943727621 665257526 455176057 538194427 1672204710 -1419716755 1559643959 -787827029 -463116513 1046672279 -109018803
REM
CELL 1.54180   50.00000   50.00000   50.00000   90.00000   90.00000   90.00000
LATT -1
SFAC C  
C      1  0.4697800000000  0.5466750000000  0.4505280000000 1.0
C      1  0.4379390000000  0.4842890000000  0.4529390000000 1.0
C      1  0.4909810000000  0.4360440000000  0.4404250000000 1.0
C      1  0.5556160000000  0.4731590000000  0.4607380000000 1.0
C      1  0.5420730000000  0.5470450000000  0.4521020000000 1.0
C      1  0.4473610000000  0.4529430000000  0.4199120000000 1.0
C      1  0.5257420000000  0.4480330000000  0.4254210000000 1.0
C      1  0.5585720000000  0.5066560000000  0.4276630000000 1.0
C      1  0.5094060000000  0.5581150000000  0.4208740000000 1.0
C      1  0.4401980000000  0.5232900000000  0.4199940000000 1.0
C      1  0.4316190000000  0.5285310000000  0.5593630000000 1.0
C      1  0.4464960000000  0.4405650000000  0.5636060000000 1.0
C      1  0.5335570000000  0.4312520000000  0.5559950000000 1.0
C      1  0.5785790000000  0.5197750000000  0.5624530000000 1.0
C      1  0.5019590000000  0.5729100000000  0.5597140000000 1.0
C      1  0.4192670000000  0.5285230000000  0.5275570000000 1.0
C      1  0.4431360000000  0.4337510000000  0.5301220000000 1.0
C      1  0.5440790000000  0.4252160000000  0.5239920000000 1.0
C      1  0.5848610000000  0.5245400000000  0.5278500000000 1.0
C      1  0.5031440000000  0.5841750000000  0.5276410000000 1.0
C      1  0.4258620000000  0.4433000000000  0.4793920000000 1.0
C      1  0.5249670000000  0.4138990000000  0.4770950000000 1.0
C      1  0.5958280000000  0.4996610000000  0.4804640000000 1.0
C      1  0.5298980000000  0.5876780000000  0.4774320000000 1.0
C      1  0.4257020000000  0.5551010000000  0.4829530000000 1.0
C      1  0.5224480000000  0.5073610000000  0.5944810000000 1.0
C      1  0.5004930000000  0.5262460000000  0.6006490000000 1.0
C      1  0.4764010000000  0.5084620000000  0.6023470000000 1.0
C      1  0.4833210000000  0.4803820000000  0.5945800000000 1.0
C      1  0.5122030000000  0.4810210000000  0.5908210000000 1.0
C      1  0.5525590000000  0.4172720000000  0.4970830000000 1.0
C      1  0.5965460000000  0.5276770000000  0.5000170000000 1.0
C      1  0.5050080000000  0.5975520000000  0.4985060000000 1.0
C      1  0.4057210000000  0.5313790000000  0.4972720000000 1.0
C      1  0.4423030000000  0.4213760000000  0.4995280000000 1.0
C      1  0.5024140000000  0.4811800000000  0.4747830000000 1.0
C      1  0.5316760000000  0.4965880000000  0.4667990000000 1.0
C      1  0.5192540000000  0.5282050000000  0.4688640000000 1.0
C      1  0.4855980000000  0.5274810000000  0.4737240000000 1.0
C      1  0.4700940000000  0.4841770000000  0.4646000000000 1.0
C      1  0.5805510000000  0.5539740000000  0.4855070000000 1.0
C      1  0.4747180000000  0.5951890000000  0.4832140000000 1.0
C      1  0.4117420000000  0.5001590000000  0.4851100000000 1.0
C      1  0.4641970000000  0.4063760000000  0.4854120000000 1.0
C      1  0.5757370000000  0.4394050000000  0.4856980000000 1.0
C      1  0.5300550000000  0.4980160000000  0.4328530000000 1.0
C      1  0.5053430000000  0.5289220000000  0.4378450000000 1.0
C      1  0.4680760000000  0.5152170000000  0.4377100000000 1.0
C      1  0.4707580000000  0.4738460000000  0.4330180000000 1.0
C      1  0.5074220000000  0.4655240000000  0.4453150000000 1.0
C      1  0.4916580000000  0.5399980000000  0.5244220000000 1.0
C      1  0.4742510000000  0.5001630000000  0.5172010000000 1.0
C      1  0.4915640000000  0.4646290000000  0.5216930000000 1.0
C      1  0.5265330000000  0.4801910000000  0.5189720000000 1.0
C      1  0.5238820000000  0.5181970000000  0.5161950000000 1.0
C      1  0.4981420000000  0.5491580000000  0.5837760000000 1.0
C      1  0.4505450000000  0.5194560000000  0.5871140000000 1.0
C      1  0.4685900000000  0.4618030000000  0.5790220000000 1.0
C      1  0.5230370000000  0.4603210000000  0.5700930000000 1.0
C      1  0.5504810000000  0.5159290000000  0.5828330000000 1.0
C      1  0.4995540000000  0.4301360000000  0.5595980000000 1.0
C      1  0.5926280000000  0.4761750000000  0.5542620000000 1.0
C      1  0.5491580000000  0.5740930000000  0.5684440000000 1.0
C      1  0.4525380000000  0.5624840000000  0.5612380000000 1.0
C      1  0.4209070000000  0.4789460000000  0.5606980000000 1.0
C      1  0.5125280000000  0.5445450000000  0.4979470000000 1.0
C      1  0.4675980000000  0.5301040000000  0.5025240000000 1.0
C      1  0.4700200000000  0.4732690000000  0.4968250000000 1.0
C      1  0.5141470000000  0.4583260000000  0.4970620000000 1.0
C      1  0.5452850000000  0.4991520000000  0.4978710000000 1.0
C      1  0.4765850000000  0.3944470000000  0.5373680000000 1.0
C      1  0.5873050000000  0.4513260000000  0.5505840000000 1.0
C      1  0.5850870000000  0.5760810000000  0.5367190000000 1.0
C      1  0.4583390000000  0.6069540000000  0.5360440000000 1.0
C      1  0.3923010000000  0.4857020000000  0.5336780000000 1.0
C      1  0.4939930000000  0.4744910000000  0.4005440000000 1.0
C      1  0.5170440000000  0.4909790000000  0.4021800000000 1.0
C      1  0.5131840000000  0.5218220000000  0.4055320000000 1.0
C      1  0.4799330000000  0.5230110000000  0.4062490000000 1.0
C      1  0.4658610000000  0.4924290000000  0.4049690000000 1.0
C      1  0.4772800000000  0.4435780000000  0.4851830000000 1.0
C      1  0.5473960000000  0.4577280000000  0.4899090000000 1.0
C      1  0.5573960000000  0.5307400000000  0.4944620000000 1.0
C      1  0.4854860000000  0.5637370000000  0.4903780000000 1.0
C      1  0.4409290000000  0.5145400000000  0.4949950000000 1.0
C      1  0.4306430000000  0.5295740000000  0.4664070000000 1.0
C      1  0.4525310000000  0.4390480000000  0.4656360000000 1.0
C      1  0.5406560000000  0.4363160000000  0.4650200000000 1.0
C      1  0.5747880000000  0.5184970000000  0.4686560000000 1.0
C      1  0.5047640000000  0.5758730000000  0.4654180000000 1.0
C      1  0.5846590000000  0.4716730000000  0.4783700000000 1.0
C      1  0.5522720000000  0.5681640000000  0.4730440000000 1.0
C      1  0.4560340000000  0.5674350000000  0.4737410000000 1.0
C      1  0.4182900000000  0.4716980000000  0.4741760000000 1.0
C      1  0.4920560000000  0.4174800000000  0.4691430000000 1.0
C      1  0.4936050000000  0.5667800000000  0.4428000000000 1.0
C      1  0.4289790000000  0.5132310000000  0.4451260000000 1.0
C      1  0.4603800000000  0.4359760000000  0.4400630000000 1.0
C      1  0.5488270000000  0.4467850000000  0.4397860000000 1.0
C      1  0.5648320000000  0.5273230000000  0.4447320000000 1.0
C      1  0.5533800000000  0.5425990000000  0.5619300000000 1.0
C      1  0.4815300000000  0.5464060000000  0.5536730000000 1.0
C      1  0.4465260000000  0.4980110000000  0.5610320000000 1.0
C      1  0.4749110000000  0.4502800000000  0.5476390000000 1.0
C      1  0.5409730000000  0.4688870000000  0.5438070000000 1.0
C      1  0.4601580000000  0.5616020000000  0.5129810000000 1.0
C      1  0.4393720000000  0.4833010000000  0.5076460000000 1.0
C      1  0.4996600000000  0.4289400000000  0.5061880000000 1.0
C      1  0.5650020000000  0.4757450000000  0.5127600000000 1.0
C      1  0.5417510000000  0.5537940000000  0.5127040000000 1.0
C      1  0.5696680000000  0.4963930000000  0.5394230000000 1.0
C      1  0.5301840000000  0.5678030000000  0.5414540000000 1.0
C      1  0.4460800000000  0.5461420000000  0.5348770000000 1.0
C      1  0.4330650000000  0.4635670000000  0.5339930000000 1.0
C      1  0.5135920000000  0.4172030000000  0.5323230000000 1.0
C      1  0.5680580000000  0.5508740000000  0.5331870000000 1.0
C      1  0.4719360000000  0.5871170000000  0.5259050000000 1.0
C      1  0.4140410000000  0.4974500000000  0.5249010000000 1.0
C      1  0.4743930000000  0.4231780000000  0.5270900000000 1.0
C      1  0.5618800000000  0.4489810000000  0.5335310000000 1.0
C      1  0.5736370000000  0.4839000000000  0.4339750000000 1.0
C      1  0.5371580000000  0.5424290000000  0.4187520000000 1.0
C      1  0.4601730000000  0.5482820000000  0.4175300000000 1.0
C      1  0.4357810000000  0.4837740000000  0.4189900000000 1.0
C      1  0.4991260000000  0.4488980000000  0.4099650000000 1.0
C      1  0.5029050000000  0.4781720000000  0.5507640000000 1.0
C      1  0.5399370000000  0.4985560000000  0.5558120000000 1.0
C      1  0.5254870000000  0.5338050000000  0.5445870000000 1.0
C      1  0.4753330000000  0.5159610000000  0.5632540000000 1.0
C      1  0.4610820000000  0.4806060000000  0.5407840000000 1.0
C      1  0.5075110000000  0.5091290000000  0.5543970000000 1.0
C      1  0.4962190000000  0.4962160000000  0.4358010000000 1.0
C      1  0.4994270000000  0.5068100000000  0.4969260000000 1.0
END
