TITL C-2622961-1971-298 0.000190641569871273 125000 -892.119529826221 0 0 160 (C1) n - 1
REM
REM in /nfs/bkarasulu/CARBON/AIRSS/Generating-Clusters/AIREBO/with-SteepDescent/Higher-Symm/SD-CG/HFTN-CG
REM
REM
REM
REM
REM
REM ./C.cell (b20cbc046b6831c77cfcea5457e17084)
REM
REM compiler GCC version 9.2.1 20190827 (Red Hat 9.2.1-1)
REM options -cpp -mtune=generic -march=x86-64 -g -O0 -fpre-include=/usr/include/finclude/math-vector-fortran.h
REM seed 984400950 1523415369 -2041104344 100598080 1102408860 -1119449951 -113477533 1012351425 -301196298 928395707 -76766201 -195553471 -502053178 -547848697 1571195857 648660620 957897603 -1101372146 -2035581577 -1692705957 926167327 343263241 166721527 -1497616100 -32187449 2061024841 -1962327158 3842947 -998216480 1193454277 756507237 -839080950 -454339556
REM
CELL 1.54180   50.00000   50.00000   50.00000   90.00000   90.00000   90.00000
LATT -1
SFAC C  
C      1  0.5891820000000  0.5033910000000  0.4565730000000 1.0
C      1  0.5819580000000  0.4682950000000  0.4740870000000 1.0
C      1  0.5819360000000  0.4655360000000  0.5202500000000 1.0
C      1  0.5792090000000  0.5042710000000  0.5348160000000 1.0
C      1  0.5885920000000  0.5413420000000  0.4911750000000 1.0
C      1  0.4207450000000  0.5121340000000  0.5387360000000 1.0
C      1  0.4235810000000  0.4721240000000  0.5227730000000 1.0
C      1  0.4188370000000  0.4732550000000  0.4751800000000 1.0
C      1  0.4025270000000  0.5219490000000  0.4620840000000 1.0
C      1  0.4182080000000  0.5377590000000  0.4951810000000 1.0
C      1  0.5412660000000  0.4366990000000  0.5162360000000 1.0
C      1  0.5382250000000  0.4944080000000  0.5650810000000 1.0
C      1  0.5325710000000  0.5528580000000  0.5294720000000 1.0
C      1  0.5240470000000  0.5483840000000  0.4556380000000 1.0
C      1  0.5341320000000  0.4729530000000  0.4427750000000 1.0
C      1  0.4656190000000  0.4401800000000  0.4835240000000 1.0
C      1  0.4627170000000  0.4861800000000  0.4418560000000 1.0
C      1  0.4587780000000  0.5520090000000  0.4693720000000 1.0
C      1  0.4677430000000  0.5481920000000  0.5471540000000 1.0
C      1  0.4732670000000  0.4745830000000  0.5595580000000 1.0
C      1  0.5027530000000  0.4868240000000  0.3965730000000 1.0
C      1  0.5014800000000  0.3991960000000  0.4825190000000 1.0
C      1  0.5010650000000  0.4578100000000  0.5999670000000 1.0
C      1  0.5275040000000  0.5720090000000  0.5808680000000 1.0
C      1  0.4993450000000  0.5911980000000  0.4491690000000 1.0
C      1  0.5039550000000  0.4865970000000  0.6054430000000 1.0
C      1  0.4922080000000  0.4033740000000  0.5137530000000 1.0
C      1  0.5068030000000  0.4576220000000  0.4019050000000 1.0
C      1  0.4987890000000  0.5737750000000  0.4263790000000 1.0
C      1  0.4957490000000  0.6030400000000  0.5300360000000 1.0
C      1  0.4546340000000  0.5202930000000  0.5941220000000 1.0
C      1  0.4441250000000  0.5959960000000  0.5042530000000 1.0
C      1  0.4471310000000  0.5426950000000  0.4109450000000 1.0
C      1  0.4666570000000  0.4269480000000  0.4328130000000 1.0
C      1  0.4506790000000  0.4263690000000  0.5444390000000 1.0
C      1  0.5516030000000  0.5177240000000  0.4114720000000 1.0
C      1  0.5374240000000  0.5911300000000  0.4873400000000 1.0
C      1  0.5655050000000  0.5283090000000  0.5981030000000 1.0
C      1  0.5369150000000  0.4285320000000  0.5579920000000 1.0
C      1  0.5495790000000  0.4109040000000  0.4532660000000 1.0
C      1  0.5591170000000  0.4655240000000  0.4953540000000 1.0
C      1  0.5539560000000  0.4814420000000  0.5312160000000 1.0
C      1  0.5500440000000  0.5268860000000  0.5210150000000 1.0
C      1  0.5596450000000  0.5282190000000  0.4926620000000 1.0
C      1  0.5635450000000  0.4994040000000  0.4750100000000 1.0
C      1  0.4407850000000  0.4596240000000  0.4962340000000 1.0
C      1  0.4468220000000  0.4900210000000  0.4709030000000 1.0
C      1  0.4351820000000  0.5200700000000  0.4713690000000 1.0
C      1  0.4405220000000  0.5278020000000  0.5156120000000 1.0
C      1  0.4455200000000  0.4962050000000  0.5219530000000 1.0
C      1  0.4895370000000  0.4819790000000  0.5147150000000 1.0
C      1  0.4754880000000  0.5094630000000  0.5253850000000 1.0
C      1  0.4863630000000  0.5245140000000  0.5000090000000 1.0
C      1  0.4823600000000  0.5069290000000  0.4772960000000 1.0
C      1  0.4755000000000  0.4787160000000  0.4860510000000 1.0
C      1  0.5306580000000  0.4790900000000  0.4850280000000 1.0
C      1  0.5306120000000  0.5080740000000  0.4747800000000 1.0
C      1  0.5168120000000  0.5227820000000  0.4993290000000 1.0
C      1  0.5240640000000  0.5094500000000  0.5264600000000 1.0
C      1  0.5233780000000  0.4790600000000  0.5164770000000 1.0
C      1  0.4332250000000  0.4951590000000  0.4274710000000 1.0
C      1  0.4250480000000  0.4229470000000  0.4896090000000 1.0
C      1  0.4315290000000  0.4667890000000  0.5693570000000 1.0
C      1  0.4209910000000  0.5564720000000  0.5501070000000 1.0
C      1  0.4296370000000  0.5658380000000  0.4667800000000 1.0
C      1  0.5686420000000  0.4802420000000  0.5709040000000 1.0
C      1  0.5787310000000  0.4255890000000  0.5087040000000 1.0
C      1  0.5772460000000  0.4756840000000  0.4123910000000 1.0
C      1  0.5647830000000  0.5545940000000  0.4475070000000 1.0
C      1  0.5651110000000  0.5684300000000  0.5420930000000 1.0
C      1  0.3861610000000  0.5103850000000  0.4806880000000 1.0
C      1  0.3938170000000  0.4835640000000  0.4878970000000 1.0
C      1  0.3960400000000  0.4821650000000  0.5160520000000 1.0
C      1  0.3931060000000  0.5082270000000  0.5272790000000 1.0
C      1  0.3884580000000  0.5263170000000  0.5058000000000 1.0
C      1  0.6033730000000  0.5048630000000  0.5197900000000 1.0
C      1  0.6081450000000  0.4778520000000  0.5109380000000 1.0
C      1  0.6094860000000  0.4780220000000  0.4826220000000 1.0
C      1  0.6135890000000  0.5058260000000  0.4733350000000 1.0
C      1  0.6085640000000  0.5231880000000  0.4969200000000 1.0
C      1  0.5300740000000  0.4971060000000  0.6040290000000 1.0
C      1  0.5244560000000  0.5998640000000  0.5424940000000 1.0
C      1  0.5229950000000  0.5625410000000  0.4183680000000 1.0
C      1  0.5312610000000  0.4461850000000  0.4133290000000 1.0
C      1  0.5425190000000  0.3980880000000  0.5330040000000 1.0
C      1  0.4770670000000  0.4992290000000  0.4006630000000 1.0
C      1  0.4741840000000  0.5941780000000  0.4617240000000 1.0
C      1  0.4630430000000  0.5635130000000  0.5837690000000 1.0
C      1  0.4737970000000  0.4473800000000  0.5888660000000 1.0
C      1  0.4699880000000  0.4006530000000  0.4840160000000 1.0
C      1  0.4755740000000  0.5258310000000  0.4188570000000 1.0
C      1  0.4547580000000  0.4201840000000  0.4606600000000 1.0
C      1  0.4807680000000  0.4325250000000  0.5590880000000 1.0
C      1  0.4835750000000  0.5365420000000  0.5866760000000 1.0
C      1  0.4729980000000  0.5889190000000  0.4906200000000 1.0
C      1  0.5326810000000  0.5254220000000  0.5905850000000 1.0
C      1  0.5143410000000  0.4153070000000  0.5360500000000 1.0
C      1  0.5267720000000  0.4316720000000  0.4410750000000 1.0
C      1  0.5216230000000  0.5330030000000  0.4152750000000 1.0
C      1  0.5178200000000  0.5888420000000  0.5115520000000 1.0
C      1  0.5680420000000  0.5648310000000  0.4798470000000 1.0
C      1  0.5831300000000  0.4991570000000  0.4273680000000 1.0
C      1  0.5812550000000  0.4352280000000  0.4821250000000 1.0
C      1  0.5790390000000  0.4594290000000  0.5529460000000 1.0
C      1  0.5698520000000  0.5349630000000  0.5460950000000 1.0
C      1  0.4170980000000  0.5594510000000  0.5213640000000 1.0
C      1  0.4299610000000  0.5006910000000  0.5672720000000 1.0
C      1  0.4229370000000  0.4384160000000  0.5183310000000 1.0
C      1  0.4285110000000  0.4660650000000  0.4446840000000 1.0
C      1  0.4147500000000  0.5432200000000  0.4461770000000 1.0
C      1  0.5644490000000  0.4345970000000  0.5382570000000 1.0
C      1  0.5653680000000  0.5140870000000  0.5707490000000 1.0
C      1  0.5535380000000  0.5713450000000  0.5100670000000 1.0
C      1  0.5732960000000  0.5311390000000  0.4331630000000 1.0
C      1  0.5757700000000  0.4166510000000  0.4609490000000 1.0
C      1  0.4252270000000  0.4368160000000  0.4617270000000 1.0
C      1  0.4266610000000  0.5285400000000  0.4244570000000 1.0
C      1  0.4240030000000  0.5775080000000  0.4974070000000 1.0
C      1  0.4398270000000  0.5332230000000  0.5663800000000 1.0
C      1  0.4256510000000  0.4449550000000  0.5515950000000 1.0
C      1  0.4627030000000  0.4423030000000  0.5173440000000 1.0
C      1  0.4631220000000  0.4986610000000  0.5686900000000 1.0
C      1  0.4613330000000  0.5480960000000  0.5202970000000 1.0
C      1  0.4585740000000  0.5294830000000  0.4484870000000 1.0
C      1  0.4742630000000  0.4589360000000  0.4409440000000 1.0
C      1  0.5395870000000  0.4404210000000  0.4872890000000 1.0
C      1  0.5361460000000  0.4974940000000  0.4331270000000 1.0
C      1  0.5373270000000  0.5509090000000  0.4800900000000 1.0
C      1  0.5318730000000  0.5353430000000  0.5580400000000 1.0
C      1  0.5373350000000  0.4622930000000  0.5539070000000 1.0
C      1  0.5135060000000  0.5502820000000  0.5901080000000 1.0
C      1  0.5235730000000  0.5979480000000  0.4641700000000 1.0
C      1  0.5236160000000  0.5052680000000  0.3961340000000 1.0
C      1  0.5194690000000  0.4080260000000  0.4646700000000 1.0
C      1  0.5100510000000  0.4365290000000  0.5760020000000 1.0
C      1  0.4755880000000  0.5598510000000  0.4191310000000 1.0
C      1  0.4716800000000  0.6050710000000  0.5189690000000 1.0
C      1  0.4850060000000  0.5061640000000  0.6019080000000 1.0
C      1  0.4761360000000  0.4043420000000  0.5396090000000 1.0
C      1  0.4844250000000  0.4452920000000  0.4131490000000 1.0
C      1  0.5578320000000  0.4559690000000  0.4083820000000 1.0
C      1  0.5656870000000  0.3998830000000  0.5186190000000 1.0
C      1  0.5524840000000  0.4819250000000  0.6002810000000 1.0
C      1  0.5411060000000  0.5838480000000  0.5581910000000 1.0
C      1  0.5472220000000  0.5706100000000  0.4312220000000 1.0
C      1  0.4479430000000  0.4578650000000  0.5909330000000 1.0
C      1  0.4391390000000  0.3984730000000  0.4901760000000 1.0
C      1  0.4516110000000  0.4886570000000  0.4006190000000 1.0
C      1  0.4508710000000  0.5858970000000  0.4497690000000 1.0
C      1  0.4420920000000  0.5728900000000  0.5682360000000 1.0
C      1  0.4864190000000  0.5100280000000  0.4469520000000 1.0
C      1  0.4884380000000  0.4556740000000  0.4683700000000 1.0
C      1  0.4845490000000  0.4575950000000  0.5364340000000 1.0
C      1  0.4831240000000  0.5208260000000  0.5565160000000 1.0
C      1  0.4791560000000  0.5571950000000  0.4948470000000 1.0
C      1  0.5123710000000  0.5107510000000  0.5552850000000 1.0
C      1  0.5156030000000  0.4489710000000  0.5313990000000 1.0
C      1  0.5185120000000  0.4538440000000  0.4655010000000 1.0
C      1  0.5165090000000  0.5184880000000  0.4456420000000 1.0
C      1  0.5127210000000  0.5563510000000  0.5029260000000 1.0
END
