TITL C-2622957-9142-227 -0.000893803047209955 125000 -305.047820433411 0 0 56 (C1) n - 1
REM
REM in /nfs/bkarasulu/CARBON/AIRSS/Generating-Clusters/AIREBO/with-SteepDescent/Higher-Symm/SD-CG/HFTN-CG
REM
REM
REM
REM
REM
REM ./C.cell (b20cbc046b6831c77cfcea5457e17084)
REM
REM compiler GCC version 9.2.1 20190827 (Red Hat 9.2.1-1)
REM options -cpp -mtune=generic -march=x86-64 -g -O0 -fpre-include=/usr/include/finclude/math-vector-fortran.h
REM seed -717062804 1874366123 -1153752779 -1099185494 -352391795 1079931173 -2123643637 -669068279 1432043941 -1303792112 555581176 1000291073 -1629756270 443796411 -151592880 -657747873 -1330121167 -1370612719 -1940525021 -420907271 317107622 1530324970 -113142550 1032192830 -718768353 -224736628 -1831731399 -2076198089 -686004965 787028942 -1327744633 -466612592 -1308865323
REM
CELL 1.54180   50.00000   50.00000   50.00000   90.00000   90.00000   90.00000
LATT -1
SFAC C  
C      1  0.5139990000000  0.4596440000000  0.5375620000000 1.0
C      1  0.4885680000000  0.5349670000000  0.5406620000000 1.0
C      1  0.4813600000000  0.4614830000000  0.5396240000000 1.0
C      1  0.5219190000000  0.5344600000000  0.5420830000000 1.0
C      1  0.5592810000000  0.5123240000000  0.5129310000000 1.0
C      1  0.4330780000000  0.4884410000000  0.5127980000000 1.0
C      1  0.4391840000000  0.5185740000000  0.5030080000000 1.0
C      1  0.5897250000000  0.5093990000000  0.5048910000000 1.0
C      1  0.4614310000000  0.4459920000000  0.4837830000000 1.0
C      1  0.5377770000000  0.5548580000000  0.4765340000000 1.0
C      1  0.5309000000000  0.4324560000000  0.4992630000000 1.0
C      1  0.4771870000000  0.5651560000000  0.4943070000000 1.0
C      1  0.4863220000000  0.5614350000000  0.5193470000000 1.0
C      1  0.5156240000000  0.4328390000000  0.5217790000000 1.0
C      1  0.5347320000000  0.5685840000000  0.5044890000000 1.0
C      1  0.4687930000000  0.4393900000000  0.5163420000000 1.0
C      1  0.5429080000000  0.4973640000000  0.4680070000000 1.0
C      1  0.4605540000000  0.5040410000000  0.4661110000000 1.0
C      1  0.4446920000000  0.4676120000000  0.4634680000000 1.0
C      1  0.5536890000000  0.5353950000000  0.4619690000000 1.0
C      1  0.4682520000000  0.5259270000000  0.5159640000000 1.0
C      1  0.5124700000000  0.4868340000000  0.5206360000000 1.0
C      1  0.5319790000000  0.5132670000000  0.5223050000000 1.0
C      1  0.4587910000000  0.4775560000000  0.5221170000000 1.0
C      1  0.5300950000000  0.4625130000000  0.5633820000000 1.0
C      1  0.4711750000000  0.5253160000000  0.5862580000000 1.0
C      1  0.4585170000000  0.4750940000000  0.5827180000000 1.0
C      1  0.5341600000000  0.5314820000000  0.5698510000000 1.0
C      1  0.5452520000000  0.5228210000000  0.4356990000000 1.0
C      1  0.4576750000000  0.4762080000000  0.4377850000000 1.0
C      1  0.4634770000000  0.5094980000000  0.4327890000000 1.0
C      1  0.5446340000000  0.4886340000000  0.4351920000000 1.0
C      1  0.4887620000000  0.4630660000000  0.4383960000000 1.0
C      1  0.5128730000000  0.5286410000000  0.4354850000000 1.0
C      1  0.5213740000000  0.4669790000000  0.4472990000000 1.0
C      1  0.4837940000000  0.5339530000000  0.4364330000000 1.0
C      1  0.5100590000000  0.5450460000000  0.4838520000000 1.0
C      1  0.4919220000000  0.4539570000000  0.4710190000000 1.0
C      1  0.4819620000000  0.5484070000000  0.4651050000000 1.0
C      1  0.5233820000000  0.4525300000000  0.4778740000000 1.0
C      1  0.4743840000000  0.5249570000000  0.4853200000000 1.0
C      1  0.5246680000000  0.4821980000000  0.4890700000000 1.0
C      1  0.5121270000000  0.5211210000000  0.4987380000000 1.0
C      1  0.4766030000000  0.4724610000000  0.4959810000000 1.0
C      1  0.4725470000000  0.4854410000000  0.5609710000000 1.0
C      1  0.5413270000000  0.5084780000000  0.5822560000000 1.0
C      1  0.5346450000000  0.4822200000000  0.5811690000000 1.0
C      1  0.4770640000000  0.5133420000000  0.5617450000000 1.0
C      1  0.4899650000000  0.4906250000000  0.4555540000000 1.0
C      1  0.5147690000000  0.5056890000000  0.4538560000000 1.0
C      1  0.4337460000000  0.4929620000000  0.4802150000000 1.0
C      1  0.5655940000000  0.5136420000000  0.4810550000000 1.0
C      1  0.4899180000000  0.4206530000000  0.5208420000000 1.0
C      1  0.5156710000000  0.5597480000000  0.5242230000000 1.0
C      1  0.4838280000000  0.4986250000000  0.5252050000000 1.0
C      1  0.4939540000000  0.4965910000000  0.4866760000000 1.0
END
