TITL C-2622968-4806-4 0.0027174885658733 125000 -915.235007148508 0 0 167 (C1) n - 1
REM
REM in /nfs/bkarasulu/CARBON/AIRSS/Generating-Clusters/AIREBO/with-SteepDescent/Higher-Symm/SD-CG/HFTN-CG
REM
REM
REM
REM
REM
REM ./C.cell (b20cbc046b6831c77cfcea5457e17084)
REM
REM compiler GCC version 9.2.1 20190827 (Red Hat 9.2.1-1)
REM options -cpp -mtune=generic -march=x86-64 -g -O0 -fpre-include=/usr/include/finclude/math-vector-fortran.h
REM seed -677384119 1391366604 -75491181 -28377420 1738547926 959567816 -1515226665 -213577663 131634953 924710520 750217939 17294599 -1282547354 684735121 -671416320 863775426 49716833 609347482 2075148020 1672086374 259531519 1730800644 106559979 -1170681743 1670479883 740675247 252803434 919956782 1058274717 1404587152 -2117224607 -1122772464 -1903585878
REM
CELL 1.54180   50.00000   50.00000   50.00000   90.00000   90.00000   90.00000
LATT -1
SFAC C  
C      1  0.5192830000000  0.4768350000000  0.4723540000000 1.0
C      1  0.4843160000000  0.5236000000000  0.4930330000000 1.0
C      1  0.5260200000000  0.4851690000000  0.5230700000000 1.0
C      1  0.4713040000000  0.5279910000000  0.5237960000000 1.0
C      1  0.4829480000000  0.4754310000000  0.4888980000000 1.0
C      1  0.5236750000000  0.5246270000000  0.4863000000000 1.0
C      1  0.4702070000000  0.4724280000000  0.5202790000000 1.0
C      1  0.5258780000000  0.5179590000000  0.5198000000000 1.0
C      1  0.5082750000000  0.4769420000000  0.5482700000000 1.0
C      1  0.4823380000000  0.5165620000000  0.5484140000000 1.0
C      1  0.5078070000000  0.4764570000000  0.4456000000000 1.0
C      1  0.4863330000000  0.5196420000000  0.4429500000000 1.0
C      1  0.4757880000000  0.4855750000000  0.5487760000000 1.0
C      1  0.5115950000000  0.5204570000000  0.5489870000000 1.0
C      1  0.4776980000000  0.4876040000000  0.4416350000000 1.0
C      1  0.5162470000000  0.5233960000000  0.4539960000000 1.0
C      1  0.4296420000000  0.5689470000000  0.5213420000000 1.0
C      1  0.5574720000000  0.4427270000000  0.5178480000000 1.0
C      1  0.4336180000000  0.5555020000000  0.4903980000000 1.0
C      1  0.5687320000000  0.4461960000000  0.4872100000000 1.0
C      1  0.5630690000000  0.5537160000000  0.5183830000000 1.0
C      1  0.4341220000000  0.4381400000000  0.5276450000000 1.0
C      1  0.5737120000000  0.5485450000000  0.4876030000000 1.0
C      1  0.4386690000000  0.4404640000000  0.4731720000000 1.0
C      1  0.4212880000000  0.4815240000000  0.4500970000000 1.0
C      1  0.5673210000000  0.5173890000000  0.4320690000000 1.0
C      1  0.4199960000000  0.4768170000000  0.5580600000000 1.0
C      1  0.5979630000000  0.5129580000000  0.5619250000000 1.0
C      1  0.5838550000000  0.4746010000000  0.4301720000000 1.0
C      1  0.4332790000000  0.5192460000000  0.4449720000000 1.0
C      1  0.5848010000000  0.4852130000000  0.5709910000000 1.0
C      1  0.4083840000000  0.5242320000000  0.5617250000000 1.0
C      1  0.5139140000000  0.4226170000000  0.5608790000000 1.0
C      1  0.4859750000000  0.5843160000000  0.5640990000000 1.0
C      1  0.5118730000000  0.4159060000000  0.4419610000000 1.0
C      1  0.4773940000000  0.5936460000000  0.4363860000000 1.0
C      1  0.4847950000000  0.4181290000000  0.5704280000000 1.0
C      1  0.5156690000000  0.5817070000000  0.5564410000000 1.0
C      1  0.4828860000000  0.4130830000000  0.4317050000000 1.0
C      1  0.5093410000000  0.5917910000000  0.4478770000000 1.0
C      1  0.4378690000000  0.5266340000000  0.5455150000000 1.0
C      1  0.5598890000000  0.4809600000000  0.5482350000000 1.0
C      1  0.4599800000000  0.5167890000000  0.4621690000000 1.0
C      1  0.5561700000000  0.4791240000000  0.4493890000000 1.0
C      1  0.5648630000000  0.5132420000000  0.5511610000000 1.0
C      1  0.4438170000000  0.4952200000000  0.5497980000000 1.0
C      1  0.5470490000000  0.5104730000000  0.4571030000000 1.0
C      1  0.4495350000000  0.4855950000000  0.4591900000000 1.0
C      1  0.4412570000000  0.5146250000000  0.5151610000000 1.0
C      1  0.5575960000000  0.4757170000000  0.5147150000000 1.0
C      1  0.4513980000000  0.5313870000000  0.4894520000000 1.0
C      1  0.5504610000000  0.4730340000000  0.4814900000000 1.0
C      1  0.5597730000000  0.5198770000000  0.5179040000000 1.0
C      1  0.4400010000000  0.4683900000000  0.5133080000000 1.0
C      1  0.5572060000000  0.5222770000000  0.4840400000000 1.0
C      1  0.4518120000000  0.4668260000000  0.4837480000000 1.0
C      1  0.5483040000000  0.4460970000000  0.4520790000000 1.0
C      1  0.4350220000000  0.5659540000000  0.4365010000000 1.0
C      1  0.5615250000000  0.4490300000000  0.5598280000000 1.0
C      1  0.4453820000000  0.5569250000000  0.5473460000000 1.0
C      1  0.4431050000000  0.4403640000000  0.4394530000000 1.0
C      1  0.5491730000000  0.5628790000000  0.4407990000000 1.0
C      1  0.4383010000000  0.4393340000000  0.5605190000000 1.0
C      1  0.5559030000000  0.5460280000000  0.5500830000000 1.0
C      1  0.4074160000000  0.4454780000000  0.5121910000000 1.0
C      1  0.6178910000000  0.5333130000000  0.5051930000000 1.0
C      1  0.4096270000000  0.4449490000000  0.4839030000000 1.0
C      1  0.6037750000000  0.5410670000000  0.4830300000000 1.0
C      1  0.6126670000000  0.4544000000000  0.5060630000000 1.0
C      1  0.4031880000000  0.5495680000000  0.5153030000000 1.0
C      1  0.5982030000000  0.4512770000000  0.4835190000000 1.0
C      1  0.4025570000000  0.5487130000000  0.4821890000000 1.0
C      1  0.4782520000000  0.5877070000000  0.5134540000000 1.0
C      1  0.5240540000000  0.4217420000000  0.5224880000000 1.0
C      1  0.4733630000000  0.5822070000000  0.4742220000000 1.0
C      1  0.5211350000000  0.4207600000000  0.4826420000000 1.0
C      1  0.5325390000000  0.5792540000000  0.5162500000000 1.0
C      1  0.4814180000000  0.4182510000000  0.5232790000000 1.0
C      1  0.5214770000000  0.5881700000000  0.4878420000000 1.0
C      1  0.4828800000000  0.4111060000000  0.4764050000000 1.0
C      1  0.4497240000000  0.4123970000000  0.5165190000000 1.0
C      1  0.5650640000000  0.5876390000000  0.5195770000000 1.0
C      1  0.4523320000000  0.4157490000000  0.4863500000000 1.0
C      1  0.5599300000000  0.5779320000000  0.4872410000000 1.0
C      1  0.5559410000000  0.4095830000000  0.5206150000000 1.0
C      1  0.4459570000000  0.5973070000000  0.5173230000000 1.0
C      1  0.5529480000000  0.4176860000000  0.4875300000000 1.0
C      1  0.4437670000000  0.5853530000000  0.4858860000000 1.0
C      1  0.3986870000000  0.4702460000000  0.5321900000000 1.0
C      1  0.6018630000000  0.5204760000000  0.5288570000000 1.0
C      1  0.3959050000000  0.4682610000000  0.4681930000000 1.0
C      1  0.5878050000000  0.5252780000000  0.4584690000000 1.0
C      1  0.6009810000000  0.4705670000000  0.5258710000000 1.0
C      1  0.4026540000000  0.5182870000000  0.5286210000000 1.0
C      1  0.5951650000000  0.4749410000000  0.4625310000000 1.0
C      1  0.4076650000000  0.5186670000000  0.4673230000000 1.0
C      1  0.4527130000000  0.5459130000000  0.5782200000000 1.0
C      1  0.5424200000000  0.4587820000000  0.5862640000000 1.0
C      1  0.4530760000000  0.5499450000000  0.4158080000000 1.0
C      1  0.5354890000000  0.4562880000000  0.4231050000000 1.0
C      1  0.5384530000000  0.5402130000000  0.5787770000000 1.0
C      1  0.4502420000000  0.4556760000000  0.5835510000000 1.0
C      1  0.5276800000000  0.5515430000000  0.4274850000000 1.0
C      1  0.4586700000000  0.4610780000000  0.4186280000000 1.0
C      1  0.5146270000000  0.5560760000000  0.4891850000000 1.0
C      1  0.4827430000000  0.4417370000000  0.4839680000000 1.0
C      1  0.5175640000000  0.5508460000000  0.5221780000000 1.0
C      1  0.4881910000000  0.4472220000000  0.5163340000000 1.0
C      1  0.4830360000000  0.5559450000000  0.4831460000000 1.0
C      1  0.5141380000000  0.4506230000000  0.4862710000000 1.0
C      1  0.4859180000000  0.5554200000000  0.5168500000000 1.0
C      1  0.5191340000000  0.4540590000000  0.5175360000000 1.0
C      1  0.4817300000000  0.4372500000000  0.4115330000000 1.0
C      1  0.5065460000000  0.5691530000000  0.4260050000000 1.0
C      1  0.4791990000000  0.4397360000000  0.5917180000000 1.0
C      1  0.5136320000000  0.5613090000000  0.5804750000000 1.0
C      1  0.5120880000000  0.4369480000000  0.4198020000000 1.0
C      1  0.4785400000000  0.5714000000000  0.4136250000000 1.0
C      1  0.5119300000000  0.4439740000000  0.5833850000000 1.0
C      1  0.4801710000000  0.5643650000000  0.5863270000000 1.0
C      1  0.4495290000000  0.5877030000000  0.4522020000000 1.0
C      1  0.5402360000000  0.4137800000000  0.4559330000000 1.0
C      1  0.4644570000000  0.5834080000000  0.5429670000000 1.0
C      1  0.5444330000000  0.4229610000000  0.5496820000000 1.0
C      1  0.5402120000000  0.5854660000000  0.4607750000000 1.0
C      1  0.4589880000000  0.4131040000000  0.4522910000000 1.0
C      1  0.5463050000000  0.5785350000000  0.5473410000000 1.0
C      1  0.4616600000000  0.4189610000000  0.5491870000000 1.0
C      1  0.5931840000000  0.4602520000000  0.5520240000000 1.0
C      1  0.3863650000000  0.5434660000000  0.5443630000000 1.0
C      1  0.5803490000000  0.4474730000000  0.4490330000000 1.0
C      1  0.4163500000000  0.5472510000000  0.4509850000000 1.0
C      1  0.4061280000000  0.4461120000000  0.5549570000000 1.0
C      1  0.5898480000000  0.5438970000000  0.5503900000000 1.0
C      1  0.4132260000000  0.4509660000000  0.4442270000000 1.0
C      1  0.5725310000000  0.5484990000000  0.4395500000000 1.0
C      1  0.4324080000000  0.5191410000000  0.5841840000000 1.0
C      1  0.5597280000000  0.4878900000000  0.5894690000000 1.0
C      1  0.4429910000000  0.5174110000000  0.4151140000000 1.0
C      1  0.5588990000000  0.4755920000000  0.4097460000000 1.0
C      1  0.5535200000000  0.5161820000000  0.5985610000000 1.0
C      1  0.4344110000000  0.4856680000000  0.5871010000000 1.0
C      1  0.5553020000000  0.5084930000000  0.4057850000000 1.0
C      1  0.4524030000000  0.4919940000000  0.4043400000000 1.0
C      1  0.5225150000000  0.4812930000000  0.5742590000000 1.0
C      1  0.4766030000000  0.5265540000000  0.5763110000000 1.0
C      1  0.5208200000000  0.4860570000000  0.4156900000000 1.0
C      1  0.4807990000000  0.5326460000000  0.4161220000000 1.0
C      1  0.4725610000000  0.4769490000000  0.5799330000000 1.0
C      1  0.5212940000000  0.5121740000000  0.5759230000000 1.0
C      1  0.4881010000000  0.4764260000000  0.4112470000000 1.0
C      1  0.5210720000000  0.5191130000000  0.4231940000000 1.0
C      1  0.5380130000000  0.4866090000000  0.3852820000000 1.0
C      1  0.4932170000000  0.5198590000000  0.3935740000000 1.0
C      1  0.5140680000000  0.4868590000000  0.6057450000000 1.0
C      1  0.4891500000000  0.5168970000000  0.5992290000000 1.0
C      1  0.4788030000000  0.4960880000000  0.3878370000000 1.0
C      1  0.5259700000000  0.5177960000000  0.3910780000000 1.0
C      1  0.4836830000000  0.4879650000000  0.6026410000000 1.0
C      1  0.5215570000000  0.5202340000000  0.6089590000000 1.0
C      1  0.4034230000000  0.4946650000000  0.4833120000000 1.0
C      1  0.5901130000000  0.5001810000000  0.4786650000000 1.0
C      1  0.4157790000000  0.4922440000000  0.5126860000000 1.0
C      1  0.5841150000000  0.4968530000000  0.5120090000000 1.0
C      1  0.5025880000000  0.4036810000000  0.5031770000000 1.0
C      1  0.4940830000000  0.6007190000000  0.4893950000000 1.0
C      1  0.5017860000000  0.4988910000000  0.4872290000000 1.0
END
