TITL C-2622961-1971-12 -0.000118929421907608 125000 -238.527331802492 0 0 40 (C1) n - 1
REM
REM in /nfs/bkarasulu/CARBON/AIRSS/Generating-Clusters/AIREBO/with-SteepDescent/Higher-Symm/SD-CG/HFTN-CG
REM
REM
REM
REM
REM
REM ./C.cell (b20cbc046b6831c77cfcea5457e17084)
REM
REM compiler GCC version 9.2.1 20190827 (Red Hat 9.2.1-1)
REM options -cpp -mtune=generic -march=x86-64 -g -O0 -fpre-include=/usr/include/finclude/math-vector-fortran.h
REM seed -24977271 -871268413 1597099059 -1160276532 -1588037640 264809764 81045288 390285430 -2076923225 -891475049 -85988861 -1314782844 -1543690717 983541325 -1722822913 346433142 1661488430 215927578 882301490 -589069843 1921725132 1193886467 668916830 -1611331282 116734724 1928245292 1884319427 -522423836 -307208895 -438313254 831101084 1364381911 -245046057
REM
CELL 1.54180   50.00000   50.00000   50.00000   90.00000   90.00000   90.00000
LATT -1
SFAC C  
C      1  0.5107970000000  0.5491650000000  0.5360970000000 1.0
C      1  0.5149170000000  0.4571830000000  0.4718240000000 1.0
C      1  0.5039980000000  0.5559330000000  0.4624950000000 1.0
C      1  0.4929260000000  0.4486530000000  0.5388370000000 1.0
C      1  0.5013630000000  0.5370320000000  0.5602240000000 1.0
C      1  0.5134910000000  0.4755030000000  0.4526200000000 1.0
C      1  0.5027670000000  0.4617430000000  0.5622230000000 1.0
C      1  0.4927680000000  0.5342170000000  0.4484560000000 1.0
C      1  0.4971090000000  0.4538060000000  0.4937970000000 1.0
C      1  0.4942640000000  0.5534230000000  0.5126990000000 1.0
C      1  0.5114460000000  0.4426970000000  0.5175130000000 1.0
C      1  0.5111940000000  0.5528110000000  0.4893430000000 1.0
C      1  0.4884030000000  0.4871290000000  0.4407880000000 1.0
C      1  0.4922510000000  0.5097430000000  0.5606670000000 1.0
C      1  0.5086830000000  0.5121950000000  0.4385950000000 1.0
C      1  0.5119640000000  0.4886070000000  0.5599680000000 1.0
C      1  0.4719710000000  0.5046550000000  0.5417980000000 1.0
C      1  0.4647520000000  0.4962840000000  0.4554160000000 1.0
C      1  0.5370460000000  0.4990310000000  0.4521920000000 1.0
C      1  0.5300280000000  0.4923620000000  0.5370660000000 1.0
C      1  0.4716440000000  0.5341050000000  0.5084890000000 1.0
C      1  0.4767030000000  0.4764790000000  0.4994040000000 1.0
C      1  0.5367450000000  0.4550690000000  0.4978190000000 1.0
C      1  0.5303930000000  0.5287780000000  0.4952530000000 1.0
C      1  0.4668160000000  0.5251380000000  0.4573030000000 1.0
C      1  0.4526240000000  0.4844880000000  0.5301130000000 1.0
C      1  0.5511660000000  0.5156670000000  0.5267700000000 1.0
C      1  0.5531040000000  0.4703870000000  0.4513670000000 1.0
C      1  0.4686340000000  0.4584790000000  0.5271010000000 1.0
C      1  0.4552090000000  0.5367980000000  0.4796470000000 1.0
C      1  0.5369850000000  0.5417350000000  0.5259890000000 1.0
C      1  0.5545680000000  0.4532040000000  0.4698980000000 1.0
C      1  0.4404570000000  0.5225160000000  0.5036480000000 1.0
C      1  0.4546280000000  0.4828020000000  0.4783670000000 1.0
C      1  0.5487830000000  0.5151850000000  0.4746880000000 1.0
C      1  0.5480500000000  0.4785970000000  0.5132740000000 1.0
C      1  0.5608840000000  0.5032460000000  0.4995170000000 1.0
C      1  0.4411810000000  0.4940320000000  0.5045620000000 1.0
C      1  0.5148960000000  0.5073380000000  0.5124530000000 1.0
C      1  0.4851180000000  0.5037840000000  0.5117210000000 1.0
END
