TITL C-2622965-4321-714 -0.000207089270262937 125000 -611.993917726124 0 0 112 (C1) n - 1
REM
REM in /nfs/bkarasulu/CARBON/AIRSS/Generating-Clusters/AIREBO/with-SteepDescent/Higher-Symm/SD-CG/HFTN-CG
REM
REM
REM
REM
REM
REM ./C.cell (b20cbc046b6831c77cfcea5457e17084)
REM
REM compiler GCC version 9.2.1 20190827 (Red Hat 9.2.1-1)
REM options -cpp -mtune=generic -march=x86-64 -g -O0 -fpre-include=/usr/include/finclude/math-vector-fortran.h
REM seed 685242094 -1330300547 754410020 513042023 -1355918332 -782017159 -23252373 774149162 -482657447 -1715900293 1392323693 -1390833600 686085738 1121462017 -1883355718 1704102266 920700603 989297818 -464023227 -170362164 1510992193 -685582020 1651932070 1482252169 155944576 -1500941594 498434677 2130756718 -2138255026 951733835 490335273 1751140173 560731023
REM
CELL 1.54180   50.00000   50.00000   50.00000   90.00000   90.00000   90.00000
LATT -1
SFAC C  
C      1  0.4760020000000  0.4296290000000  0.4774190000000 1.0
C      1  0.3970150000000  0.4382150000000  0.5321400000000 1.0
C      1  0.4138520000000  0.4929100000000  0.4998000000000 1.0
C      1  0.4961860000000  0.4535490000000  0.5562740000000 1.0
C      1  0.4346650000000  0.4723360000000  0.4406710000000 1.0
C      1  0.4954400000000  0.5107380000000  0.4066760000000 1.0
C      1  0.4850540000000  0.5126200000000  0.5292410000000 1.0
C      1  0.5267030000000  0.4396190000000  0.4662760000000 1.0
C      1  0.5188330000000  0.5286720000000  0.5960710000000 1.0
C      1  0.4890390000000  0.4604330000000  0.4204440000000 1.0
C      1  0.4884790000000  0.5018290000000  0.4827920000000 1.0
C      1  0.5295850000000  0.4517680000000  0.5228860000000 1.0
C      1  0.5690760000000  0.4885910000000  0.4704580000000 1.0
C      1  0.5359040000000  0.4863220000000  0.4633380000000 1.0
C      1  0.5865900000000  0.5120860000000  0.4832600000000 1.0
C      1  0.4706920000000  0.5252250000000  0.5573750000000 1.0
C      1  0.4497210000000  0.4851910000000  0.4258390000000 1.0
C      1  0.4426550000000  0.5372840000000  0.4919950000000 1.0
C      1  0.4926200000000  0.5226890000000  0.6010400000000 1.0
C      1  0.4290880000000  0.4849650000000  0.5500850000000 1.0
C      1  0.4611950000000  0.4789560000000  0.5160700000000 1.0
C      1  0.4508100000000  0.5102790000000  0.4727850000000 1.0
C      1  0.5356370000000  0.4474910000000  0.4207660000000 1.0
C      1  0.4359880000000  0.4609590000000  0.4699290000000 1.0
C      1  0.4153650000000  0.4652780000000  0.4928610000000 1.0
C      1  0.4453550000000  0.4323500000000  0.4765670000000 1.0
C      1  0.4577600000000  0.4898370000000  0.5910460000000 1.0
C      1  0.5243920000000  0.4254120000000  0.5134160000000 1.0
C      1  0.4948030000000  0.5922510000000  0.4570620000000 1.0
C      1  0.5096770000000  0.5291410000000  0.5465480000000 1.0
C      1  0.4828440000000  0.4507600000000  0.5837190000000 1.0
C      1  0.5112870000000  0.4722320000000  0.5345120000000 1.0
C      1  0.4686110000000  0.5835610000000  0.4505750000000 1.0
C      1  0.5525100000000  0.4854620000000  0.4995520000000 1.0
C      1  0.4955480000000  0.5029810000000  0.4507980000000 1.0
C      1  0.4434760000000  0.4576700000000  0.5357960000000 1.0
C      1  0.4839610000000  0.5323990000000  0.4752290000000 1.0
C      1  0.4658500000000  0.5297340000000  0.4492980000000 1.0
C      1  0.5363850000000  0.5796330000000  0.5270670000000 1.0
C      1  0.5452520000000  0.4558910000000  0.4869260000000 1.0
C      1  0.5551860000000  0.5292900000000  0.4534260000000 1.0
C      1  0.5203270000000  0.4172090000000  0.4870420000000 1.0
C      1  0.5299320000000  0.5482550000000  0.4581180000000 1.0
C      1  0.5679520000000  0.5195140000000  0.5375120000000 1.0
C      1  0.5537140000000  0.4983120000000  0.4076680000000 1.0
C      1  0.5562730000000  0.5172170000000  0.5637530000000 1.0
C      1  0.5165710000000  0.5963370000000  0.5162040000000 1.0
C      1  0.5308680000000  0.5271850000000  0.5709770000000 1.0
C      1  0.5738200000000  0.4723540000000  0.5508740000000 1.0
C      1  0.4720030000000  0.4546110000000  0.4984380000000 1.0
C      1  0.5606300000000  0.4307810000000  0.5362000000000 1.0
C      1  0.4861810000000  0.5815790000000  0.5123290000000 1.0
C      1  0.5515700000000  0.5344470000000  0.5168660000000 1.0
C      1  0.5347560000000  0.5109850000000  0.5027990000000 1.0
C      1  0.5152950000000  0.4643460000000  0.4138890000000 1.0
C      1  0.5162240000000  0.5305070000000  0.4819110000000 1.0
C      1  0.5029400000000  0.5372320000000  0.4067830000000 1.0
C      1  0.4714650000000  0.5538270000000  0.4992550000000 1.0
C      1  0.4969520000000  0.4529340000000  0.4675830000000 1.0
C      1  0.5373680000000  0.5721420000000  0.4811530000000 1.0
C      1  0.4694510000000  0.5986920000000  0.5571270000000 1.0
C      1  0.5753650000000  0.4495950000000  0.4755820000000 1.0
C      1  0.5852230000000  0.4740480000000  0.4456140000000 1.0
C      1  0.4574600000000  0.4622570000000  0.5858590000000 1.0
C      1  0.3989980000000  0.5164640000000  0.4972540000000 1.0
C      1  0.5062490000000  0.5856500000000  0.4851680000000 1.0
C      1  0.4200440000000  0.4451350000000  0.5176310000000 1.0
C      1  0.4433010000000  0.4993920000000  0.5037130000000 1.0
C      1  0.4183890000000  0.5405190000000  0.5569370000000 1.0
C      1  0.4499420000000  0.5918220000000  0.4700380000000 1.0
C      1  0.4391790000000  0.4494190000000  0.5684990000000 1.0
C      1  0.5270650000000  0.4485830000000  0.5626680000000 1.0
C      1  0.5167870000000  0.5952010000000  0.4394960000000 1.0
C      1  0.5265400000000  0.5508570000000  0.5280310000000 1.0
C      1  0.5535810000000  0.4802450000000  0.4348200000000 1.0
C      1  0.4306860000000  0.4224840000000  0.4979190000000 1.0
C      1  0.5612380000000  0.5796790000000  0.5149850000000 1.0
C      1  0.5592770000000  0.4623640000000  0.5235860000000 1.0
C      1  0.5631790000000  0.5543480000000  0.4943550000000 1.0
C      1  0.4804530000000  0.5778190000000  0.5432120000000 1.0
C      1  0.5921120000000  0.4897320000000  0.5030120000000 1.0
C      1  0.4939830000000  0.4858540000000  0.5102080000000 1.0
C      1  0.5953390000000  0.4640790000000  0.4880350000000 1.0
C      1  0.4754230000000  0.4446130000000  0.5307770000000 1.0
C      1  0.4957050000000  0.4063850000000  0.4812420000000 1.0
C      1  0.5216400000000  0.4937090000000  0.4139740000000 1.0
C      1  0.4557200000000  0.5836410000000  0.4947390000000 1.0
C      1  0.5235150000000  0.5024610000000  0.5311840000000 1.0
C      1  0.4551950000000  0.5242680000000  0.5207110000000 1.0
C      1  0.4867330000000  0.5531780000000  0.5537520000000 1.0
C      1  0.5634500000000  0.4920410000000  0.5751300000000 1.0
C      1  0.4127410000000  0.5406640000000  0.4916760000000 1.0
C      1  0.5155630000000  0.4727530000000  0.4873510000000 1.0
C      1  0.5377030000000  0.5796050000000  0.4474700000000 1.0
C      1  0.4717430000000  0.5061370000000  0.4271010000000 1.0
C      1  0.5740700000000  0.5348090000000  0.4738960000000 1.0
C      1  0.4402970000000  0.5309110000000  0.5480720000000 1.0
C      1  0.5814420000000  0.4952300000000  0.5287840000000 1.0
C      1  0.4627370000000  0.5586690000000  0.4379340000000 1.0
C      1  0.5175580000000  0.5412640000000  0.4287780000000 1.0
C      1  0.5132050000000  0.4101940000000  0.5366600000000 1.0
C      1  0.4824110000000  0.4717390000000  0.4480810000000 1.0
C      1  0.5365270000000  0.4246610000000  0.5514300000000 1.0
C      1  0.4855370000000  0.4152540000000  0.5403220000000 1.0
C      1  0.5036510000000  0.5461020000000  0.5070570000000 1.0
C      1  0.4001870000000  0.5631620000000  0.4825230000000 1.0
C      1  0.4640470000000  0.4791150000000  0.4761950000000 1.0
C      1  0.4724040000000  0.5126980000000  0.5846050000000 1.0
C      1  0.4671810000000  0.3973750000000  0.5499640000000 1.0
C      1  0.5542320000000  0.4492970000000  0.4488900000000 1.0
C      1  0.5442790000000  0.4681780000000  0.5682530000000 1.0
C      1  0.5273250000000  0.5116370000000  0.4423190000000 1.0
END
