TITL C-2622958-629-19 3.20145979122065e-05 125000 -344.871359365374 0 0 64 (C1) n - 1
REM
REM in /nfs/bkarasulu/CARBON/AIRSS/Generating-Clusters/AIREBO/with-SteepDescent/Higher-Symm/SD-CG/HFTN-CG
REM
REM
REM
REM
REM
REM ./C.cell (b20cbc046b6831c77cfcea5457e17084)
REM
REM compiler GCC version 9.2.1 20190827 (Red Hat 9.2.1-1)
REM options -cpp -mtune=generic -march=x86-64 -g -O0 -fpre-include=/usr/include/finclude/math-vector-fortran.h
REM seed 1865558983 -515789428 -458351633 -739684432 634881851 -147457322 1462458369 1106405514 939168796 789214369 -494934052 -1483283136 375571218 451835757 -1749859744 452785298 1531449167 1523622504 1531415503 541080437 -829706856 147963882 -2084332264 -1372160511 423058425 787321254 -845610070 -342283260 1247123797 -1752673971 537605189 -1591986307 590629869
REM
CELL 1.54180   50.00000   50.00000   50.00000   90.00000   90.00000   90.00000
LATT -1
SFAC C  
C      1  0.5167350000000  0.5498650000000  0.4676680000000 1.0
C      1  0.4684090000000  0.5587280000000  0.4682760000000 1.0
C      1  0.4505010000000  0.5545610000000  0.5170110000000 1.0
C      1  0.5008160000000  0.5651350000000  0.5268880000000 1.0
C      1  0.5367150000000  0.5554070000000  0.5126660000000 1.0
C      1  0.4262920000000  0.5055880000000  0.5365850000000 1.0
C      1  0.5222700000000  0.4954390000000  0.5847580000000 1.0
C      1  0.5850730000000  0.5055360000000  0.5173570000000 1.0
C      1  0.5256070000000  0.4927310000000  0.4284840000000 1.0
C      1  0.4452050000000  0.4890820000000  0.4448000000000 1.0
C      1  0.5476650000000  0.5521460000000  0.4632000000000 1.0
C      1  0.4896520000000  0.5581610000000  0.4507230000000 1.0
C      1  0.4434390000000  0.5610050000000  0.4899120000000 1.0
C      1  0.4751130000000  0.5651360000000  0.5354170000000 1.0
C      1  0.5273350000000  0.5583480000000  0.5408610000000 1.0
C      1  0.4735710000000  0.4180430000000  0.4769070000000 1.0
C      1  0.4728110000000  0.4137210000000  0.5109970000000 1.0
C      1  0.5063850000000  0.4132360000000  0.5205950000000 1.0
C      1  0.5256260000000  0.4200830000000  0.4926900000000 1.0
C      1  0.5052390000000  0.4300400000000  0.4647080000000 1.0
C      1  0.4370370000000  0.5349300000000  0.4727210000000 1.0
C      1  0.4543730000000  0.5450390000000  0.5528330000000 1.0
C      1  0.5278620000000  0.5324680000000  0.5509270000000 1.0
C      1  0.5685670000000  0.5385430000000  0.4788800000000 1.0
C      1  0.5046180000000  0.5357930000000  0.4324370000000 1.0
C      1  0.5020210000000  0.4754890000000  0.4330040000000 1.0
C      1  0.4429360000000  0.4953420000000  0.4802300000000 1.0
C      1  0.4684210000000  0.4968660000000  0.5637810000000 1.0
C      1  0.5472800000000  0.4897450000000  0.5595460000000 1.0
C      1  0.5598720000000  0.4906390000000  0.4790940000000 1.0
C      1  0.5639310000000  0.4950050000000  0.5337110000000 1.0
C      1  0.5426500000000  0.4918770000000  0.4529070000000 1.0
C      1  0.4756650000000  0.4869850000000  0.4383870000000 1.0
C      1  0.4375010000000  0.4959390000000  0.5098060000000 1.0
C      1  0.4944990000000  0.4930560000000  0.5711030000000 1.0
C      1  0.4277980000000  0.5132970000000  0.4558630000000 1.0
C      1  0.4442050000000  0.5156180000000  0.5576850000000 1.0
C      1  0.5387640000000  0.5188470000000  0.5723770000000 1.0
C      1  0.5778920000000  0.5118020000000  0.4900510000000 1.0
C      1  0.5195570000000  0.5182950000000  0.4161220000000 1.0
C      1  0.5296600000000  0.4654870000000  0.5063790000000 1.0
C      1  0.5162520000000  0.4773240000000  0.4800890000000 1.0
C      1  0.4829020000000  0.4711250000000  0.4777150000000 1.0
C      1  0.4799010000000  0.4650290000000  0.5239480000000 1.0
C      1  0.5105310000000  0.4612620000000  0.5310940000000 1.0
C      1  0.5416160000000  0.5279780000000  0.4944260000000 1.0
C      1  0.5001680000000  0.5209780000000  0.4606340000000 1.0
C      1  0.4682030000000  0.5302450000000  0.4868280000000 1.0
C      1  0.4674630000000  0.5267760000000  0.5273130000000 1.0
C      1  0.5195690000000  0.5120640000000  0.5275890000000 1.0
C      1  0.5158780000000  0.4862050000000  0.5469890000000 1.0
C      1  0.5425500000000  0.4967010000000  0.5077510000000 1.0
C      1  0.5248320000000  0.5086240000000  0.4739950000000 1.0
C      1  0.4740350000000  0.5026420000000  0.4685370000000 1.0
C      1  0.4637250000000  0.4928790000000  0.5313130000000 1.0
C      1  0.5110630000000  0.4566990000000  0.4535740000000 1.0
C      1  0.4689340000000  0.4480080000000  0.4698850000000 1.0
C      1  0.4646060000000  0.4406510000000  0.5239690000000 1.0
C      1  0.5133770000000  0.4336450000000  0.5412670000000 1.0
C      1  0.5443650000000  0.4413000000000  0.4996490000000 1.0
C      1  0.4886910000000  0.4898250000000  0.5029950000000 1.0
C      1  0.5084630000000  0.5499410000000  0.4974460000000 1.0
C      1  0.4953180000000  0.4349360000000  0.4968640000000 1.0
C      1  0.4932950000000  0.5213970000000  0.5080130000000 1.0
END
