TITL C-2622957-9142-619 0.00375166913298363 125000 -393.471987365159 0 0 71 (C1) n - 1
REM
REM in /nfs/bkarasulu/CARBON/AIRSS/Generating-Clusters/AIREBO/with-SteepDescent/Higher-Symm/SD-CG/HFTN-CG
REM
REM
REM
REM
REM
REM ./C.cell (b20cbc046b6831c77cfcea5457e17084)
REM
REM compiler GCC version 9.2.1 20190827 (Red Hat 9.2.1-1)
REM options -cpp -mtune=generic -march=x86-64 -g -O0 -fpre-include=/usr/include/finclude/math-vector-fortran.h
REM seed 1290536878 -719992456 74735882 -1912129728 -222037441 102626920 -1977174464 2054944726 -76145712 -1024902601 786073285 1391921283 -1196481838 878984797 1685149664 429187119 -567459288 -1282993695 -1254527047 -940216608 -361577385 -1961582213 188249957 -1568049717 1246149019 1983119146 -970596878 1260294482 1210192146 810405311 -271388887 -1676608711 754908224
REM
CELL 1.54180   50.00000   50.00000   50.00000   90.00000   90.00000   90.00000
LATT -1
SFAC C  
C      1  0.5004480000000  0.5214430000000  0.4226630000000 1.0
C      1  0.5002210000000  0.5775070000000  0.4595070000000 1.0
C      1  0.5050390000000  0.5585550000000  0.5222580000000 1.0
C      1  0.5109360000000  0.5138240000000  0.5717170000000 1.0
C      1  0.4945610000000  0.4527060000000  0.5472150000000 1.0
C      1  0.5081890000000  0.4184480000000  0.4913540000000 1.0
C      1  0.5051420000000  0.4464190000000  0.4339880000000 1.0
C      1  0.4644920000000  0.5019860000000  0.5806510000000 1.0
C      1  0.4547450000000  0.4514390000000  0.5495490000000 1.0
C      1  0.4611690000000  0.4376620000000  0.4979420000000 1.0
C      1  0.4643240000000  0.4696000000000  0.4382440000000 1.0
C      1  0.4510200000000  0.5244910000000  0.4396660000000 1.0
C      1  0.4525430000000  0.5722450000000  0.4829450000000 1.0
C      1  0.4566450000000  0.5479930000000  0.5279940000000 1.0
C      1  0.4512560000000  0.5454470000000  0.4974300000000 1.0
C      1  0.4442370000000  0.5265740000000  0.5405660000000 1.0
C      1  0.4635520000000  0.5025070000000  0.5489370000000 1.0
C      1  0.4459460000000  0.4759880000000  0.5433110000000 1.0
C      1  0.4470200000000  0.4595110000000  0.4883580000000 1.0
C      1  0.4613840000000  0.4789350000000  0.4681640000000 1.0
C      1  0.4486280000000  0.5084510000000  0.4660590000000 1.0
C      1  0.4061220000000  0.4987890000000  0.5327610000000 1.0
C      1  0.4226970000000  0.4766400000000  0.5274260000000 1.0
C      1  0.4233710000000  0.4690590000000  0.5000790000000 1.0
C      1  0.4086700000000  0.4868760000000  0.4835390000000 1.0
C      1  0.4218850000000  0.5112420000000  0.4795060000000 1.0
C      1  0.4234580000000  0.5304160000000  0.4995880000000 1.0
C      1  0.4196460000000  0.5225100000000  0.5268160000000 1.0
C      1  0.5922330000000  0.5295450000000  0.4872940000000 1.0
C      1  0.5848360000000  0.5237150000000  0.5191880000000 1.0
C      1  0.5824500000000  0.5153400000000  0.5518050000000 1.0
C      1  0.5812890000000  0.4867000000000  0.5337370000000 1.0
C      1  0.5872570000000  0.4612600000000  0.5129000000000 1.0
C      1  0.5927270000000  0.4739030000000  0.4825520000000 1.0
C      1  0.5892900000000  0.5037570000000  0.4674600000000 1.0
C      1  0.4902890000000  0.4831700000000  0.4786730000000 1.0
C      1  0.5021860000000  0.5132610000000  0.4733080000000 1.0
C      1  0.5136320000000  0.5427850000000  0.4717750000000 1.0
C      1  0.4844610000000  0.5089500000000  0.5085540000000 1.0
C      1  0.4954290000000  0.5056280000000  0.5360360000000 1.0
C      1  0.4712210000000  0.5211110000000  0.4851020000000 1.0
C      1  0.5062510000000  0.4577240000000  0.4861570000000 1.0
C      1  0.5025920000000  0.4352340000000  0.4620010000000 1.0
C      1  0.5000830000000  0.4943030000000  0.4167220000000 1.0
C      1  0.5004050000000  0.5490310000000  0.4427690000000 1.0
C      1  0.5020010000000  0.5654650000000  0.4927630000000 1.0
C      1  0.5009260000000  0.5367330000000  0.5486470000000 1.0
C      1  0.5053950000000  0.4800280000000  0.5650720000000 1.0
C      1  0.5019230000000  0.4411910000000  0.5155250000000 1.0
C      1  0.5349510000000  0.4663510000000  0.5189980000000 1.0
C      1  0.5364990000000  0.4632720000000  0.4883730000000 1.0
C      1  0.5442340000000  0.4808830000000  0.4647720000000 1.0
C      1  0.5350730000000  0.5077110000000  0.4665630000000 1.0
C      1  0.5406180000000  0.5438640000000  0.4825030000000 1.0
C      1  0.5426730000000  0.5234820000000  0.5084750000000 1.0
C      1  0.5289220000000  0.5116390000000  0.5363890000000 1.0
C      1  0.5635030000000  0.5256550000000  0.4680360000000 1.0
C      1  0.5671850000000  0.5469130000000  0.5016540000000 1.0
C      1  0.5568660000000  0.5325750000000  0.5375000000000 1.0
C      1  0.5541400000000  0.4959970000000  0.5519780000000 1.0
C      1  0.5599540000000  0.4616620000000  0.5325720000000 1.0
C      1  0.5667230000000  0.4524840000000  0.4871550000000 1.0
C      1  0.5711930000000  0.4779970000000  0.4568280000000 1.0
C      1  0.4769830000000  0.5827160000000  0.4801660000000 1.0
C      1  0.4788470000000  0.5585000000000  0.5392620000000 1.0
C      1  0.4900490000000  0.4968120000000  0.5882950000000 1.0
C      1  0.4715460000000  0.4373450000000  0.5274550000000 1.0
C      1  0.4774350000000  0.4230630000000  0.4810680000000 1.0
C      1  0.4904130000000  0.4694890000000  0.4265830000000 1.0
C      1  0.4733290000000  0.5349460000000  0.4301660000000 1.0
C      1  0.5115840000000  0.4758580000000  0.5329570000000 1.0
END
