TITL C-2622963-3633-23 -0.00247547282271697 125000 -990.429555444819 0 0 190 (C1) n - 1
REM
REM in /nfs/bkarasulu/CARBON/AIRSS/Generating-Clusters/AIREBO/with-SteepDescent/Higher-Symm/SD-CG/HFTN-CG
REM
REM
REM
REM
REM
REM ./C.cell (b20cbc046b6831c77cfcea5457e17084)
REM
REM compiler GCC version 9.2.1 20190827 (Red Hat 9.2.1-1)
REM options -cpp -mtune=generic -march=x86-64 -g -O0 -fpre-include=/usr/include/finclude/math-vector-fortran.h
REM seed 1133916007 -142385214 -602452075 323983535 613625016 -736904433 138555943 1345384240 985872348 -1062271479 304795483 -531360012 -564850827 2143560479 -1475068713 -415599429 299742269 1856198744 -1108739943 1746896841 -296280113 1047466531 -1722002334 -1559773910 980513242 -1972234344 -1247823951 513711688 1788555671 -80826933 1482981286 -479935049 1758218421
REM
CELL 1.54180   50.00000   50.00000   50.00000   90.00000   90.00000   90.00000
LATT -1
SFAC C  
C      1  0.5556330000000  0.4709280000000  0.5418730000000 1.0
C      1  0.5437720000000  0.5580320000000  0.4796690000000 1.0
C      1  0.4821630000000  0.5477240000000  0.5500250000000 1.0
C      1  0.4330890000000  0.4822230000000  0.4587360000000 1.0
C      1  0.5672560000000  0.5138900000000  0.4577750000000 1.0
C      1  0.4477540000000  0.5198210000000  0.5479780000000 1.0
C      1  0.4446410000000  0.5496990000000  0.5106070000000 1.0
C      1  0.5473090000000  0.4454240000000  0.5124410000000 1.0
C      1  0.4587970000000  0.4440530000000  0.4721820000000 1.0
C      1  0.5203640000000  0.5399280000000  0.4254950000000 1.0
C      1  0.4830380000000  0.4543170000000  0.4375470000000 1.0
C      1  0.5178240000000  0.4574110000000  0.5698110000000 1.0
C      1  0.5689960000000  0.5867720000000  0.4902010000000 1.0
C      1  0.4759120000000  0.5435650000000  0.5891830000000 1.0
C      1  0.5912860000000  0.4863620000000  0.5496800000000 1.0
C      1  0.4407550000000  0.5884230000000  0.5190060000000 1.0
C      1  0.5440480000000  0.4075440000000  0.5217730000000 1.0
C      1  0.4458320000000  0.4083860000000  0.4823730000000 1.0
C      1  0.5253320000000  0.5756020000000  0.4035400000000 1.0
C      1  0.4802200000000  0.4584790000000  0.3986650000000 1.0
C      1  0.5356940000000  0.4382400000000  0.5999380000000 1.0
C      1  0.4008730000000  0.4885180000000  0.4365340000000 1.0
C      1  0.5884390000000  0.5110680000000  0.4158240000000 1.0
C      1  0.4085640000000  0.5214510000000  0.5436070000000 1.0
C      1  0.4013730000000  0.5422440000000  0.4536570000000 1.0
C      1  0.4585740000000  0.4122600000000  0.5384280000000 1.0
C      1  0.5369560000000  0.4654260000000  0.4008310000000 1.0
C      1  0.5933100000000  0.5337700000000  0.5428460000000 1.0
C      1  0.4099910000000  0.4681440000000  0.5446560000000 1.0
C      1  0.5965170000000  0.4630890000000  0.4585040000000 1.0
C      1  0.5400850000000  0.4023930000000  0.4682180000000 1.0
C      1  0.4665870000000  0.5953090000000  0.4657730000000 1.0
C      1  0.5327520000000  0.5913370000000  0.5364500000000 1.0
C      1  0.4676860000000  0.4611990000000  0.5994390000000 1.0
C      1  0.5303670000000  0.5541740000000  0.5908600000000 1.0
C      1  0.4757180000000  0.5579210000000  0.3990280000000 1.0
C      1  0.5475100000000  0.5096410000000  0.5650770000000 1.0
C      1  0.5693500000000  0.5480450000000  0.4997220000000 1.0
C      1  0.4883310000000  0.5772290000000  0.5657590000000 1.0
C      1  0.4513930000000  0.4960260000000  0.4335890000000 1.0
C      1  0.5463780000000  0.4972970000000  0.4366460000000 1.0
C      1  0.4442910000000  0.5014260000000  0.5832740000000 1.0
C      1  0.4174670000000  0.5436160000000  0.4916690000000 1.0
C      1  0.5885960000000  0.4360610000000  0.5055160000000 1.0
C      1  0.4335040000000  0.4535740000000  0.5115710000000 1.0
C      1  0.5043820000000  0.5632480000000  0.4443990000000 1.0
C      1  0.5008770000000  0.4346320000000  0.4553220000000 1.0
C      1  0.5047460000000  0.4334080000000  0.5495630000000 1.0
C      1  0.4987760000000  0.4869300000000  0.6272690000000 1.0
C      1  0.6256220000000  0.4866310000000  0.5021910000000 1.0
C      1  0.4928020000000  0.6317780000000  0.4905450000000 1.0
C      1  0.5090090000000  0.4994190000000  0.3720850000000 1.0
C      1  0.4884900000000  0.5132920000000  0.3735150000000 1.0
C      1  0.5153730000000  0.5072220000000  0.6199210000000 1.0
C      1  0.3812730000000  0.4863110000000  0.5042970000000 1.0
C      1  0.6318250000000  0.5080040000000  0.5184640000000 1.0
C      1  0.3793420000000  0.5046960000000  0.4881260000000 1.0
C      1  0.5115870000000  0.6315880000000  0.5110550000000 1.0
C      1  0.4969940000000  0.3730870000000  0.5171700000000 1.0
C      1  0.5106740000000  0.3704770000000  0.4932320000000 1.0
C      1  0.4545300000000  0.5701800000000  0.4853190000000 1.0
C      1  0.4857680000000  0.4666530000000  0.5765920000000 1.0
C      1  0.5736370000000  0.4809010000000  0.4630100000000 1.0
C      1  0.5425690000000  0.5766350000000  0.5090630000000 1.0
C      1  0.4429290000000  0.4209560000000  0.5095120000000 1.0
C      1  0.5388030000000  0.4223750000000  0.4913100000000 1.0
C      1  0.5095420000000  0.4587620000000  0.4167170000000 1.0
C      1  0.4867940000000  0.5355890000000  0.4221590000000 1.0
C      1  0.5057030000000  0.5419970000000  0.5727420000000 1.0
C      1  0.4279510000000  0.4932940000000  0.5458300000000 1.0
C      1  0.5774170000000  0.5103630000000  0.5488580000000 1.0
C      1  0.4169570000000  0.5120060000000  0.4555730000000 1.0
C      1  0.4847930000000  0.4132940000000  0.5683770000000 1.0
C      1  0.5739990000000  0.4877910000000  0.4192440000000 1.0
C      1  0.4224110000000  0.5772900000000  0.4922270000000 1.0
C      1  0.5242010000000  0.4251480000000  0.4324650000000 1.0
C      1  0.5000090000000  0.5721700000000  0.4135780000000 1.0
C      1  0.5174520000000  0.5803380000000  0.5731770000000 1.0
C      1  0.4314860000000  0.4778440000000  0.5999000000000 1.0
C      1  0.5698950000000  0.5272690000000  0.5836850000000 1.0
C      1  0.4409180000000  0.5214100000000  0.4135160000000 1.0
C      1  0.5817380000000  0.5743990000000  0.5168520000000 1.0
C      1  0.4243100000000  0.4318930000000  0.5361140000000 1.0
C      1  0.5889320000000  0.4285670000000  0.4774020000000 1.0
C      1  0.4529490000000  0.4984550000000  0.3830830000000 1.0
C      1  0.3951790000000  0.4551030000000  0.4837840000000 1.0
C      1  0.4947840000000  0.3926560000000  0.4549180000000 1.0
C      1  0.5452650000000  0.4903470000000  0.6000140000000 1.0
C      1  0.4555080000000  0.5024970000000  0.6216050000000 1.0
C      1  0.5578790000000  0.5124810000000  0.3839020000000 1.0
C      1  0.6120170000000  0.4580580000000  0.5083250000000 1.0
C      1  0.3817010000000  0.5531500000000  0.5067300000000 1.0
C      1  0.6084690000000  0.5409180000000  0.4962040000000 1.0
C      1  0.5125880000000  0.3772420000000  0.5442690000000 1.0
C      1  0.4856170000000  0.6067860000000  0.5400340000000 1.0
C      1  0.5153360000000  0.6029690000000  0.4620800000000 1.0
C      1  0.5527230000000  0.4681330000000  0.4769050000000 1.0
C      1  0.4779420000000  0.5578790000000  0.4639280000000 1.0
C      1  0.4636460000000  0.4858260000000  0.5627590000000 1.0
C      1  0.4494090000000  0.4675310000000  0.5381930000000 1.0
C      1  0.5576290000000  0.5461760000000  0.5306510000000 1.0
C      1  0.4383300000000  0.5363670000000  0.4643560000000 1.0
C      1  0.5212220000000  0.5571270000000  0.5269770000000 1.0
C      1  0.4718340000000  0.4430600000000  0.5456620000000 1.0
C      1  0.5307140000000  0.4454540000000  0.4675400000000 1.0
C      1  0.5343670000000  0.4653270000000  0.4401300000000 1.0
C      1  0.4642740000000  0.5252090000000  0.4454070000000 1.0
C      1  0.5328130000000  0.5374810000000  0.5522160000000 1.0
C      1  0.5787730000000  0.5640880000000  0.5484390000000 1.0
C      1  0.5482510000000  0.5730350000000  0.5606050000000 1.0
C      1  0.5622180000000  0.5539280000000  0.5848840000000 1.0
C      1  0.4238280000000  0.5667990000000  0.4599110000000 1.0
C      1  0.5711970000000  0.4414590000000  0.4514050000000 1.0
C      1  0.4191260000000  0.4453930000000  0.5615640000000 1.0
C      1  0.4526670000000  0.5703490000000  0.4455990000000 1.0
C      1  0.5480960000000  0.4173340000000  0.4447290000000 1.0
C      1  0.4535480000000  0.4264180000000  0.5689500000000 1.0
C      1  0.4507340000000  0.5525080000000  0.4195190000000 1.0
C      1  0.5618550000000  0.4566850000000  0.4223590000000 1.0
C      1  0.4387770000000  0.4479060000000  0.5874180000000 1.0
C      1  0.4647470000000  0.5836510000000  0.5420990000000 1.0
C      1  0.5308750000000  0.4679020000000  0.5994100000000 1.0
C      1  0.5873450000000  0.5304140000000  0.4797000000000 1.0
C      1  0.5249110000000  0.5778120000000  0.4593860000000 1.0
C      1  0.4755890000000  0.4149790000000  0.4667690000000 1.0
C      1  0.5231500000000  0.4057810000000  0.5409500000000 1.0
C      1  0.4596380000000  0.4811440000000  0.4039430000000 1.0
C      1  0.5401360000000  0.5171710000000  0.4097700000000 1.0
C      1  0.4614360000000  0.5233430000000  0.6010680000000 1.0
C      1  0.4031120000000  0.5375790000000  0.5221890000000 1.0
C      1  0.5843730000000  0.4641240000000  0.5249050000000 1.0
C      1  0.4009160000000  0.4742480000000  0.4663550000000 1.0
C      1  0.5006960000000  0.4767910000000  0.5328780000000 1.0
C      1  0.5249740000000  0.4962270000000  0.4734460000000 1.0
C      1  0.4757230000000  0.5256870000000  0.4960990000000 1.0
C      1  0.4992510000000  0.4775360000000  0.4729980000000 1.0
C      1  0.4907920000000  0.5202550000000  0.4661020000000 1.0
C      1  0.5046500000000  0.5207830000000  0.5308400000000 1.0
C      1  0.4744660000000  0.4959550000000  0.5257500000000 1.0
C      1  0.5299860000000  0.5019380000000  0.5231280000000 1.0
C      1  0.4660430000000  0.4990360000000  0.4758220000000 1.0
C      1  0.5165840000000  0.5238920000000  0.5006930000000 1.0
C      1  0.4773290000000  0.4721580000000  0.5060080000000 1.0
C      1  0.5188620000000  0.4732910000000  0.4978150000000 1.0
C      1  0.4484960000000  0.4723120000000  0.4874380000000 1.0
C      1  0.4884450000000  0.4489820000000  0.4837470000000 1.0
C      1  0.4792730000000  0.4837030000000  0.4484920000000 1.0
C      1  0.5504640000000  0.4786550000000  0.5091630000000 1.0
C      1  0.4502430000000  0.5165430000000  0.5148760000000 1.0
C      1  0.5434760000000  0.5240190000000  0.4798800000000 1.0
C      1  0.5144020000000  0.4482350000000  0.5205190000000 1.0
C      1  0.4898390000000  0.5482570000000  0.5173560000000 1.0
C      1  0.5055180000000  0.5471970000000  0.4807120000000 1.0
C      1  0.5269040000000  0.4854620000000  0.5528120000000 1.0
C      1  0.4806960000000  0.5139110000000  0.5539750000000 1.0
C      1  0.5174960000000  0.5131710000000  0.4462760000000 1.0
C      1  0.4895210000000  0.6113910000000  0.4711580000000 1.0
C      1  0.4721420000000  0.4795140000000  0.6207740000000 1.0
C      1  0.6171350000000  0.4674990000000  0.4765970000000 1.0
C      1  0.5118580000000  0.6118310000000  0.5311140000000 1.0
C      1  0.4848700000000  0.3943650000000  0.5411440000000 1.0
C      1  0.5176070000000  0.3845630000000  0.4696050000000 1.0
C      1  0.5343520000000  0.4902010000000  0.3852200000000 1.0
C      1  0.4644940000000  0.5285910000000  0.3903690000000 1.0
C      1  0.5319640000000  0.5202920000000  0.5934090000000 1.0
C      1  0.4008260000000  0.4623570000000  0.5149920000000 1.0
C      1  0.6137380000000  0.5300470000000  0.5221240000000 1.0
C      1  0.3868950000000  0.5333140000000  0.4809160000000 1.0
C      1  0.4595330000000  0.4437490000000  0.4179610000000 1.0
C      1  0.4196300000000  0.4618790000000  0.4335950000000 1.0
C      1  0.4394550000000  0.4249880000000  0.4541510000000 1.0
C      1  0.5424600000000  0.4332690000000  0.5710090000000 1.0
C      1  0.4590730000000  0.5649430000000  0.5775990000000 1.0
C      1  0.5457850000000  0.5618850000000  0.4201420000000 1.0
C      1  0.5794540000000  0.4615310000000  0.5642500000000 1.0
C      1  0.4257790000000  0.5274680000000  0.5718210000000 1.0
C      1  0.5799410000000  0.5325230000000  0.4339040000000 1.0
C      1  0.5680600000000  0.4279770000000  0.5299530000000 1.0
C      1  0.4312690000000  0.5631700000000  0.5373630000000 1.0
C      1  0.5691580000000  0.5715490000000  0.4615270000000 1.0
C      1  0.4923320000000  0.5738440000000  0.4972080000000 1.0
C      1  0.5627870000000  0.5089120000000  0.5017300000000 1.0
C      1  0.4995020000000  0.4293550000000  0.5025000000000 1.0
C      1  0.4984540000000  0.4970940000000  0.4294270000000 1.0
C      1  0.4324560000000  0.4965020000000  0.5026660000000 1.0
C      1  0.5051850000000  0.5021000000000  0.5702890000000 1.0
C      1  0.4372450000000  0.5560440000000  0.5631930000000 1.0
C      1  0.5690850000000  0.5588180000000  0.4356430000000 1.0
C      1  0.5665640000000  0.4360750000000  0.5583610000000 1.0
C      1  0.4349890000000  0.4389150000000  0.4301900000000 1.0
END
