TITL C-2622957-9142-348 -0.00184898676674685 125000 -208.782781027962 0 0 40 (C1) n - 1
REM
REM in /nfs/bkarasulu/CARBON/AIRSS/Generating-Clusters/AIREBO/with-SteepDescent/Higher-Symm/SD-CG/HFTN-CG
REM
REM
REM
REM
REM
REM ./C.cell (b20cbc046b6831c77cfcea5457e17084)
REM
REM compiler GCC version 9.2.1 20190827 (Red Hat 9.2.1-1)
REM options -cpp -mtune=generic -march=x86-64 -g -O0 -fpre-include=/usr/include/finclude/math-vector-fortran.h
REM seed -1954157421 18187409 -881898346 1046407844 -370246232 -1770770566 2044810882 1339769758 1752038306 -1424369887 -273872108 -2081557241 28065904 -1995054137 -1352437916 1651026484 1491654913 2123604968 -593373200 1514841954 1122733461 1835518703 253459259 -1805431010 -1799919822 -1070077920 1880295823 1676925699 -2063794853 192566112 2091459962 -1722475518 -1065834393
REM
CELL 1.54180   50.00000   50.00000   50.00000   90.00000   90.00000   90.00000
LATT -1
SFAC C  
C      1  0.5217840000000  0.4486640000000  0.5114160000000 1.0
C      1  0.4715650000000  0.4498800000000  0.4850030000000 1.0
C      1  0.5211000000000  0.5509800000000  0.5146740000000 1.0
C      1  0.4835060000000  0.5547000000000  0.4851410000000 1.0
C      1  0.4927970000000  0.5161390000000  0.4456160000000 1.0
C      1  0.5007550000000  0.5137270000000  0.5552660000000 1.0
C      1  0.4850910000000  0.4848180000000  0.4438230000000 1.0
C      1  0.5036830000000  0.4870140000000  0.5488140000000 1.0
C      1  0.5091290000000  0.4433830000000  0.4513080000000 1.0
C      1  0.5019790000000  0.4382650000000  0.5604930000000 1.0
C      1  0.5088110000000  0.5589620000000  0.4381200000000 1.0
C      1  0.4978860000000  0.5635940000000  0.5611410000000 1.0
C      1  0.4739540000000  0.5308190000000  0.5431980000000 1.0
C      1  0.5243430000000  0.5156340000000  0.4583300000000 1.0
C      1  0.4763960000000  0.4678510000000  0.5421270000000 1.0
C      1  0.5171370000000  0.4822210000000  0.4548930000000 1.0
C      1  0.4861890000000  0.5461800000000  0.4523340000000 1.0
C      1  0.5128460000000  0.5434290000000  0.5468430000000 1.0
C      1  0.4806280000000  0.4550060000000  0.4567230000000 1.0
C      1  0.5149350000000  0.4572740000000  0.5437180000000 1.0
C      1  0.5088040000000  0.5337250000000  0.4825700000000 1.0
C      1  0.4891550000000  0.5394890000000  0.5150480000000 1.0
C      1  0.5124010000000  0.4599000000000  0.4801160000000 1.0
C      1  0.4898600000000  0.4584380000000  0.5129020000000 1.0
C      1  0.5407210000000  0.4741780000000  0.5039230000000 1.0
C      1  0.4590340000000  0.4766960000000  0.4958680000000 1.0
C      1  0.5402310000000  0.5271680000000  0.5053950000000 1.0
C      1  0.4582500000000  0.5220100000000  0.4968730000000 1.0
C      1  0.5117200000000  0.5140280000000  0.5169310000000 1.0
C      1  0.4823770000000  0.5151470000000  0.4841810000000 1.0
C      1  0.5093600000000  0.4861460000000  0.5093690000000 1.0
C      1  0.4896540000000  0.4849730000000  0.4835230000000 1.0
C      1  0.5316360000000  0.5423540000000  0.4390320000000 1.0
C      1  0.4696920000000  0.5570180000000  0.5613950000000 1.0
C      1  0.5294590000000  0.4577410000000  0.4342880000000 1.0
C      1  0.4734630000000  0.4433630000000  0.5628000000000 1.0
C      1  0.4571270000000  0.4849130000000  0.5229300000000 1.0
C      1  0.5573140000000  0.4876520000000  0.4880560000000 1.0
C      1  0.4565610000000  0.5128880000000  0.5239610000000 1.0
C      1  0.5486650000000  0.5136350000000  0.4818570000000 1.0
END
