TITL C-2622968-4806-622 -3.96357675839242e-05 125000 -440.917461397121 0 0 77 (C1) n - 1
REM
REM in /nfs/bkarasulu/CARBON/AIRSS/Generating-Clusters/AIREBO/with-SteepDescent/Higher-Symm/SD-CG/HFTN-CG
REM
REM
REM
REM
REM
REM ./C.cell (b20cbc046b6831c77cfcea5457e17084)
REM
REM compiler GCC version 9.2.1 20190827 (Red Hat 9.2.1-1)
REM options -cpp -mtune=generic -march=x86-64 -g -O0 -fpre-include=/usr/include/finclude/math-vector-fortran.h
REM seed 226618038 -1671970826 1625333552 28641309 959576094 876310656 -1290934669 -756384364 -1568504577 -1249547383 1693711012 642818601 -1205739081 556496758 1710347407 1196385143 913282159 1832639952 375459063 859371001 -341807748 396044719 -177533574 388749973 -1945055136 -1281715091 1750177576 198925340 1546100990 1771285453 -1033279507 -1305929216 519873281
REM
CELL 1.54180   50.00000   50.00000   50.00000   90.00000   90.00000   90.00000
LATT -1
SFAC C  
C      1  0.5216240000000  0.4965980000000  0.4495940000000 1.0
C      1  0.4862730000000  0.5003380000000  0.5480860000000 1.0
C      1  0.4790900000000  0.5064050000000  0.4473050000000 1.0
C      1  0.5194470000000  0.5048930000000  0.5540250000000 1.0
C      1  0.4462520000000  0.4926900000000  0.5191120000000 1.0
C      1  0.5533420000000  0.4945990000000  0.4814620000000 1.0
C      1  0.4456860000000  0.5038230000000  0.4775250000000 1.0
C      1  0.5522150000000  0.5013240000000  0.5290860000000 1.0
C      1  0.4662850000000  0.5231080000000  0.5528440000000 1.0
C      1  0.5364300000000  0.5232220000000  0.4448190000000 1.0
C      1  0.5359110000000  0.4777540000000  0.5567290000000 1.0
C      1  0.4621310000000  0.4774890000000  0.4415560000000 1.0
C      1  0.5572660000000  0.5232390000000  0.4635540000000 1.0
C      1  0.4442170000000  0.5215710000000  0.5357470000000 1.0
C      1  0.5611710000000  0.4734180000000  0.5406890000000 1.0
C      1  0.4423730000000  0.4768480000000  0.4620190000000 1.0
C      1  0.4776710000000  0.4537520000000  0.4370450000000 1.0
C      1  0.5206110000000  0.4545770000000  0.5624150000000 1.0
C      1  0.5192680000000  0.5445520000000  0.4366030000000 1.0
C      1  0.4809650000000  0.5458380000000  0.5605780000000 1.0
C      1  0.4336520000000  0.4549400000000  0.4783900000000 1.0
C      1  0.5658710000000  0.4534430000000  0.5206190000000 1.0
C      1  0.4376290000000  0.5441760000000  0.5195380000000 1.0
C      1  0.5632680000000  0.5462510000000  0.4785530000000 1.0
C      1  0.5294210000000  0.5329990000000  0.5054770000000 1.0
C      1  0.4662230000000  0.5241270000000  0.4955160000000 1.0
C      1  0.4635620000000  0.4709620000000  0.4994810000000 1.0
C      1  0.5356720000000  0.4688820000000  0.4950650000000 1.0
C      1  0.5106940000000  0.5314710000000  0.5346120000000 1.0
C      1  0.4983780000000  0.5272900000000  0.4659790000000 1.0
C      1  0.5025680000000  0.4723390000000  0.4639040000000 1.0
C      1  0.5002910000000  0.4747540000000  0.5333050000000 1.0
C      1  0.4649310000000  0.5373130000000  0.4464940000000 1.0
C      1  0.5319240000000  0.5425370000000  0.5587610000000 1.0
C      1  0.5296330000000  0.4574180000000  0.4497170000000 1.0
C      1  0.4738800000000  0.4605440000000  0.5493360000000 1.0
C      1  0.4521270000000  0.5425260000000  0.4706320000000 1.0
C      1  0.5503150000000  0.5341150000000  0.5322750000000 1.0
C      1  0.4507610000000  0.4606290000000  0.5295290000000 1.0
C      1  0.5509850000000  0.4569690000000  0.4683410000000 1.0
C      1  0.5087340000000  0.4871260000000  0.4237760000000 1.0
C      1  0.4929830000000  0.4829290000000  0.5908940000000 1.0
C      1  0.4905550000000  0.5084190000000  0.4151820000000 1.0
C      1  0.5037950000000  0.5078140000000  0.5831630000000 1.0
C      1  0.4139420000000  0.4894570000000  0.5090140000000 1.0
C      1  0.5847110000000  0.4903730000000  0.4919620000000 1.0
C      1  0.4176490000000  0.5113040000000  0.4898500000000 1.0
C      1  0.5749640000000  0.5116450000000  0.5104310000000 1.0
C      1  0.4254750000000  0.4612790000000  0.5060130000000 1.0
C      1  0.5744850000000  0.4615000000000  0.4926770000000 1.0
C      1  0.5700940000000  0.5402850000000  0.5051900000000 1.0
C      1  0.4293030000000  0.5387390000000  0.4921940000000 1.0
C      1  0.5045780000000  0.4583430000000  0.4266700000000 1.0
C      1  0.4939420000000  0.4609770000000  0.5719760000000 1.0
C      1  0.5055480000000  0.5369260000000  0.5738320000000 1.0
C      1  0.4925390000000  0.5377010000000  0.4266520000000 1.0
C      1  0.4766850000000  0.4357010000000  0.4587480000000 1.0
C      1  0.5216900000000  0.4362640000000  0.5406330000000 1.0
C      1  0.5191290000000  0.5652020000000  0.4557770000000 1.0
C      1  0.4801270000000  0.5653090000000  0.5399550000000 1.0
C      1  0.4519620000000  0.4334940000000  0.4766350000000 1.0
C      1  0.5466390000000  0.4327210000000  0.5224430000000 1.0
C      1  0.4537810000000  0.5687310000000  0.5251600000000 1.0
C      1  0.5461260000000  0.5690870000000  0.4734240000000 1.0
C      1  0.4754360000000  0.4395790000000  0.4983180000000 1.0
C      1  0.5234620000000  0.4385150000000  0.5009230000000 1.0
C      1  0.5239420000000  0.5635720000000  0.4949380000000 1.0
C      1  0.4734660000000  0.5554000000000  0.5018550000000 1.0
C      1  0.5020180000000  0.4420680000000  0.4779430000000 1.0
C      1  0.4967990000000  0.4432690000000  0.5210670000000 1.0
C      1  0.5030830000000  0.5598240000000  0.5183410000000 1.0
C      1  0.4958780000000  0.5568120000000  0.4791380000000 1.0
C      1  0.5234020000000  0.5107070000000  0.4804990000000 1.0
C      1  0.4768680000000  0.4902300000000  0.4771600000000 1.0
C      1  0.4782120000000  0.5040260000000  0.5164690000000 1.0
C      1  0.5268020000000  0.4859260000000  0.5186560000000 1.0
C      1  0.5024050000000  0.4951050000000  0.4990760000000 1.0
END
