TITL C-2622958-629-442 -0.00572428835121468 125000 -1025.05193503789 0 0 180 (C1) n - 1
REM
REM in /nfs/bkarasulu/CARBON/AIRSS/Generating-Clusters/AIREBO/with-SteepDescent/Higher-Symm/SD-CG/HFTN-CG
REM
REM
REM
REM
REM
REM ./C.cell (b20cbc046b6831c77cfcea5457e17084)
REM
REM compiler GCC version 9.2.1 20190827 (Red Hat 9.2.1-1)
REM options -cpp -mtune=generic -march=x86-64 -g -O0 -fpre-include=/usr/include/finclude/math-vector-fortran.h
REM seed -682459608 -2044312100 -772954478 434019899 -1327077484 -2032460390 -321012085 -2040983944 -1445622120 2047982304 1768618236 -610683970 1888212501 -520189750 397699312 -351215952 -1756245814 576919325 -1667364544 -1474546912 385771308 -1736311308 365810574 -667576435 -2049139772 -971414234 1428919337 217441274 623035274 594865987 -514864435 1181587604 1904147219
REM
CELL 1.54180   50.00000   50.00000   50.00000   90.00000   90.00000   90.00000
LATT -1
SFAC C  
C      1  0.5326470000000  0.5267850000000  0.4958230000000 1.0
C      1  0.5682790000000  0.5025560000000  0.4830480000000 1.0
C      1  0.5484940000000  0.4786120000000  0.4888650000000 1.0
C      1  0.5209810000000  0.4583700000000  0.4884800000000 1.0
C      1  0.4876250000000  0.4588050000000  0.4818060000000 1.0
C      1  0.4616520000000  0.4770520000000  0.4941740000000 1.0
C      1  0.4498310000000  0.5084940000000  0.4888210000000 1.0
C      1  0.4782860000000  0.5257940000000  0.4818950000000 1.0
C      1  0.5052020000000  0.5384190000000  0.4966320000000 1.0
C      1  0.5247900000000  0.4177300000000  0.5799070000000 1.0
C      1  0.4582000000000  0.4186850000000  0.5773680000000 1.0
C      1  0.4051400000000  0.4563500000000  0.5768380000000 1.0
C      1  0.4113670000000  0.5289850000000  0.5779100000000 1.0
C      1  0.4392770000000  0.5873630000000  0.5885210000000 1.0
C      1  0.5006130000000  0.5958130000000  0.5817670000000 1.0
C      1  0.5486620000000  0.5767220000000  0.5919760000000 1.0
C      1  0.5901820000000  0.5089870000000  0.5759250000000 1.0
C      1  0.5870410000000  0.4288960000000  0.5610270000000 1.0
C      1  0.4986930000000  0.5641420000000  0.4785030000000 1.0
C      1  0.5498610000000  0.5233610000000  0.4707360000000 1.0
C      1  0.5933540000000  0.5031220000000  0.4664080000000 1.0
C      1  0.5536310000000  0.4596320000000  0.4656590000000 1.0
C      1  0.5091850000000  0.4373920000000  0.4644620000000 1.0
C      1  0.4694540000000  0.4376880000000  0.4622160000000 1.0
C      1  0.4363970000000  0.4750990000000  0.4714800000000 1.0
C      1  0.4341450000000  0.5257860000000  0.4639490000000 1.0
C      1  0.4656320000000  0.5515130000000  0.4640840000000 1.0
C      1  0.4729070000000  0.5352450000000  0.4106960000000 1.0
C      1  0.5042580000000  0.5483120000000  0.4089440000000 1.0
C      1  0.5368730000000  0.5358490000000  0.4106030000000 1.0
C      1  0.5495960000000  0.5050770000000  0.4037060000000 1.0
C      1  0.5319810000000  0.4761780000000  0.4003930000000 1.0
C      1  0.5156540000000  0.4496990000000  0.4074480000000 1.0
C      1  0.4819110000000  0.4543400000000  0.4043660000000 1.0
C      1  0.4598000000000  0.4798290000000  0.4085540000000 1.0
C      1  0.4523550000000  0.5110070000000  0.3982730000000 1.0
C      1  0.5742990000000  0.4427550000000  0.5812890000000 1.0
C      1  0.5240650000000  0.4441280000000  0.5900740000000 1.0
C      1  0.4709230000000  0.4405650000000  0.5878250000000 1.0
C      1  0.4241310000000  0.4698080000000  0.5914620000000 1.0
C      1  0.4356480000000  0.5193400000000  0.5894970000000 1.0
C      1  0.4416180000000  0.5655500000000  0.6055310000000 1.0
C      1  0.4962490000000  0.5702320000000  0.5856790000000 1.0
C      1  0.5335090000000  0.5560350000000  0.5978540000000 1.0
C      1  0.5668160000000  0.5124990000000  0.5877590000000 1.0
C      1  0.5957540000000  0.5264900000000  0.4341640000000 1.0
C      1  0.5878190000000  0.4560900000000  0.4284780000000 1.0
C      1  0.5375270000000  0.4010090000000  0.4400190000000 1.0
C      1  0.4708930000000  0.4092770000000  0.4343290000000 1.0
C      1  0.4240270000000  0.4414710000000  0.4335390000000 1.0
C      1  0.4113620000000  0.4912630000000  0.4353540000000 1.0
C      1  0.4205470000000  0.5803530000000  0.4448540000000 1.0
C      1  0.4849230000000  0.5955470000000  0.4389830000000 1.0
C      1  0.5525530000000  0.5705420000000  0.4462150000000 1.0
C      1  0.5303340000000  0.4246780000000  0.5290800000000 1.0
C      1  0.4899900000000  0.4141800000000  0.5394110000000 1.0
C      1  0.4350400000000  0.4622790000000  0.5378640000000 1.0
C      1  0.4093740000000  0.5220620000000  0.5283120000000 1.0
C      1  0.4310820000000  0.5645080000000  0.5443140000000 1.0
C      1  0.4681090000000  0.5986210000000  0.5447370000000 1.0
C      1  0.5547410000000  0.5675960000000  0.5419130000000 1.0
C      1  0.6113470000000  0.5159270000000  0.5305350000000 1.0
C      1  0.5839120000000  0.4712340000000  0.5413710000000 1.0
C      1  0.5999040000000  0.4516170000000  0.4599590000000 1.0
C      1  0.5538130000000  0.3967740000000  0.4631280000000 1.0
C      1  0.4746650000000  0.4047980000000  0.4669500000000 1.0
C      1  0.4091780000000  0.4369540000000  0.4638610000000 1.0
C      1  0.4072050000000  0.5136980000000  0.4537250000000 1.0
C      1  0.4079020000000  0.5822850000000  0.4730830000000 1.0
C      1  0.4806780000000  0.5924520000000  0.4728710000000 1.0
C      1  0.5518700000000  0.5819390000000  0.4726930000000 1.0
C      1  0.6076420000000  0.5310630000000  0.4656970000000 1.0
C      1  0.5473350000000  0.5170230000000  0.5205670000000 1.0
C      1  0.5761290000000  0.5121450000000  0.5119830000000 1.0
C      1  0.5391800000000  0.4759070000000  0.5192960000000 1.0
C      1  0.5097050000000  0.4669070000000  0.5186890000000 1.0
C      1  0.4789800000000  0.4654340000000  0.5282140000000 1.0
C      1  0.4677310000000  0.4955550000000  0.5221520000000 1.0
C      1  0.4577610000000  0.5269590000000  0.5159440000000 1.0
C      1  0.4730680000000  0.5527780000000  0.5278400000000 1.0
C      1  0.5019260000000  0.5490020000000  0.5249090000000 1.0
C      1  0.4902620000000  0.6145250000000  0.4935380000000 1.0
C      1  0.5531030000000  0.5933760000000  0.5007930000000 1.0
C      1  0.6308170000000  0.5234960000000  0.4872320000000 1.0
C      1  0.6100860000000  0.4478400000000  0.4903260000000 1.0
C      1  0.5464860000000  0.3853770000000  0.4885210000000 1.0
C      1  0.4782710000000  0.3893500000000  0.4967930000000 1.0
C      1  0.4127480000000  0.4327710000000  0.4980400000000 1.0
C      1  0.3888740000000  0.5098850000000  0.4754070000000 1.0
C      1  0.3966810000000  0.5837930000000  0.5007980000000 1.0
C      1  0.5996040000000  0.4993380000000  0.5511470000000 1.0
C      1  0.5908760000000  0.4419900000000  0.5361560000000 1.0
C      1  0.5166000000000  0.4105850000000  0.5554640000000 1.0
C      1  0.4619670000000  0.4068740000000  0.5537880000000 1.0
C      1  0.4069400000000  0.4549050000000  0.5501390000000 1.0
C      1  0.4072960000000  0.5422990000000  0.5541750000000 1.0
C      1  0.4433520000000  0.5902510000000  0.5618710000000 1.0
C      1  0.4946760000000  0.6095630000000  0.5597110000000 1.0
C      1  0.5613200000000  0.5816780000000  0.5683860000000 1.0
C      1  0.4638690000000  0.4045560000000  0.5198770000000 1.0
C      1  0.4060290000000  0.4538520000000  0.5174290000000 1.0
C      1  0.3922210000000  0.5253480000000  0.4990960000000 1.0
C      1  0.4193760000000  0.5847360000000  0.5195990000000 1.0
C      1  0.4939390000000  0.6106720000000  0.5257600000000 1.0
C      1  0.5691030000000  0.5769250000000  0.5165780000000 1.0
C      1  0.6268980000000  0.5061240000000  0.5086770000000 1.0
C      1  0.5914470000000  0.4356590000000  0.5079660000000 1.0
C      1  0.5334270000000  0.3973890000000  0.5089970000000 1.0
C      1  0.4434390000000  0.4211130000000  0.5058820000000 1.0
C      1  0.4038480000000  0.4796990000000  0.5042360000000 1.0
C      1  0.4099520000000  0.5516360000000  0.4984080000000 1.0
C      1  0.4440690000000  0.5863490000000  0.5040700000000 1.0
C      1  0.5209820000000  0.5972800000000  0.5124390000000 1.0
C      1  0.5868720000000  0.5591830000000  0.5041730000000 1.0
C      1  0.6173390000000  0.4783880000000  0.4993610000000 1.0
C      1  0.5677400000000  0.4291910000000  0.4938640000000 1.0
C      1  0.5044640000000  0.4097910000000  0.5025680000000 1.0
C      1  0.4429360000000  0.5281050000000  0.4250830000000 1.0
C      1  0.4791670000000  0.5645590000000  0.4262140000000 1.0
C      1  0.5261590000000  0.5597120000000  0.4323400000000 1.0
C      1  0.5652360000000  0.5255500000000  0.4263050000000 1.0
C      1  0.5701150000000  0.4848740000000  0.4218160000000 1.0
C      1  0.5379720000000  0.4317810000000  0.4258470000000 1.0
C      1  0.4937670000000  0.4289570000000  0.4232240000000 1.0
C      1  0.4524240000000  0.4489300000000  0.4206740000000 1.0
C      1  0.4284580000000  0.4921450000000  0.4134250000000 1.0
C      1  0.4038720000000  0.5517310000000  0.4649540000000 1.0
C      1  0.4507740000000  0.5863660000000  0.4772460000000 1.0
C      1  0.5198010000000  0.5894900000000  0.4801890000000 1.0
C      1  0.5893490000000  0.5543150000000  0.4763640000000 1.0
C      1  0.6158090000000  0.4794450000000  0.4671480000000 1.0
C      1  0.5694320000000  0.4195560000000  0.4672480000000 1.0
C      1  0.5034700000000  0.3920660000000  0.4735340000000 1.0
C      1  0.4287180000000  0.4121160000000  0.4764110000000 1.0
C      1  0.3904510000000  0.4818120000000  0.4799740000000 1.0
C      1  0.4556020000000  0.5424750000000  0.5527330000000 1.0
C      1  0.5155560000000  0.5378760000000  0.5502960000000 1.0
C      1  0.5457440000000  0.5380170000000  0.5454340000000 1.0
C      1  0.5454520000000  0.5052290000000  0.5524170000000 1.0
C      1  0.5511470000000  0.4718090000000  0.5497770000000 1.0
C      1  0.5257560000000  0.4491910000000  0.5504910000000 1.0
C      1  0.4956780000000  0.4615450000000  0.5557520000000 1.0
C      1  0.4488410000000  0.4868900000000  0.5483360000000 1.0
C      1  0.4366900000000  0.5164060000000  0.5478440000000 1.0
C      1  0.5321940000000  0.4607020000000  0.4418990000000 1.0
C      1  0.5020880000000  0.4614900000000  0.4447270000000 1.0
C      1  0.4732310000000  0.4634160000000  0.4423420000000 1.0
C      1  0.4613380000000  0.4861260000000  0.4552640000000 1.0
C      1  0.4603390000000  0.5139790000000  0.4481610000000 1.0
C      1  0.4872960000000  0.5290600000000  0.4505500000000 1.0
C      1  0.5142080000000  0.5296580000000  0.4428420000000 1.0
C      1  0.5336600000000  0.5111070000000  0.4494840000000 1.0
C      1  0.5441190000000  0.4877200000000  0.4388890000000 1.0
C      1  0.5092420000000  0.4116910000000  0.4481210000000 1.0
C      1  0.4432860000000  0.4217680000000  0.4498800000000 1.0
C      1  0.4090880000000  0.4685000000000  0.4587230000000 1.0
C      1  0.4238580000000  0.5469560000000  0.4393860000000 1.0
C      1  0.4528430000000  0.5735320000000  0.4458140000000 1.0
C      1  0.5094960000000  0.5781640000000  0.4498050000000 1.0
C      1  0.5668230000000  0.5445130000000  0.4546200000000 1.0
C      1  0.5973610000000  0.4858520000000  0.4394810000000 1.0
C      1  0.5658290000000  0.4393390000000  0.4434760000000 1.0
C      1  0.4750790000000  0.4732890000000  0.5801490000000 1.0
C      1  0.4467390000000  0.4903910000000  0.5816790000000 1.0
C      1  0.4520300000000  0.5402740000000  0.5977280000000 1.0
C      1  0.4750420000000  0.5439710000000  0.5790020000000 1.0
C      1  0.5086750000000  0.5390380000000  0.5802860000000 1.0
C      1  0.5348010000000  0.5222590000000  0.5941730000000 1.0
C      1  0.5413980000000  0.4916560000000  0.5829460000000 1.0
C      1  0.5481820000000  0.4611960000000  0.5820410000000 1.0
C      1  0.4990780000000  0.4539350000000  0.5948020000000 1.0
C      1  0.4653250000000  0.5802330000000  0.5210180000000 1.0
C      1  0.5247330000000  0.5710950000000  0.5300630000000 1.0
C      1  0.5932870000000  0.5367810000000  0.5193870000000 1.0
C      1  0.5905580000000  0.4856450000000  0.5148090000000 1.0
C      1  0.5420700000000  0.4357230000000  0.5025660000000 1.0
C      1  0.4945580000000  0.4371750000000  0.5168940000000 1.0
C      1  0.4454790000000  0.4523950000000  0.5111130000000 1.0
C      1  0.4225430000000  0.5009040000000  0.5077340000000 1.0
C      1  0.4355570000000  0.5487180000000  0.5145340000000 1.0
END
