TITL C-2622956-4641-407 -2.58587308762711e-05 125000 -940.333814828844 0 0 162 (C1) n - 1
REM
REM in /nfs/bkarasulu/CARBON/AIRSS/Generating-Clusters/AIREBO/with-SteepDescent/Higher-Symm/SD-CG/HFTN-CG
REM
REM
REM
REM
REM
REM ./C.cell (b20cbc046b6831c77cfcea5457e17084)
REM
REM compiler GCC version 9.2.1 20190827 (Red Hat 9.2.1-1)
REM options -cpp -mtune=generic -march=x86-64 -g -O0 -fpre-include=/usr/include/finclude/math-vector-fortran.h
REM seed 593322842 123224860 1938434620 -1683523387 -1759610490 2120374011 -1634313838 587236063 513701525 772423801 -717801551 -371130912 415473709 1353751254 -1236461879 1451313793 -1267367798 -301495826 1576196483 1000780414 1468578522 1586603725 1295491217 -1236554573 1456885452 -1857075535 -1637489509 -2139738483 1995905212 -2138067893 960509069 -1528334623 -1337584125
REM
CELL 1.54180   50.00000   50.00000   50.00000   90.00000   90.00000   90.00000
LATT -1
SFAC C  
C      1  0.4015440000000  0.5059030000000  0.4493000000000 1.0
C      1  0.4093150000000  0.5078750000000  0.5463620000000 1.0
C      1  0.4697960000000  0.5040710000000  0.6067110000000 1.0
C      1  0.5792250000000  0.5081490000000  0.5765800000000 1.0
C      1  0.6106750000000  0.5059060000000  0.5014890000000 1.0
C      1  0.5624710000000  0.5036100000000  0.4162760000000 1.0
C      1  0.4622870000000  0.5073890000000  0.3983530000000 1.0
C      1  0.4186440000000  0.5456470000000  0.5129400000000 1.0
C      1  0.4657140000000  0.5426050000000  0.5707650000000 1.0
C      1  0.5329490000000  0.5495980000000  0.5803150000000 1.0
C      1  0.5757190000000  0.5466390000000  0.5187760000000 1.0
C      1  0.5674530000000  0.5441590000000  0.4519540000000 1.0
C      1  0.5028550000000  0.5433670000000  0.4200730000000 1.0
C      1  0.4433100000000  0.5423980000000  0.4540590000000 1.0
C      1  0.5279350000000  0.4146820000000  0.4410480000000 1.0
C      1  0.4715560000000  0.4121760000000  0.4353580000000 1.0
C      1  0.4331870000000  0.4156000000000  0.4839710000000 1.0
C      1  0.4428280000000  0.4090250000000  0.5397810000000 1.0
C      1  0.4970060000000  0.4177130000000  0.5649520000000 1.0
C      1  0.5440180000000  0.4174500000000  0.5456170000000 1.0
C      1  0.5580170000000  0.4144370000000  0.4874550000000 1.0
C      1  0.4398120000000  0.4549450000000  0.5571920000000 1.0
C      1  0.5061640000000  0.4704250000000  0.5962570000000 1.0
C      1  0.5624800000000  0.4650910000000  0.5521450000000 1.0
C      1  0.5833320000000  0.4571600000000  0.4825700000000 1.0
C      1  0.5398010000000  0.4602890000000  0.4218250000000 1.0
C      1  0.4575980000000  0.4589720000000  0.4212850000000 1.0
C      1  0.4104310000000  0.4649020000000  0.4853020000000 1.0
C      1  0.4542780000000  0.5448790000000  0.4277690000000 1.0
C      1  0.4092240000000  0.5418210000000  0.4863960000000 1.0
C      1  0.4385140000000  0.5452760000000  0.5614600000000 1.0
C      1  0.5078580000000  0.5459070000000  0.5941180000000 1.0
C      1  0.5757810000000  0.5478590000000  0.5478690000000 1.0
C      1  0.5882700000000  0.5434380000000  0.4719140000000 1.0
C      1  0.5311120000000  0.5414980000000  0.4140680000000 1.0
C      1  0.4383020000000  0.4526380000000  0.4700630000000 1.0
C      1  0.4536660000000  0.4453250000000  0.5286990000000 1.0
C      1  0.4809580000000  0.4525420000000  0.5568940000000 1.0
C      1  0.5331780000000  0.4554060000000  0.5484100000000 1.0
C      1  0.5573580000000  0.4532840000000  0.4965370000000 1.0
C      1  0.5347140000000  0.4526760000000  0.4505030000000 1.0
C      1  0.4795750000000  0.4499790000000  0.4432090000000 1.0
C      1  0.5286740000000  0.4396910000000  0.4974470000000 1.0
C      1  0.5180980000000  0.4381510000000  0.4738930000000 1.0
C      1  0.4909380000000  0.4279860000000  0.4665330000000 1.0
C      1  0.4653550000000  0.4393530000000  0.4844120000000 1.0
C      1  0.4718550000000  0.4220580000000  0.5120640000000 1.0
C      1  0.4923350000000  0.4303800000000  0.5337450000000 1.0
C      1  0.5216270000000  0.4331690000000  0.5254280000000 1.0
C      1  0.5652840000000  0.5839000000000  0.4924270000000 1.0
C      1  0.5376060000000  0.5807330000000  0.4426670000000 1.0
C      1  0.4825450000000  0.5824890000000  0.4406260000000 1.0
C      1  0.4176590000000  0.5827530000000  0.4613150000000 1.0
C      1  0.4452690000000  0.5833120000000  0.5320740000000 1.0
C      1  0.4904960000000  0.5828530000000  0.5659860000000 1.0
C      1  0.5444110000000  0.5850870000000  0.5469550000000 1.0
C      1  0.5818690000000  0.5609660000000  0.4953070000000 1.0
C      1  0.5489570000000  0.5568980000000  0.4317650000000 1.0
C      1  0.4788560000000  0.5595520000000  0.4245460000000 1.0
C      1  0.4230420000000  0.5568680000000  0.4662060000000 1.0
C      1  0.4307740000000  0.5598770000000  0.5374070000000 1.0
C      1  0.4861790000000  0.5589630000000  0.5804810000000 1.0
C      1  0.5543890000000  0.5628180000000  0.5613150000000 1.0
C      1  0.4940570000000  0.5332130000000  0.4666070000000 1.0
C      1  0.4692770000000  0.5312220000000  0.4898450000000 1.0
C      1  0.4645730000000  0.5221720000000  0.5203720000000 1.0
C      1  0.4880850000000  0.5266780000000  0.5417190000000 1.0
C      1  0.5197090000000  0.5290410000000  0.5361620000000 1.0
C      1  0.5294780000000  0.5364600000000  0.5049640000000 1.0
C      1  0.5215210000000  0.5456880000000  0.4732170000000 1.0
C      1  0.5215380000000  0.4955070000000  0.3860560000000 1.0
C      1  0.4226350000000  0.5090710000000  0.4296200000000 1.0
C      1  0.3908800000000  0.4931240000000  0.5302860000000 1.0
C      1  0.4434140000000  0.5058110000000  0.5904690000000 1.0
C      1  0.5283720000000  0.4959030000000  0.6176240000000 1.0
C      1  0.5982980000000  0.5078430000000  0.5297130000000 1.0
C      1  0.6043560000000  0.4945480000000  0.4500570000000 1.0
C      1  0.5257830000000  0.4314310000000  0.5708210000000 1.0
C      1  0.5604860000000  0.4271700000000  0.5181010000000 1.0
C      1  0.5543710000000  0.4270910000000  0.4585010000000 1.0
C      1  0.5006280000000  0.4281700000000  0.4278020000000 1.0
C      1  0.4452390000000  0.4237000000000  0.4535860000000 1.0
C      1  0.4295350000000  0.4266850000000  0.5139120000000 1.0
C      1  0.4637400000000  0.4231510000000  0.5604230000000 1.0
C      1  0.5444410000000  0.4746840000000  0.6052410000000 1.0
C      1  0.6044640000000  0.4526970000000  0.5276730000000 1.0
C      1  0.5877170000000  0.4682110000000  0.4362400000000 1.0
C      1  0.5021330000000  0.4680130000000  0.3886830000000 1.0
C      1  0.4072840000000  0.4511920000000  0.4325890000000 1.0
C      1  0.3929870000000  0.4610480000000  0.5323090000000 1.0
C      1  0.4564780000000  0.4493260000000  0.6075120000000 1.0
C      1  0.4018750000000  0.4733580000000  0.4540620000000 1.0
C      1  0.4231580000000  0.4703340000000  0.5343390000000 1.0
C      1  0.4772910000000  0.4725130000000  0.6066880000000 1.0
C      1  0.5669030000000  0.4772390000000  0.5815290000000 1.0
C      1  0.6037310000000  0.4726770000000  0.5035360000000 1.0
C      1  0.5670380000000  0.4744970000000  0.4182240000000 1.0
C      1  0.4718740000000  0.4754620000000  0.3985170000000 1.0
C      1  0.5797410000000  0.4442920000000  0.5374580000000 1.0
C      1  0.5819780000000  0.4463110000000  0.4535350000000 1.0
C      1  0.5145890000000  0.4482020000000  0.4057330000000 1.0
C      1  0.4332910000000  0.4419150000000  0.4302880000000 1.0
C      1  0.4049910000000  0.4456510000000  0.5089570000000 1.0
C      1  0.4482970000000  0.4396910000000  0.5834490000000 1.0
C      1  0.5274130000000  0.4490240000000  0.5967770000000 1.0
C      1  0.4324270000000  0.5213750000000  0.5268610000000 1.0
C      1  0.4755930000000  0.5122320000000  0.5681720000000 1.0
C      1  0.5362030000000  0.5272560000000  0.5620960000000 1.0
C      1  0.5656210000000  0.5208320000000  0.5107980000000 1.0
C      1  0.5426270000000  0.5228800000000  0.4588140000000 1.0
C      1  0.4935440000000  0.5188690000000  0.4383410000000 1.0
C      1  0.4497040000000  0.5131830000000  0.4686820000000 1.0
C      1  0.4727510000000  0.4978840000000  0.4498350000000 1.0
C      1  0.4501500000000  0.4915250000000  0.4946610000000 1.0
C      1  0.4603160000000  0.4943510000000  0.5359120000000 1.0
C      1  0.5019340000000  0.4980440000000  0.5539630000000 1.0
C      1  0.5418180000000  0.5066060000000  0.5284830000000 1.0
C      1  0.5436850000000  0.5105060000000  0.4883260000000 1.0
C      1  0.5212710000000  0.5026700000000  0.4454570000000 1.0
C      1  0.4927990000000  0.5863090000000  0.4652840000000 1.0
C      1  0.4756130000000  0.5948980000000  0.4922910000000 1.0
C      1  0.4701540000000  0.5917120000000  0.5234230000000 1.0
C      1  0.4930740000000  0.5912630000000  0.5392340000000 1.0
C      1  0.5233480000000  0.5881840000000  0.5247290000000 1.0
C      1  0.5380890000000  0.5867340000000  0.4941190000000 1.0
C      1  0.5219260000000  0.5762330000000  0.4695260000000 1.0
C      1  0.5219550000000  0.4857910000000  0.4182940000000 1.0
C      1  0.4489110000000  0.4879440000000  0.4309600000000 1.0
C      1  0.3989910000000  0.4946190000000  0.4972580000000 1.0
C      1  0.4447500000000  0.4876520000000  0.5625250000000 1.0
C      1  0.5161010000000  0.4962550000000  0.5799320000000 1.0
C      1  0.5695250000000  0.4912140000000  0.5369420000000 1.0
C      1  0.5794120000000  0.4876370000000  0.4701410000000 1.0
C      1  0.4244690000000  0.5212660000000  0.5695140000000 1.0
C      1  0.5025130000000  0.5139470000000  0.6045750000000 1.0
C      1  0.5892130000000  0.5230100000000  0.5551960000000 1.0
C      1  0.6049160000000  0.5179450000000  0.4747270000000 1.0
C      1  0.5409320000000  0.5168240000000  0.4020960000000 1.0
C      1  0.4440470000000  0.5230460000000  0.4124980000000 1.0
C      1  0.3982400000000  0.5169090000000  0.4766890000000 1.0
C      1  0.4335480000000  0.4845700000000  0.4592760000000 1.0
C      1  0.4272040000000  0.4925560000000  0.5137550000000 1.0
C      1  0.4737500000000  0.4789150000000  0.5747900000000 1.0
C      1  0.5460880000000  0.5021710000000  0.5762820000000 1.0
C      1  0.5743920000000  0.4898860000000  0.5031680000000 1.0
C      1  0.5649760000000  0.5029580000000  0.4462240000000 1.0
C      1  0.4918520000000  0.4982070000000  0.4124900000000 1.0
C      1  0.4718270000000  0.4699780000000  0.4890110000000 1.0
C      1  0.4697070000000  0.4691910000000  0.5211520000000 1.0
C      1  0.5046720000000  0.4691700000000  0.5431910000000 1.0
C      1  0.5266470000000  0.4858660000000  0.5144880000000 1.0
C      1  0.5377530000000  0.4773930000000  0.4877000000000 1.0
C      1  0.5172530000000  0.4767290000000  0.4633640000000 1.0
C      1  0.4866230000000  0.4735720000000  0.4624620000000 1.0
C      1  0.5082950000000  0.6341160000000  0.4924810000000 1.0
C      1  0.5007480000000  0.5118850000000  0.4992550000000 1.0
C      1  0.5006890000000  0.5756850000000  0.5032880000000 1.0
C      1  0.4840830000000  0.4044470000000  0.4883940000000 1.0
C      1  0.4966490000000  0.5452860000000  0.5043150000000 1.0
C      1  0.5054030000000  0.6086930000000  0.4957560000000 1.0
C      1  0.4961020000000  0.4861060000000  0.5163270000000 1.0
C      1  0.4871400000000  0.3788440000000  0.4865020000000 1.0
END
