TITL C-2622965-4321-70 -0.000782142347687629 125000 -405.962103049558 0 0 80 (C1) n - 1
REM
REM in /nfs/bkarasulu/CARBON/AIRSS/Generating-Clusters/AIREBO/with-SteepDescent/Higher-Symm/SD-CG/HFTN-CG
REM
REM
REM
REM
REM
REM ./C.cell (b20cbc046b6831c77cfcea5457e17084)
REM
REM compiler GCC version 9.2.1 20190827 (Red Hat 9.2.1-1)
REM options -cpp -mtune=generic -march=x86-64 -g -O0 -fpre-include=/usr/include/finclude/math-vector-fortran.h
REM seed 2145962832 -1890975317 666585848 1551127678 -175264895 -429585637 1980690323 1409178151 178476665 -1007843611 1535371866 -1870462579 395545904 -801655718 819625198 -815777843 -487550368 1038595444 1453912842 1380100909 -607675664 -100329775 -962907613 -199080958 1717282099 -735374643 -491732526 -2110246822 1032961976 1597205436 -1045316249 1614306833 147991858
REM
CELL 1.54180   50.00000   50.00000   50.00000   90.00000   90.00000   90.00000
LATT -1
SFAC C  
C      1  0.5446960000000  0.4224200000000  0.4455290000000 1.0
C      1  0.5333480000000  0.4131660000000  0.5222010000000 1.0
C      1  0.5444100000000  0.4683140000000  0.5864750000000 1.0
C      1  0.5420820000000  0.5322760000000  0.5585770000000 1.0
C      1  0.5309790000000  0.5921210000000  0.5106130000000 1.0
C      1  0.5481130000000  0.5486380000000  0.4541750000000 1.0
C      1  0.5469310000000  0.4917420000000  0.4344770000000 1.0
C      1  0.4505270000000  0.5558150000000  0.4767570000000 1.0
C      1  0.4397020000000  0.5246790000000  0.4421210000000 1.0
C      1  0.4477270000000  0.4743810000000  0.4514770000000 1.0
C      1  0.4460390000000  0.4469920000000  0.4917380000000 1.0
C      1  0.4489770000000  0.4530090000000  0.5387090000000 1.0
C      1  0.4426680000000  0.5028680000000  0.5596070000000 1.0
C      1  0.4545430000000  0.5532300000000  0.5289040000000 1.0
C      1  0.4432120000000  0.4431520000000  0.4597820000000 1.0
C      1  0.4428220000000  0.4288600000000  0.5179890000000 1.0
C      1  0.4408680000000  0.4697530000000  0.5671740000000 1.0
C      1  0.4459670000000  0.5351800000000  0.5551170000000 1.0
C      1  0.4498990000000  0.5737100000000  0.5034250000000 1.0
C      1  0.4423000000000  0.5568810000000  0.4452700000000 1.0
C      1  0.4424370000000  0.4954260000000  0.4279150000000 1.0
C      1  0.4286140000000  0.5354030000000  0.4883190000000 1.0
C      1  0.4245070000000  0.5156170000000  0.4688830000000 1.0
C      1  0.4253560000000  0.4874570000000  0.4708750000000 1.0
C      1  0.4305540000000  0.4744720000000  0.4973620000000 1.0
C      1  0.4252560000000  0.4761840000000  0.5311950000000 1.0
C      1  0.4219560000000  0.5103010000000  0.5350200000000 1.0
C      1  0.4306250000000  0.5338810000000  0.5162970000000 1.0
C      1  0.5117010000000  0.4762050000000  0.5285430000000 1.0
C      1  0.4945920000000  0.4971380000000  0.5461920000000 1.0
C      1  0.5031330000000  0.5222420000000  0.5290690000000 1.0
C      1  0.5116640000000  0.5310220000000  0.4782670000000 1.0
C      1  0.4969400000000  0.5146450000000  0.4542710000000 1.0
C      1  0.5098310000000  0.4870540000000  0.4667340000000 1.0
C      1  0.5006810000000  0.4789650000000  0.4975820000000 1.0
C      1  0.5754320000000  0.5300990000000  0.5033180000000 1.0
C      1  0.5791070000000  0.5210050000000  0.4758280000000 1.0
C      1  0.5929770000000  0.4975160000000  0.4700730000000 1.0
C      1  0.5837750000000  0.4743350000000  0.4830800000000 1.0
C      1  0.5899720000000  0.4710470000000  0.5104800000000 1.0
C      1  0.5775850000000  0.4896540000000  0.5278470000000 1.0
C      1  0.5871210000000  0.5160300000000  0.5245800000000 1.0
C      1  0.4722480000000  0.4642510000000  0.4949310000000 1.0
C      1  0.4791430000000  0.4649950000000  0.5282550000000 1.0
C      1  0.4687220000000  0.4837480000000  0.5546690000000 1.0
C      1  0.4832870000000  0.5450110000000  0.5134270000000 1.0
C      1  0.4786530000000  0.5390440000000  0.4800260000000 1.0
C      1  0.4656620000000  0.5150710000000  0.4588750000000 1.0
C      1  0.4760500000000  0.4830260000000  0.4664130000000 1.0
C      1  0.5385920000000  0.4088860000000  0.4165110000000 1.0
C      1  0.5306560000000  0.3812620000000  0.5161590000000 1.0
C      1  0.5369870000000  0.4457510000000  0.6087840000000 1.0
C      1  0.5041060000000  0.5586710000000  0.5859310000000 1.0
C      1  0.5207840000000  0.6194030000000  0.5230280000000 1.0
C      1  0.5133190000000  0.5536800000000  0.4135920000000 1.0
C      1  0.5084420000000  0.4764010000000  0.4001860000000 1.0
C      1  0.5687760000000  0.5665450000000  0.4572910000000 1.0
C      1  0.5722530000000  0.4964810000000  0.4249700000000 1.0
C      1  0.5506340000000  0.4437790000000  0.4604870000000 1.0
C      1  0.5400010000000  0.4379980000000  0.5146020000000 1.0
C      1  0.5453610000000  0.4763350000000  0.5609870000000 1.0
C      1  0.5677240000000  0.5305720000000  0.5681760000000 1.0
C      1  0.5393640000000  0.5668490000000  0.5099060000000 1.0
C      1  0.5404590000000  0.3902430000000  0.4425440000000 1.0
C      1  0.5238150000000  0.3924190000000  0.5454520000000 1.0
C      1  0.5516160000000  0.4727990000000  0.6179350000000 1.0
C      1  0.5229320000000  0.5469300000000  0.5719730000000 1.0
C      1  0.5254460000000  0.6225910000000  0.4920470000000 1.0
C      1  0.5309430000000  0.5502900000000  0.4327180000000 1.0
C      1  0.5274650000000  0.4826060000000  0.4171250000000 1.0
C      1  0.5344750000000  0.5206160000000  0.5314840000000 1.0
C      1  0.5460670000000  0.5372690000000  0.5084670000000 1.0
C      1  0.5449730000000  0.5242780000000  0.4770600000000 1.0
C      1  0.5400020000000  0.4928700000000  0.4644300000000 1.0
C      1  0.5544720000000  0.4687190000000  0.4782180000000 1.0
C      1  0.5440660000000  0.4629820000000  0.5063810000000 1.0
C      1  0.5436750000000  0.4877250000000  0.5297010000000 1.0
C      1  0.4694770000000  0.5092920000000  0.5094070000000 1.0
C      1  0.4983600000000  0.5106890000000  0.4996660000000 1.0
C      1  0.4461100000000  0.4970430000000  0.5150970000000 1.0
END
