TITL C-2622955-8511-27 0.00169527118209683 125000 -329.51787817309 0 0 61 (C1) n - 1
REM
REM in /nfs/bkarasulu/CARBON/AIRSS/Generating-Clusters/AIREBO/with-SteepDescent/Higher-Symm/SD-CG/HFTN-CG
REM
REM
REM
REM
REM
REM ./C.cell (b20cbc046b6831c77cfcea5457e17084)
REM
REM compiler GCC version 9.2.1 20190827 (Red Hat 9.2.1-1)
REM options -cpp -mtune=generic -march=x86-64 -g -O0 -fpre-include=/usr/include/finclude/math-vector-fortran.h
REM seed 171955308 -1245166559 -1822681147 -60236716 1277850731 -1787440654 510870643 1623145150 1206253467 -1659396522 -286159580 490013543 -221120691 -922921841 289351007 -619301976 1839728099 -1510583190 -745964102 2111630041 -826839935 2091511483 -807176264 874348820 -768903700 1309153529 -1436890900 -1428954896 -1176186011 1167942724 559567759 1755341757 -963334809
REM
CELL 1.54180   50.00000   50.00000   50.00000   90.00000   90.00000   90.00000
LATT -1
SFAC C  
C      1  0.4432480000000  0.5686160000000  0.5070770000000 1.0
C      1  0.5402110000000  0.5781930000000  0.5164620000000 1.0
C      1  0.5795000000000  0.4805660000000  0.5035170000000 1.0
C      1  0.5032930000000  0.4136720000000  0.5102830000000 1.0
C      1  0.4241870000000  0.4701840000000  0.5089470000000 1.0
C      1  0.5408380000000  0.5403720000000  0.5312200000000 1.0
C      1  0.5456310000000  0.4654940000000  0.5442670000000 1.0
C      1  0.4938700000000  0.4494440000000  0.5344390000000 1.0
C      1  0.4458370000000  0.4956550000000  0.5420850000000 1.0
C      1  0.4782520000000  0.5498580000000  0.5477520000000 1.0
C      1  0.5165430000000  0.5390790000000  0.4428130000000 1.0
C      1  0.5234860000000  0.5127300000000  0.4510180000000 1.0
C      1  0.5141670000000  0.4854860000000  0.4486990000000 1.0
C      1  0.4842650000000  0.4793700000000  0.4516280000000 1.0
C      1  0.4660840000000  0.5056820000000  0.4511330000000 1.0
C      1  0.4683050000000  0.5330160000000  0.4536340000000 1.0
C      1  0.5337190000000  0.5600430000000  0.4541170000000 1.0
C      1  0.5608080000000  0.4806030000000  0.4581570000000 1.0
C      1  0.5006180000000  0.4316510000000  0.4563340000000 1.0
C      1  0.4493690000000  0.4707300000000  0.4520840000000 1.0
C      1  0.5229970000000  0.4287650000000  0.4718700000000 1.0
C      1  0.4425360000000  0.4465320000000  0.4632160000000 1.0
C      1  0.4516570000000  0.5422950000000  0.4740210000000 1.0
C      1  0.5284180000000  0.5630580000000  0.4814140000000 1.0
C      1  0.5706200000000  0.5061050000000  0.4602860000000 1.0
C      1  0.5255260000000  0.4319460000000  0.5173640000000 1.0
C      1  0.4468970000000  0.4552690000000  0.5128560000000 1.0
C      1  0.4268790000000  0.5458090000000  0.5096090000000 1.0
C      1  0.5180570000000  0.5772730000000  0.5289720000000 1.0
C      1  0.5842890000000  0.5045500000000  0.4976900000000 1.0
C      1  0.4617390000000  0.4437510000000  0.4891820000000 1.0
C      1  0.4407290000000  0.5181970000000  0.4953840000000 1.0
C      1  0.4975340000000  0.5555530000000  0.4875950000000 1.0
C      1  0.5629700000000  0.5266790000000  0.4862590000000 1.0
C      1  0.5301350000000  0.4547680000000  0.4925820000000 1.0
C      1  0.5079970000000  0.5466630000000  0.5370980000000 1.0
C      1  0.5460260000000  0.5140500000000  0.5395990000000 1.0
C      1  0.5236600000000  0.4442870000000  0.5467780000000 1.0
C      1  0.4668460000000  0.4701300000000  0.5340730000000 1.0
C      1  0.4608820000000  0.5221040000000  0.5447090000000 1.0
C      1  0.4693550000000  0.5188800000000  0.5133430000000 1.0
C      1  0.4985000000000  0.5308700000000  0.5084360000000 1.0
C      1  0.5344930000000  0.4951840000000  0.5204010000000 1.0
C      1  0.5045860000000  0.4753670000000  0.5014760000000 1.0
C      1  0.4841130000000  0.4918250000000  0.5174200000000 1.0
C      1  0.4525440000000  0.4706580000000  0.5649250000000 1.0
C      1  0.4489180000000  0.5513650000000  0.5582130000000 1.0
C      1  0.5164380000000  0.5384700000000  0.5668200000000 1.0
C      1  0.5495780000000  0.4896840000000  0.5570210000000 1.0
C      1  0.5251420000000  0.4281820000000  0.5694600000000 1.0
C      1  0.4820020000000  0.4501570000000  0.4626320000000 1.0
C      1  0.4420910000000  0.4972070000000  0.4685450000000 1.0
C      1  0.4922160000000  0.5464600000000  0.4557280000000 1.0
C      1  0.5351310000000  0.5142860000000  0.4766440000000 1.0
C      1  0.5347960000000  0.4708370000000  0.4629390000000 1.0
C      1  0.4653950000000  0.5637120000000  0.4888610000000 1.0
C      1  0.5508410000000  0.5504900000000  0.5012550000000 1.0
C      1  0.5524040000000  0.4695700000000  0.5127910000000 1.0
C      1  0.4912700000000  0.4440800000000  0.5009600000000 1.0
C      1  0.4272530000000  0.4962840000000  0.5170090000000 1.0
C      1  0.5166280000000  0.5072890000000  0.4989820000000 1.0
END
