TITL C-2622960-5345-306 -4.93065409242528e-05 125000 -113.238942523991 0 0 22 (C1) n - 1
REM
REM in /nfs/bkarasulu/CARBON/AIRSS/Generating-Clusters/AIREBO/with-SteepDescent/Higher-Symm/SD-CG/HFTN-CG
REM
REM
REM
REM
REM
REM ./C.cell (b20cbc046b6831c77cfcea5457e17084)
REM
REM compiler GCC version 9.2.1 20190827 (Red Hat 9.2.1-1)
REM options -cpp -mtune=generic -march=x86-64 -g -O0 -fpre-include=/usr/include/finclude/math-vector-fortran.h
REM seed -938033823 2113634466 -1172910141 -1544095260 1149324053 2129775900 1690537523 988273208 -419738835 1574298839 -498052796 -1629982430 1332156630 -629028025 -2103847482 1500933262 -17308955 1475091062 -1772738546 -952399369 2057337177 1036733483 -1447514891 1800500826 -1908791351 1907812328 1216013800 -947691179 1948891555 743913615 1308946903 -878579968 2044453683
REM
CELL 1.54180   50.00000   50.00000   50.00000   90.00000   90.00000   90.00000
LATT -1
SFAC C  
C      1  0.4954460000000  0.4681430000000  0.4556120000000 1.0
C      1  0.5258630000000  0.4882050000000  0.4755410000000 1.0
C      1  0.5171450000000  0.5288380000000  0.4676590000000 1.0
C      1  0.4780350000000  0.5290180000000  0.4584700000000 1.0
C      1  0.4682650000000  0.4940840000000  0.4769190000000 1.0
C      1  0.4955730000000  0.4654540000000  0.5291800000000 1.0
C      1  0.4653040000000  0.4841660000000  0.5471700000000 1.0
C      1  0.4769410000000  0.5186010000000  0.5307090000000 1.0
C      1  0.5311950000000  0.5317430000000  0.5391690000000 1.0
C      1  0.5255610000000  0.5042890000000  0.5417070000000 1.0
C      1  0.4535760000000  0.4924240000000  0.4992150000000 1.0
C      1  0.4953180000000  0.4521000000000  0.4780250000000 1.0
C      1  0.5351730000000  0.4809430000000  0.4996420000000 1.0
C      1  0.5293700000000  0.5397830000000  0.4890310000000 1.0
C      1  0.4686030000000  0.5391110000000  0.4823320000000 1.0
C      1  0.5412950000000  0.4872890000000  0.5254750000000 1.0
C      1  0.4998640000000  0.4547360000000  0.5047570000000 1.0
C      1  0.4498890000000  0.4830190000000  0.5244590000000 1.0
C      1  0.4683520000000  0.5286660000000  0.5074150000000 1.0
C      1  0.5303030000000  0.5457040000000  0.5155190000000 1.0
C      1  0.4970360000000  0.4956280000000  0.5429560000000 1.0
C      1  0.4977760000000  0.5015150000000  0.4617310000000 1.0
END
