TITL C-2622959-7779-8 -0.00134102141186034 125000 -972.261902634938 0 0 182 (C1) n - 1
REM
REM in /nfs/bkarasulu/CARBON/AIRSS/Generating-Clusters/AIREBO/with-SteepDescent/Higher-Symm/SD-CG/HFTN-CG
REM
REM
REM
REM
REM
REM ./C.cell (b20cbc046b6831c77cfcea5457e17084)
REM
REM compiler GCC version 9.2.1 20190827 (Red Hat 9.2.1-1)
REM options -cpp -mtune=generic -march=x86-64 -g -O0 -fpre-include=/usr/include/finclude/math-vector-fortran.h
REM seed 1234133372 -1325769377 -1428720507 -490642514 -1222795245 1709403138 -664276833 1013424025 1240652458 1227270133 487532136 -360041887 -1488174495 -615564218 1871378340 1797647231 -237797045 -69512770 299677509 1473531783 557235867 -1567192954 2060580201 781041667 -1175258421 1039412854 96413170 -1228118263 210547996 543292130 -700508059 50475861 41924368
REM
CELL 1.54180   50.00000   50.00000   50.00000   90.00000   90.00000   90.00000
LATT -1
SFAC C  
C      1  0.5455120000000  0.4308000000000  0.5199220000000 1.0
C      1  0.5482180000000  0.4261350000000  0.4802980000000 1.0
C      1  0.4575580000000  0.5166470000000  0.5905270000000 1.0
C      1  0.4631830000000  0.5134750000000  0.4127070000000 1.0
C      1  0.4831450000000  0.4443650000000  0.4447990000000 1.0
C      1  0.4818830000000  0.4500840000000  0.5524600000000 1.0
C      1  0.5682800000000  0.5083860000000  0.4840410000000 1.0
C      1  0.5611520000000  0.5074780000000  0.5172740000000 1.0
C      1  0.3935570000000  0.5136250000000  0.4809820000000 1.0
C      1  0.3959600000000  0.4987000000000  0.5114830000000 1.0
C      1  0.4830710000000  0.5472330000000  0.4027040000000 1.0
C      1  0.4833410000000  0.5471050000000  0.5916380000000 1.0
C      1  0.5707200000000  0.5855650000000  0.5554790000000 1.0
C      1  0.5560170000000  0.5843200000000  0.4422250000000 1.0
C      1  0.4949350000000  0.4079380000000  0.5611790000000 1.0
C      1  0.4972990000000  0.4049040000000  0.4426780000000 1.0
C      1  0.5113250000000  0.5019340000000  0.4268950000000 1.0
C      1  0.5142360000000  0.5046110000000  0.5771610000000 1.0
C      1  0.5431040000000  0.5592680000000  0.5145180000000 1.0
C      1  0.5366310000000  0.5513330000000  0.4820860000000 1.0
C      1  0.5406860000000  0.4764880000000  0.4490560000000 1.0
C      1  0.5419870000000  0.4741220000000  0.5524170000000 1.0
C      1  0.4885620000000  0.5098730000000  0.4838830000000 1.0
C      1  0.4851410000000  0.5036980000000  0.5149410000000 1.0
C      1  0.5154120000000  0.4190690000000  0.4852560000000 1.0
C      1  0.5128520000000  0.4240200000000  0.5167820000000 1.0
C      1  0.5161200000000  0.3904160000000  0.5127370000000 1.0
C      1  0.5180220000000  0.3843730000000  0.4837490000000 1.0
C      1  0.5041340000000  0.4867950000000  0.4642150000000 1.0
C      1  0.5059350000000  0.4860780000000  0.5349490000000 1.0
C      1  0.4153010000000  0.5278340000000  0.5487930000000 1.0
C      1  0.4084020000000  0.5309440000000  0.4538630000000 1.0
C      1  0.4851990000000  0.4229290000000  0.5322520000000 1.0
C      1  0.4873370000000  0.4221650000000  0.4702350000000 1.0
C      1  0.5872170000000  0.4657220000000  0.5592560000000 1.0
C      1  0.5896090000000  0.4695870000000  0.4485010000000 1.0
C      1  0.4097390000000  0.4566560000000  0.4134700000000 1.0
C      1  0.4246950000000  0.4582310000000  0.6041200000000 1.0
C      1  0.4688530000000  0.5100430000000  0.5441080000000 1.0
C      1  0.4585430000000  0.5101310000000  0.4717160000000 1.0
C      1  0.5767720000000  0.5168020000000  0.4379450000000 1.0
C      1  0.5681740000000  0.5113800000000  0.5662910000000 1.0
C      1  0.5921040000000  0.4981760000000  0.4620260000000 1.0
C      1  0.5908630000000  0.4932330000000  0.5512050000000 1.0
C      1  0.5564870000000  0.3948530000000  0.4832690000000 1.0
C      1  0.5545730000000  0.4009070000000  0.5123240000000 1.0
C      1  0.5047110000000  0.4967370000000  0.6151310000000 1.0
C      1  0.5128270000000  0.5005540000000  0.3822670000000 1.0
C      1  0.5583590000000  0.4969300000000  0.4175120000000 1.0
C      1  0.5595790000000  0.4901820000000  0.5915420000000 1.0
C      1  0.5161400000000  0.6050980000000  0.4387860000000 1.0
C      1  0.5332900000000  0.6011990000000  0.5713830000000 1.0
C      1  0.4905010000000  0.5442640000000  0.4548780000000 1.0
C      1  0.4981210000000  0.5540710000000  0.5370560000000 1.0
C      1  0.4128330000000  0.4776770000000  0.5269440000000 1.0
C      1  0.4188270000000  0.4927840000000  0.4794560000000 1.0
C      1  0.4147680000000  0.4649440000000  0.4891570000000 1.0
C      1  0.4106250000000  0.4469150000000  0.5125960000000 1.0
C      1  0.4502490000000  0.5506830000000  0.5169160000000 1.0
C      1  0.4469280000000  0.5543280000000  0.4862790000000 1.0
C      1  0.5346500000000  0.5949020000000  0.4864670000000 1.0
C      1  0.5369160000000  0.5987200000000  0.5134290000000 1.0
C      1  0.4858420000000  0.6007440000000  0.4901200000000 1.0
C      1  0.4887570000000  0.6022900000000  0.5174780000000 1.0
C      1  0.5138980000000  0.4560100000000  0.4535130000000 1.0
C      1  0.5147940000000  0.4549510000000  0.5454040000000 1.0
C      1  0.4957080000000  0.4491300000000  0.5962400000000 1.0
C      1  0.5085170000000  0.4541610000000  0.3939030000000 1.0
C      1  0.4657540000000  0.4061880000000  0.4407300000000 1.0
C      1  0.4608780000000  0.4089770000000  0.5606730000000 1.0
C      1  0.4300770000000  0.5053870000000  0.4143140000000 1.0
C      1  0.4260830000000  0.5057400000000  0.5838550000000 1.0
C      1  0.4680530000000  0.5761960000000  0.5827440000000 1.0
C      1  0.4657090000000  0.5749850000000  0.4117830000000 1.0
C      1  0.5839390000000  0.5669490000000  0.4472620000000 1.0
C      1  0.5840540000000  0.5583250000000  0.5440430000000 1.0
C      1  0.4519610000000  0.4039260000000  0.4665240000000 1.0
C      1  0.4467600000000  0.4123570000000  0.5311200000000 1.0
C      1  0.5108880000000  0.4711980000000  0.4232340000000 1.0
C      1  0.5092950000000  0.4710300000000  0.5748660000000 1.0
C      1  0.5252850000000  0.5266110000000  0.4097320000000 1.0
C      1  0.5266080000000  0.5318450000000  0.5933490000000 1.0
C      1  0.4581220000000  0.4297890000000  0.4253670000000 1.0
C      1  0.4689610000000  0.4358250000000  0.5799340000000 1.0
C      1  0.5579360000000  0.5772750000000  0.4754330000000 1.0
C      1  0.5634520000000  0.5851390000000  0.5230670000000 1.0
C      1  0.5554760000000  0.4338180000000  0.4395060000000 1.0
C      1  0.5554100000000  0.4305210000000  0.5608420000000 1.0
C      1  0.5585350000000  0.4757750000000  0.4846070000000 1.0
C      1  0.5603220000000  0.4748280000000  0.5172500000000 1.0
C      1  0.4330860000000  0.5233640000000  0.4836810000000 1.0
C      1  0.4407750000000  0.5213610000000  0.5277400000000 1.0
C      1  0.4718110000000  0.3969590000000  0.4869780000000 1.0
C      1  0.4714010000000  0.3972720000000  0.5147100000000 1.0
C      1  0.5299780000000  0.4518370000000  0.5938360000000 1.0
C      1  0.5378790000000  0.4595240000000  0.4056530000000 1.0
C      1  0.4646660000000  0.5985750000000  0.5331680000000 1.0
C      1  0.4726490000000  0.5865260000000  0.4621850000000 1.0
C      1  0.5339510000000  0.3957580000000  0.4588310000000 1.0
C      1  0.5339540000000  0.3968330000000  0.5371180000000 1.0
C      1  0.4706340000000  0.5438990000000  0.5414450000000 1.0
C      1  0.4601030000000  0.5403890000000  0.4599000000000 1.0
C      1  0.5932410000000  0.4379810000000  0.5140630000000 1.0
C      1  0.5929670000000  0.4393610000000  0.4890630000000 1.0
C      1  0.4357060000000  0.4445600000000  0.4213190000000 1.0
C      1  0.4413560000000  0.4502240000000  0.5842420000000 1.0
C      1  0.4349590000000  0.5979160000000  0.4569440000000 1.0
C      1  0.4315480000000  0.6007260000000  0.5408340000000 1.0
C      1  0.5326740000000  0.5607350000000  0.4496450000000 1.0
C      1  0.5446510000000  0.5610620000000  0.5484390000000 1.0
C      1  0.6065920000000  0.5030390000000  0.4925530000000 1.0
C      1  0.5996280000000  0.5008510000000  0.5257640000000 1.0
C      1  0.4402570000000  0.5501750000000  0.5554290000000 1.0
C      1  0.4349950000000  0.5476330000000  0.4408010000000 1.0
C      1  0.5450120000000  0.5225680000000  0.4693330000000 1.0
C      1  0.5320630000000  0.5173750000000  0.5271090000000 1.0
C      1  0.5386550000000  0.5046210000000  0.5544930000000 1.0
C      1  0.5385980000000  0.5081080000000  0.4428260000000 1.0
C      1  0.5694550000000  0.4490600000000  0.4666310000000 1.0
C      1  0.5701850000000  0.4480510000000  0.5357250000000 1.0
C      1  0.4246000000000  0.4225670000000  0.5074250000000 1.0
C      1  0.4329140000000  0.4217610000000  0.4785590000000 1.0
C      1  0.4893480000000  0.5260090000000  0.4279390000000 1.0
C      1  0.4858550000000  0.5197570000000  0.5719180000000 1.0
C      1  0.5323840000000  0.5763320000000  0.5893670000000 1.0
C      1  0.5297300000000  0.5718560000000  0.4062220000000 1.0
C      1  0.4512600000000  0.5791330000000  0.5581920000000 1.0
C      1  0.4509580000000  0.5757080000000  0.4383280000000 1.0
C      1  0.4678200000000  0.4876070000000  0.5870030000000 1.0
C      1  0.4734030000000  0.4849710000000  0.4075880000000 1.0
C      1  0.4158490000000  0.4844940000000  0.6040780000000 1.0
C      1  0.4051910000000  0.4828180000000  0.4186110000000 1.0
C      1  0.4340800000000  0.5376740000000  0.5830540000000 1.0
C      1  0.4389190000000  0.5361710000000  0.4125270000000 1.0
C      1  0.5921160000000  0.5329330000000  0.4838800000000 1.0
C      1  0.5859870000000  0.5279920000000  0.5159980000000 1.0
C      1  0.5579230000000  0.4602950000000  0.5763810000000 1.0
C      1  0.5626560000000  0.4649040000000  0.4283080000000 1.0
C      1  0.4196250000000  0.4997440000000  0.4461850000000 1.0
C      1  0.4245300000000  0.4954400000000  0.5534900000000 1.0
C      1  0.5153430000000  0.5776000000000  0.5533120000000 1.0
C      1  0.5020520000000  0.5753480000000  0.4473440000000 1.0
C      1  0.5246560000000  0.4232360000000  0.5549110000000 1.0
C      1  0.5246670000000  0.4250730000000  0.4443130000000 1.0
C      1  0.4462250000000  0.5870300000000  0.4837100000000 1.0
C      1  0.4426470000000  0.5814580000000  0.5151100000000 1.0
C      1  0.5608260000000  0.5452060000000  0.4382560000000 1.0
C      1  0.5662820000000  0.5422210000000  0.5667320000000 1.0
C      1  0.4438790000000  0.4637270000000  0.5267530000000 1.0
C      1  0.4388540000000  0.4543070000000  0.4706950000000 1.0
C      1  0.4643810000000  0.4786780000000  0.5112360000000 1.0
C      1  0.4575860000000  0.4811230000000  0.4799760000000 1.0
C      1  0.5268550000000  0.4997140000000  0.4800420000000 1.0
C      1  0.5250580000000  0.4935460000000  0.5078440000000 1.0
C      1  0.4936440000000  0.4798660000000  0.3883590000000 1.0
C      1  0.4855300000000  0.4779320000000  0.6060870000000 1.0
C      1  0.4599380000000  0.4392320000000  0.5158250000000 1.0
C      1  0.4666780000000  0.4429460000000  0.4867350000000 1.0
C      1  0.5034310000000  0.5282630000000  0.3881120000000 1.0
C      1  0.5006760000000  0.5251030000000  0.6086820000000 1.0
C      1  0.5163090000000  0.5417600000000  0.5156700000000 1.0
C      1  0.5048700000000  0.5384710000000  0.4838210000000 1.0
C      1  0.5436890000000  0.5514260000000  0.5871840000000 1.0
C      1  0.5416150000000  0.5480470000000  0.4130040000000 1.0
C      1  0.5328650000000  0.4546580000000  0.4817060000000 1.0
C      1  0.5294300000000  0.4603660000000  0.5150590000000 1.0
C      1  0.4991820000000  0.5738980000000  0.4135520000000 1.0
C      1  0.5004160000000  0.5743580000000  0.5836890000000 1.0
C      1  0.5137340000000  0.5980940000000  0.5283330000000 1.0
C      1  0.5097870000000  0.5920180000000  0.4759530000000 1.0
C      1  0.5829180000000  0.5604190000000  0.5110640000000 1.0
C      1  0.5884730000000  0.5643540000000  0.4789390000000 1.0
C      1  0.4094180000000  0.5280390000000  0.5153040000000 1.0
C      1  0.4058750000000  0.5436970000000  0.4852960000000 1.0
C      1  0.4346960000000  0.4644950000000  0.5576640000000 1.0
C      1  0.4361270000000  0.4702970000000  0.4419450000000 1.0
C      1  0.4866600000000  0.4674070000000  0.4802620000000 1.0
C      1  0.4964070000000  0.4659970000000  0.5092190000000 1.0
C      1  0.5417810000000  0.4970700000000  0.3885280000000 1.0
C      1  0.5334760000000  0.4936360000000  0.6029760000000 1.0
C      1  0.4656570000000  0.4785230000000  0.5568180000000 1.0
C      1  0.4665840000000  0.4684670000000  0.4293550000000 1.0
END
