TITL C-2622957-9142-116 3.55567370141531e-05 125000 -407.234873657624 0 0 76 (C1) n - 1
REM
REM in /nfs/bkarasulu/CARBON/AIRSS/Generating-Clusters/AIREBO/with-SteepDescent/Higher-Symm/SD-CG/HFTN-CG
REM
REM
REM
REM
REM
REM ./C.cell (b20cbc046b6831c77cfcea5457e17084)
REM
REM compiler GCC version 9.2.1 20190827 (Red Hat 9.2.1-1)
REM options -cpp -mtune=generic -march=x86-64 -g -O0 -fpre-include=/usr/include/finclude/math-vector-fortran.h
REM seed -1935888905 69239485 -425930475 1055571737 785222202 1625848994 -1562223498 -537916316 217880369 -1367902602 -52673904 -1396471586 1212722746 1201189538 2022831728 856871697 -1839402548 -1981425725 -826030805 -805412511 -1745137590 2036333871 -1240905510 1986403022 -1788479585 1949660190 -793461009 2054387612 1871514872 2047019024 672636613 959770828 847027634
REM
CELL 1.54180   50.00000   50.00000   50.00000   90.00000   90.00000   90.00000
LATT -1
SFAC C  
C      1  0.5600410000000  0.5319610000000  0.5587610000000 1.0
C      1  0.5121170000000  0.5532300000000  0.5691690000000 1.0
C      1  0.5484550000000  0.5620600000000  0.5145150000000 1.0
C      1  0.5620100000000  0.4708220000000  0.4384350000000 1.0
C      1  0.4429290000000  0.5296820000000  0.4360710000000 1.0
C      1  0.4362860000000  0.4816710000000  0.5581880000000 1.0
C      1  0.5223870000000  0.4432760000000  0.4347120000000 1.0
C      1  0.4856610000000  0.5659560000000  0.4415690000000 1.0
C      1  0.4806760000000  0.4388920000000  0.5610060000000 1.0
C      1  0.5544230000000  0.4346790000000  0.4850200000000 1.0
C      1  0.4381550000000  0.5571390000000  0.4835480000000 1.0
C      1  0.4463760000000  0.4370990000000  0.5230740000000 1.0
C      1  0.4945500000000  0.5415960000000  0.5135940000000 1.0
C      1  0.5455110000000  0.5126940000000  0.5029030000000 1.0
C      1  0.5191260000000  0.4961770000000  0.5377150000000 1.0
C      1  0.4979940000000  0.4674130000000  0.4875450000000 1.0
C      1  0.5005570000000  0.5378630000000  0.4825130000000 1.0
C      1  0.5090450000000  0.4622080000000  0.5193130000000 1.0
C      1  0.5479180000000  0.4789090000000  0.4999010000000 1.0
C      1  0.4581240000000  0.5202550000000  0.4972620000000 1.0
C      1  0.4630850000000  0.4868950000000  0.5019730000000 1.0
C      1  0.5158040000000  0.4999120000000  0.4628150000000 1.0
C      1  0.4823420000000  0.5060890000000  0.4624400000000 1.0
C      1  0.4870150000000  0.5039870000000  0.5425850000000 1.0
C      1  0.5564850000000  0.5095220000000  0.5759390000000 1.0
C      1  0.4945500000000  0.5729580000000  0.5609420000000 1.0
C      1  0.5712130000000  0.5539430000000  0.4928900000000 1.0
C      1  0.5580280000000  0.4962170000000  0.4257500000000 1.0
C      1  0.4447640000000  0.5037950000000  0.4242120000000 1.0
C      1  0.4437430000000  0.5031810000000  0.5745710000000 1.0
C      1  0.5004340000000  0.4282700000000  0.4440450000000 1.0
C      1  0.5073060000000  0.5792580000000  0.4531670000000 1.0
C      1  0.5043050000000  0.4233230000000  0.5570360000000 1.0
C      1  0.5754310000000  0.4442870000000  0.5002010000000 1.0
C      1  0.4237650000000  0.5566590000000  0.5059940000000 1.0
C      1  0.4267520000000  0.4497090000000  0.5064620000000 1.0
C      1  0.5523480000000  0.4864330000000  0.5322390000000 1.0
C      1  0.4836470000000  0.5376690000000  0.5458250000000 1.0
C      1  0.5330550000000  0.5423100000000  0.4914710000000 1.0
C      1  0.5493250000000  0.5121040000000  0.4709680000000 1.0
C      1  0.4526380000000  0.4905850000000  0.4705900000000 1.0
C      1  0.4565730000000  0.5139750000000  0.5299960000000 1.0
C      1  0.4852310000000  0.4737900000000  0.4553920000000 1.0
C      1  0.5199020000000  0.5327470000000  0.4549940000000 1.0
C      1  0.5228670000000  0.4671400000000  0.5502640000000 1.0
C      1  0.5406870000000  0.4509230000000  0.5187900000000 1.0
C      1  0.4621750000000  0.5499060000000  0.5147000000000 1.0
C      1  0.4666790000000  0.4567820000000  0.4856400000000 1.0
C      1  0.4843600000000  0.4418830000000  0.4606980000000 1.0
C      1  0.4357590000000  0.4645110000000  0.4844700000000 1.0
C      1  0.4577470000000  0.4855250000000  0.4391280000000 1.0
C      1  0.4793730000000  0.5699710000000  0.5361050000000 1.0
C      1  0.5244570000000  0.4359360000000  0.5446500000000 1.0
C      1  0.5257000000000  0.5627710000000  0.4648370000000 1.0
C      1  0.4324870000000  0.5376080000000  0.5258110000000 1.0
C      1  0.5725190000000  0.4601650000000  0.5245030000000 1.0
C      1  0.5723330000000  0.5320980000000  0.4805950000000 1.0
C      1  0.4574230000000  0.5225570000000  0.5613660000000 1.0
C      1  0.5467300000000  0.4869560000000  0.5642750000000 1.0
C      1  0.5442110000000  0.5143410000000  0.4399020000000 1.0
C      1  0.4773160000000  0.4512380000000  0.5233040000000 1.0
C      1  0.4454080000000  0.5295440000000  0.4670990000000 1.0
C      1  0.5245920000000  0.4711340000000  0.4523560000000 1.0
C      1  0.4705810000000  0.5511970000000  0.4754870000000 1.0
C      1  0.5270740000000  0.4516330000000  0.4796900000000 1.0
C      1  0.5206600000000  0.5486910000000  0.5288520000000 1.0
C      1  0.4547020000000  0.4748490000000  0.5326450000000 1.0
C      1  0.5449690000000  0.5254580000000  0.5298410000000 1.0
C      1  0.5530550000000  0.4716390000000  0.4698820000000 1.0
C      1  0.5208730000000  0.5261180000000  0.5537340000000 1.0
C      1  0.4831030000000  0.4711240000000  0.5504470000000 1.0
C      1  0.4805660000000  0.5330400000000  0.4485280000000 1.0
C      1  0.5502130000000  0.4479120000000  0.4261120000000 1.0
C      1  0.4624730000000  0.5503660000000  0.4255340000000 1.0
C      1  0.4559930000000  0.4285390000000  0.5504030000000 1.0
C      1  0.5581810000000  0.5591260000000  0.5465080000000 1.0
END
