TITL C-2622967-6265-24 -1.52705873546603e-07 125000 -25.1364200512883 0 0 5 (D(inf)h) n - 1
REM
REM in /nfs/bkarasulu/CARBON/AIRSS/Generating-Clusters/AIREBO/with-SteepDescent/Higher-Symm/SD-CG/HFTN-CG
REM
REM
REM
REM
REM
REM ./C.cell (b20cbc046b6831c77cfcea5457e17084)
REM
REM compiler GCC version 9.2.1 20190827 (Red Hat 9.2.1-1)
REM options -cpp -mtune=generic -march=x86-64 -g -O0 -fpre-include=/usr/include/finclude/math-vector-fortran.h
REM seed 739739470 741629959 1552227093 -1099308757 -1507605145 -1466280171 561836561 1112839832 892890794 -1694699626 -1590685084 -147418342 -1329931659 -436287285 570308591 962435232 -1422156760 1299723881 1261215503 507336980 -514616386 -287696492 1361846938 779633765 2062663204 1670286816 -951090517 -1232282032 -494088746 -42348471 1750472478 -1233555406 -198057393
REM
CELL 1.54180   50.00000   50.00000   50.00000   90.00000   90.00000   90.00000
LATT -1
SFAC C  
C      1  0.5528380000000  0.4970920000000  0.5008950000000 1.0
C      1  0.5266310000000  0.4970920000000  0.5008950000000 1.0
C      1  0.5000000000000  0.4970920000000  0.5008950000000 1.0
C      1  0.4471620000000  0.4970920000000  0.5008950000000 1.0
C      1  0.4733690000000  0.4970920000000  0.5008950000000 1.0
END
