TITL C-2622961-1971-418 -0.00355894184872613 125000 -656.391494915445 0 0 114 (C1) n - 1
REM
REM in /nfs/bkarasulu/CARBON/AIRSS/Generating-Clusters/AIREBO/with-SteepDescent/Higher-Symm/SD-CG/HFTN-CG
REM
REM
REM
REM
REM
REM ./C.cell (b20cbc046b6831c77cfcea5457e17084)
REM
REM compiler GCC version 9.2.1 20190827 (Red Hat 9.2.1-1)
REM options -cpp -mtune=generic -march=x86-64 -g -O0 -fpre-include=/usr/include/finclude/math-vector-fortran.h
REM seed -1520592541 -1684548489 -1742852838 1829134824 298494658 -306325345 -1729544435 -947193035 883339717 1007433901 -896034404 -1537543275 -1163974509 -1085571863 -134539258 -352039058 -553657962 550961754 -2076891991 1688978775 1746899739 1634250392 -1939244661 -2083191620 -1431311382 450446060 2042559164 1937615975 2027325484 -46167279 -2104892352 1752034602 275947964
REM
CELL 1.54180   50.00000   50.00000   50.00000   90.00000   90.00000   90.00000
LATT -1
SFAC C  
C      1  0.4950040000000  0.4208510000000  0.5725890000000 1.0
C      1  0.5704090000000  0.4264960000000  0.4941980000000 1.0
C      1  0.5024500000000  0.4232030000000  0.4289780000000 1.0
C      1  0.4317120000000  0.4239720000000  0.5061480000000 1.0
C      1  0.5026240000000  0.5720980000000  0.5627870000000 1.0
C      1  0.5619920000000  0.5723430000000  0.4995930000000 1.0
C      1  0.4904030000000  0.5707880000000  0.4304000000000 1.0
C      1  0.4391320000000  0.5762340000000  0.5037710000000 1.0
C      1  0.4888990000000  0.5482090000000  0.5712130000000 1.0
C      1  0.5699830000000  0.5467100000000  0.5084320000000 1.0
C      1  0.5048060000000  0.5446670000000  0.4280930000000 1.0
C      1  0.4223590000000  0.5600030000000  0.4865530000000 1.0
C      1  0.4878530000000  0.4482450000000  0.5600900000000 1.0
C      1  0.5612070000000  0.4454610000000  0.5189770000000 1.0
C      1  0.5153020000000  0.4492930000000  0.4397850000000 1.0
C      1  0.4391600000000  0.4459140000000  0.4846590000000 1.0
C      1  0.4985630000000  0.4876450000000  0.4676960000000 1.0
C      1  0.4686090000000  0.4806410000000  0.5071860000000 1.0
C      1  0.4976390000000  0.4903730000000  0.5337490000000 1.0
C      1  0.5363010000000  0.4827770000000  0.4978800000000 1.0
C      1  0.5167960000000  0.5122350000000  0.4792140000000 1.0
C      1  0.4748320000000  0.5098140000000  0.4908130000000 1.0
C      1  0.4792150000000  0.5152240000000  0.5238200000000 1.0
C      1  0.5271170000000  0.5116280000000  0.5116410000000 1.0
C      1  0.4485970000000  0.4869610000000  0.5600060000000 1.0
C      1  0.5716650000000  0.4822750000000  0.5576780000000 1.0
C      1  0.5544160000000  0.4877680000000  0.4386780000000 1.0
C      1  0.4355410000000  0.5034080000000  0.4483150000000 1.0
C      1  0.4571730000000  0.5196090000000  0.5584770000000 1.0
C      1  0.5660000000000  0.5125210000000  0.5595450000000 1.0
C      1  0.5441620000000  0.5173800000000  0.4368830000000 1.0
C      1  0.4414920000000  0.5281950000000  0.4591980000000 1.0
C      1  0.4618710000000  0.4499890000000  0.5087970000000 1.0
C      1  0.5062330000000  0.4606040000000  0.5424120000000 1.0
C      1  0.5407910000000  0.4529830000000  0.4928270000000 1.0
C      1  0.4899410000000  0.4570240000000  0.4579380000000 1.0
C      1  0.4574160000000  0.5369570000000  0.5291570000000 1.0
C      1  0.5252790000000  0.5354180000000  0.5323240000000 1.0
C      1  0.5365360000000  0.5306010000000  0.4656810000000 1.0
C      1  0.4704190000000  0.5300060000000  0.4673050000000 1.0
C      1  0.4370080000000  0.4601250000000  0.4619530000000 1.0
C      1  0.4568880000000  0.4541060000000  0.5569000000000 1.0
C      1  0.5711950000000  0.4497880000000  0.5483820000000 1.0
C      1  0.5463440000000  0.4555170000000  0.4437400000000 1.0
C      1  0.4238750000000  0.5543820000000  0.4530490000000 1.0
C      1  0.4550010000000  0.5501650000000  0.5732310000000 1.0
C      1  0.5726550000000  0.5382430000000  0.5397100000000 1.0
C      1  0.5371430000000  0.5494610000000  0.4297410000000 1.0
C      1  0.5178410000000  0.5632250000000  0.5199470000000 1.0
C      1  0.5266580000000  0.5619750000000  0.4677600000000 1.0
C      1  0.4784640000000  0.5590190000000  0.4749180000000 1.0
C      1  0.4706600000000  0.5677540000000  0.5264720000000 1.0
C      1  0.5291500000000  0.4397050000000  0.5284350000000 1.0
C      1  0.5224200000000  0.4270140000000  0.4787380000000 1.0
C      1  0.4723460000000  0.4300920000000  0.4691610000000 1.0
C      1  0.4793390000000  0.4224550000000  0.5199690000000 1.0
C      1  0.4293640000000  0.4984480000000  0.5391660000000 1.0
C      1  0.5394880000000  0.4842220000000  0.5685700000000 1.0
C      1  0.5734830000000  0.5013770000000  0.4587740000000 1.0
C      1  0.4600120000000  0.4924680000000  0.4323180000000 1.0
C      1  0.4213500000000  0.5256560000000  0.5418180000000 1.0
C      1  0.5382810000000  0.5175970000000  0.5763280000000 1.0
C      1  0.5753070000000  0.5329720000000  0.4565410000000 1.0
C      1  0.4563010000000  0.5246350000000  0.4217560000000 1.0
C      1  0.5364400000000  0.4717000000000  0.4157540000000 1.0
C      1  0.4252520000000  0.4846870000000  0.4654670000000 1.0
C      1  0.4669080000000  0.4726470000000  0.5832600000000 1.0
C      1  0.5873430000000  0.4733390000000  0.5302720000000 1.0
C      1  0.5323920000000  0.5260780000000  0.4061630000000 1.0
C      1  0.4024520000000  0.5319630000000  0.4669940000000 1.0
C      1  0.4641850000000  0.5249770000000  0.5917730000000 1.0
C      1  0.6022720000000  0.5335630000000  0.5279650000000 1.0
C      1  0.4376980000000  0.5714040000000  0.5340350000000 1.0
C      1  0.5307250000000  0.5710040000000  0.5690440000000 1.0
C      1  0.5574300000000  0.5765520000000  0.4680670000000 1.0
C      1  0.4634150000000  0.5721070000000  0.4212920000000 1.0
C      1  0.4509430000000  0.4053200000000  0.5252740000000 1.0
C      1  0.5244280000000  0.4298380000000  0.5600040000000 1.0
C      1  0.5505210000000  0.4090730000000  0.4743740000000 1.0
C      1  0.4725400000000  0.4294900000000  0.4348990000000 1.0
C      1  0.4275910000000  0.5390470000000  0.5128410000000 1.0
C      1  0.5093020000000  0.5266920000000  0.5610410000000 1.0
C      1  0.5629160000000  0.5269050000000  0.4868510000000 1.0
C      1  0.4857040000000  0.5222820000000  0.4385040000000 1.0
C      1  0.4363990000000  0.4889010000000  0.5132920000000 1.0
C      1  0.5087920000000  0.4933150000000  0.5652890000000 1.0
C      1  0.5660810000000  0.4954800000000  0.4912390000000 1.0
C      1  0.4936130000000  0.4899630000000  0.4349540000000 1.0
C      1  0.4606660000000  0.4603680000000  0.4416870000000 1.0
C      1  0.4457850000000  0.4373340000000  0.5355430000000 1.0
C      1  0.5451060000000  0.4528300000000  0.5658000000000 1.0
C      1  0.5574970000000  0.4415880000000  0.4665940000000 1.0
C      1  0.4450100000000  0.5508700000000  0.4266450000000 1.0
C      1  0.4302310000000  0.5524950000000  0.5537490000000 1.0
C      1  0.5445020000000  0.5452810000000  0.5574420000000 1.0
C      1  0.5618790000000  0.5557210000000  0.4471480000000 1.0
C      1  0.4899530000000  0.4874420000000  0.5888900000000 1.0
C      1  0.5896690000000  0.4902380000000  0.5090830000000 1.0
C      1  0.5118400000000  0.4851680000000  0.4110820000000 1.0
C      1  0.4201900000000  0.4950850000000  0.4912180000000 1.0
C      1  0.4830630000000  0.5104160000000  0.6035740000000 1.0
C      1  0.6073650000000  0.5118920000000  0.5119830000000 1.0
C      1  0.5156550000000  0.5082760000000  0.3952480000000 1.0
C      1  0.4117600000000  0.5216630000000  0.4907320000000 1.0
C      1  0.4611350000000  0.4137380000000  0.4925100000000 1.0
C      1  0.5001980000000  0.4163240000000  0.5396790000000 1.0
C      1  0.5385980000000  0.4155940000000  0.5063780000000 1.0
C      1  0.5009990000000  0.4188280000000  0.4606840000000 1.0
C      1  0.4674330000000  0.5738050000000  0.4948410000000 1.0
C      1  0.4976340000000  0.5752100000000  0.5351980000000 1.0
C      1  0.5318020000000  0.5727210000000  0.4981110000000 1.0
C      1  0.4988490000000  0.5693130000000  0.4588930000000 1.0
C      1  0.5000070000000  0.5270370000000  0.5026110000000 1.0
C      1  0.5021800000000  0.4822840000000  0.5010080000000 1.0
END
