TITL C-2622961-1971-344 -0.000503332832740574 125000 -172.971697981152 0 0 36 (C1) n - 1
REM
REM in /nfs/bkarasulu/CARBON/AIRSS/Generating-Clusters/AIREBO/with-SteepDescent/Higher-Symm/SD-CG/HFTN-CG
REM
REM
REM
REM
REM
REM ./C.cell (b20cbc046b6831c77cfcea5457e17084)
REM
REM compiler GCC version 9.2.1 20190827 (Red Hat 9.2.1-1)
REM options -cpp -mtune=generic -march=x86-64 -g -O0 -fpre-include=/usr/include/finclude/math-vector-fortran.h
REM seed -816440573 1759641510 831390978 -1202074956 -1578866750 717596705 569617571 737404665 1057732707 -280068907 -1885732407 311280908 1649670106 -1987610409 1304662205 1389684825 -1128931623 1983665512 -361612400 -1825376003 818240131 221291428 -1441127331 1583737708 1382443464 1056146195 -898636904 1827791697 -1472376148 87281758 1230844399 646423170 -1243084047
REM
CELL 1.54180   50.00000   50.00000   50.00000   90.00000   90.00000   90.00000
LATT -1
SFAC C  
C      1  0.4796760000000  0.4872120000000  0.4368520000000 1.0
C      1  0.5246350000000  0.4984620000000  0.5618890000000 1.0
C      1  0.5268510000000  0.5034420000000  0.4381280000000 1.0
C      1  0.4753200000000  0.5140020000000  0.5604440000000 1.0
C      1  0.4311590000000  0.4965670000000  0.4666500000000 1.0
C      1  0.5669740000000  0.4842030000000  0.5260660000000 1.0
C      1  0.4300610000000  0.4966320000000  0.5282000000000 1.0
C      1  0.5683020000000  0.5146770000000  0.4742650000000 1.0
C      1  0.4938050000000  0.5339210000000  0.5205820000000 1.0
C      1  0.5117450000000  0.5392140000000  0.4715680000000 1.0
C      1  0.5114770000000  0.4623100000000  0.5288690000000 1.0
C      1  0.4902950000000  0.4677590000000  0.4818160000000 1.0
C      1  0.5137050000000  0.5476550000000  0.4978300000000 1.0
C      1  0.4648540000000  0.5321350000000  0.5101730000000 1.0
C      1  0.5117930000000  0.4537190000000  0.5026310000000 1.0
C      1  0.4610840000000  0.4613480000000  0.4931930000000 1.0
C      1  0.4941120000000  0.4532420000000  0.5512760000000 1.0
C      1  0.5131650000000  0.4707830000000  0.4579770000000 1.0
C      1  0.5177720000000  0.5327170000000  0.5428240000000 1.0
C      1  0.4929940000000  0.5487660000000  0.4504080000000 1.0
C      1  0.5374320000000  0.4513120000000  0.4898650000000 1.0
C      1  0.4571010000000  0.4579140000000  0.5197320000000 1.0
C      1  0.5403470000000  0.5496110000000  0.5085980000000 1.0
C      1  0.4597600000000  0.5417830000000  0.4853530000000 1.0
C      1  0.4549200000000  0.5033690000000  0.5123040000000 1.0
C      1  0.5431210000000  0.5005100000000  0.4846440000000 1.0
C      1  0.5429920000000  0.5004460000000  0.5156620000000 1.0
C      1  0.4557800000000  0.4911920000000  0.4835880000000 1.0
C      1  0.5169690000000  0.5093970000000  0.4673580000000 1.0
C      1  0.4837300000000  0.5024360000000  0.5303440000000 1.0
C      1  0.5161690000000  0.4923220000000  0.5322690000000 1.0
C      1  0.4847150000000  0.4981020000000  0.4671200000000 1.0
C      1  0.5417520000000  0.5289450000000  0.5285210000000 1.0
C      1  0.4736830000000  0.4709800000000  0.5385230000000 1.0
C      1  0.4736200000000  0.5301920000000  0.4637350000000 1.0
C      1  0.5381300000000  0.4727230000000  0.4707440000000 1.0
END
