TITL C-2622955-8511-630 -0.000327287249667776 125000 -527.231169026619 0 0 101 (C1) n - 1
REM
REM in /nfs/bkarasulu/CARBON/AIRSS/Generating-Clusters/AIREBO/with-SteepDescent/Higher-Symm/SD-CG/HFTN-CG
REM
REM
REM
REM
REM
REM ./C.cell (b20cbc046b6831c77cfcea5457e17084)
REM
REM compiler GCC version 9.2.1 20190827 (Red Hat 9.2.1-1)
REM options -cpp -mtune=generic -march=x86-64 -g -O0 -fpre-include=/usr/include/finclude/math-vector-fortran.h
REM seed -1149876969 2115713993 1881119224 -1273140182 -817135846 1074474502 -30060609 -1969519941 607272222 1861725238 -163615594 -495929190 -1291651599 -1061553402 -507491798 1238058695 2064050843 1067080712 -1355581572 1376314605 1332761138 -387474614 827762256 1761695268 -1485916079 1722998182 -1074827373 1182417582 -637032371 94811408 -1068046332 1618988081 1807685466
REM
CELL 1.54180   50.00000   50.00000   50.00000   90.00000   90.00000   90.00000
LATT -1
SFAC C  
C      1  0.4750860000000  0.5943610000000  0.5141400000000 1.0
C      1  0.5019240000000  0.5881750000000  0.5210060000000 1.0
C      1  0.5221370000000  0.6028860000000  0.5076320000000 1.0
C      1  0.5259240000000  0.5981560000000  0.4805840000000 1.0
C      1  0.5067330000000  0.5844170000000  0.4649200000000 1.0
C      1  0.4806820000000  0.5973140000000  0.4668470000000 1.0
C      1  0.4675690000000  0.5841970000000  0.4888250000000 1.0
C      1  0.5454340000000  0.4434000000000  0.5429660000000 1.0
C      1  0.5662850000000  0.4437280000000  0.4921620000000 1.0
C      1  0.5320400000000  0.4437750000000  0.4490710000000 1.0
C      1  0.4798460000000  0.4533220000000  0.4357770000000 1.0
C      1  0.4402300000000  0.4438080000000  0.4699400000000 1.0
C      1  0.4465390000000  0.4496400000000  0.5294570000000 1.0
C      1  0.4911290000000  0.4451490000000  0.5663440000000 1.0
C      1  0.5329060000000  0.4705730000000  0.4787300000000 1.0
C      1  0.5082730000000  0.4753740000000  0.4624800000000 1.0
C      1  0.4805340000000  0.4622460000000  0.4771340000000 1.0
C      1  0.4573960000000  0.4674920000000  0.5030980000000 1.0
C      1  0.4859750000000  0.4558130000000  0.5282770000000 1.0
C      1  0.5133610000000  0.4671840000000  0.5416410000000 1.0
C      1  0.5311760000000  0.4547330000000  0.5074420000000 1.0
C      1  0.5848300000000  0.5032670000000  0.5265540000000 1.0
C      1  0.5756050000000  0.4877740000000  0.4550850000000 1.0
C      1  0.5057870000000  0.4935820000000  0.4148010000000 1.0
C      1  0.4328190000000  0.4924770000000  0.4433630000000 1.0
C      1  0.4098990000000  0.4989910000000  0.5140480000000 1.0
C      1  0.4557340000000  0.4908920000000  0.5763120000000 1.0
C      1  0.5305680000000  0.4863240000000  0.5721540000000 1.0
C      1  0.4095650000000  0.5295100000000  0.5113490000000 1.0
C      1  0.4570250000000  0.5221270000000  0.5706750000000 1.0
C      1  0.5189370000000  0.5145370000000  0.5692520000000 1.0
C      1  0.5744530000000  0.5259490000000  0.5155240000000 1.0
C      1  0.5668460000000  0.5163730000000  0.4580590000000 1.0
C      1  0.5119610000000  0.5240870000000  0.4209900000000 1.0
C      1  0.4384050000000  0.5239420000000  0.4456830000000 1.0
C      1  0.4899830000000  0.4338850000000  0.4608970000000 1.0
C      1  0.4660470000000  0.4326270000000  0.4855340000000 1.0
C      1  0.4687330000000  0.4290280000000  0.5163580000000 1.0
C      1  0.4949920000000  0.4248280000000  0.5390020000000 1.0
C      1  0.5236220000000  0.4272930000000  0.5260780000000 1.0
C      1  0.5399140000000  0.4240190000000  0.4957080000000 1.0
C      1  0.5201750000000  0.4225100000000  0.4680660000000 1.0
C      1  0.5241810000000  0.4531990000000  0.5676800000000 1.0
C      1  0.5686040000000  0.4478980000000  0.5255640000000 1.0
C      1  0.5583020000000  0.4598340000000  0.4638270000000 1.0
C      1  0.5116130000000  0.4649200000000  0.4319630000000 1.0
C      1  0.4500680000000  0.4634600000000  0.4488080000000 1.0
C      1  0.4280440000000  0.4534460000000  0.5001840000000 1.0
C      1  0.4607410000000  0.4587390000000  0.5589790000000 1.0
C      1  0.4860510000000  0.5428450000000  0.5316750000000 1.0
C      1  0.5062690000000  0.5605970000000  0.5235560000000 1.0
C      1  0.5276810000000  0.5454640000000  0.5101970000000 1.0
C      1  0.5241250000000  0.5385790000000  0.4801300000000 1.0
C      1  0.4998360000000  0.5519730000000  0.4680150000000 1.0
C      1  0.4733640000000  0.5531690000000  0.4855590000000 1.0
C      1  0.4674420000000  0.5377810000000  0.5121390000000 1.0
C      1  0.5894270000000  0.4762280000000  0.4824790000000 1.0
C      1  0.5440260000000  0.4650460000000  0.4216520000000 1.0
C      1  0.4579320000000  0.4850050000000  0.4239620000000 1.0
C      1  0.4217510000000  0.4839740000000  0.4939690000000 1.0
C      1  0.4329950000000  0.4783940000000  0.5592620000000 1.0
C      1  0.4925020000000  0.4752720000000  0.5764570000000 1.0
C      1  0.5795900000000  0.4976980000000  0.5541000000000 1.0
C      1  0.4581190000000  0.5525310000000  0.5638430000000 1.0
C      1  0.5209580000000  0.5484410000000  0.5708880000000 1.0
C      1  0.5636980000000  0.5534470000000  0.5253190000000 1.0
C      1  0.5597910000000  0.5503730000000  0.4594500000000 1.0
C      1  0.5042620000000  0.5555170000000  0.4218300000000 1.0
C      1  0.4448720000000  0.5549950000000  0.4475760000000 1.0
C      1  0.4253720000000  0.5561350000000  0.5088140000000 1.0
C      1  0.5439720000000  0.5514490000000  0.5460310000000 1.0
C      1  0.5641070000000  0.5562830000000  0.4912900000000 1.0
C      1  0.5304830000000  0.5524800000000  0.4423360000000 1.0
C      1  0.4726860000000  0.5552340000000  0.4349900000000 1.0
C      1  0.4341890000000  0.5561280000000  0.4801630000000 1.0
C      1  0.4422720000000  0.5542360000000  0.5382680000000 1.0
C      1  0.4897030000000  0.5578040000000  0.5757190000000 1.0
C      1  0.5169430000000  0.4970210000000  0.5299500000000 1.0
C      1  0.5461570000000  0.4808120000000  0.5235730000000 1.0
C      1  0.5376130000000  0.4981340000000  0.4958420000000 1.0
C      1  0.5080010000000  0.5065380000000  0.4623580000000 1.0
C      1  0.4739800000000  0.4954570000000  0.4804110000000 1.0
C      1  0.4589950000000  0.4989890000000  0.5102570000000 1.0
C      1  0.4839130000000  0.4892420000000  0.5263730000000 1.0
C      1  0.5221380000000  0.5267680000000  0.5376890000000 1.0
C      1  0.5536380000000  0.5240240000000  0.4887070000000 1.0
C      1  0.5347270000000  0.5207040000000  0.4536720000000 1.0
C      1  0.4895280000000  0.5279310000000  0.4462650000000 1.0
C      1  0.4524510000000  0.5286810000000  0.4762950000000 1.0
C      1  0.4398720000000  0.5227860000000  0.5252330000000 1.0
C      1  0.4888990000000  0.5274390000000  0.5598730000000 1.0
C      1  0.5674600000000  0.4758130000000  0.4262450000000 1.0
C      1  0.4783480000000  0.5032990000000  0.4244350000000 1.0
C      1  0.4404820000000  0.4973280000000  0.4748820000000 1.0
C      1  0.4241650000000  0.4958600000000  0.5405100000000 1.0
C      1  0.4826370000000  0.4952870000000  0.5565100000000 1.0
C      1  0.5544770000000  0.4842500000000  0.5552330000000 1.0
C      1  0.5774890000000  0.4772270000000  0.5108310000000 1.0
C      1  0.5046010000000  0.4995720000000  0.4938740000000 1.0
C      1  0.5004910000000  0.4468090000000  0.4999270000000 1.0
C      1  0.5010580000000  0.4160280000000  0.4947110000000 1.0
END
