TITL C-2622956-4641-790 0.00182644797297228 125000 -934.717092155002 0 0 171 (C1) n - 1
REM
REM in /nfs/bkarasulu/CARBON/AIRSS/Generating-Clusters/AIREBO/with-SteepDescent/Higher-Symm/SD-CG/HFTN-CG
REM
REM
REM
REM
REM
REM ./C.cell (b20cbc046b6831c77cfcea5457e17084)
REM
REM compiler GCC version 9.2.1 20190827 (Red Hat 9.2.1-1)
REM options -cpp -mtune=generic -march=x86-64 -g -O0 -fpre-include=/usr/include/finclude/math-vector-fortran.h
REM seed -180022369 -162810056 281523540 -973444943 -472863317 64794400 1543416265 -865317331 -2001595636 560539237 1761816767 -863520103 938747986 -953602304 400617764 -1373963543 -2062858882 -803478332 1951616082 -655523185 1611370846 208076007 2031189170 -1287487013 -850261737 -1862746610 1770839548 1530835562 -1534246830 854575774 -1689094323 -1975741365 14958373
REM
CELL 1.54180   50.00000   50.00000   50.00000   90.00000   90.00000   90.00000
LATT -1
SFAC C  
C      1  0.5799960000000  0.4288660000000  0.4404470000000 1.0
C      1  0.4211350000000  0.5705380000000  0.4306460000000 1.0
C      1  0.4244050000000  0.4468490000000  0.5625080000000 1.0
C      1  0.5675190000000  0.5657510000000  0.5559450000000 1.0
C      1  0.5188260000000  0.4452210000000  0.5641090000000 1.0
C      1  0.4780230000000  0.5577320000000  0.5608040000000 1.0
C      1  0.4802670000000  0.4381700000000  0.4377120000000 1.0
C      1  0.5201400000000  0.5619810000000  0.4342460000000 1.0
C      1  0.5058710000000  0.5990280000000  0.4868580000000 1.0
C      1  0.4930640000000  0.4061000000000  0.4886560000000 1.0
C      1  0.4954220000000  0.5941610000000  0.5145840000000 1.0
C      1  0.4983750000000  0.4036690000000  0.5176320000000 1.0
C      1  0.4406870000000  0.4171210000000  0.4822310000000 1.0
C      1  0.5525400000000  0.5836940000000  0.4805790000000 1.0
C      1  0.5577640000000  0.4171580000000  0.5221710000000 1.0
C      1  0.4368760000000  0.5805460000000  0.5169110000000 1.0
C      1  0.5020310000000  0.4799960000000  0.6004170000000 1.0
C      1  0.5088090000000  0.5266730000000  0.5990700000000 1.0
C      1  0.5056880000000  0.4760820000000  0.4027280000000 1.0
C      1  0.4992360000000  0.5245210000000  0.3995040000000 1.0
C      1  0.5475370000000  0.4697890000000  0.4495770000000 1.0
C      1  0.4623290000000  0.5348840000000  0.4458840000000 1.0
C      1  0.4559860000000  0.4733200000000  0.5528000000000 1.0
C      1  0.5540920000000  0.5336180000000  0.5538230000000 1.0
C      1  0.4036240000000  0.4502700000000  0.5389900000000 1.0
C      1  0.5854920000000  0.5401930000000  0.5439270000000 1.0
C      1  0.5854760000000  0.4530950000000  0.4539680000000 1.0
C      1  0.4147370000000  0.5471000000000  0.4442280000000 1.0
C      1  0.4618140000000  0.5903780000000  0.4873480000000 1.0
C      1  0.5330590000000  0.4168010000000  0.4806740000000 1.0
C      1  0.5314900000000  0.5808070000000  0.5265300000000 1.0
C      1  0.4630060000000  0.4219220000000  0.5148760000000 1.0
C      1  0.5417360000000  0.5332550000000  0.5160730000000 1.0
C      1  0.4437650000000  0.4700400000000  0.5230060000000 1.0
C      1  0.4536700000000  0.5379910000000  0.4767620000000 1.0
C      1  0.5454120000000  0.4576510000000  0.4787430000000 1.0
C      1  0.4993380000000  0.4381970000000  0.4796290000000 1.0
C      1  0.4993860000000  0.5656520000000  0.4871290000000 1.0
C      1  0.4994600000000  0.4374430000000  0.5135940000000 1.0
C      1  0.4975600000000  0.5607670000000  0.5206810000000 1.0
C      1  0.4424340000000  0.5091150000000  0.4515200000000 1.0
C      1  0.5591500000000  0.5000000000000  0.4515930000000 1.0
C      1  0.5624020000000  0.4863720000000  0.5598310000000 1.0
C      1  0.4384030000000  0.4913590000000  0.5693090000000 1.0
C      1  0.5958560000000  0.5163410000000  0.4829600000000 1.0
C      1  0.4012740000000  0.4713080000000  0.4921900000000 1.0
C      1  0.4008040000000  0.5208620000000  0.5217700000000 1.0
C      1  0.6019550000000  0.4701450000000  0.5053910000000 1.0
C      1  0.5853200000000  0.5356410000000  0.4564760000000 1.0
C      1  0.4080100000000  0.4695940000000  0.4628760000000 1.0
C      1  0.4128680000000  0.5214860000000  0.5467030000000 1.0
C      1  0.5955170000000  0.4663930000000  0.5331240000000 1.0
C      1  0.4801780000000  0.5080940000000  0.4774770000000 1.0
C      1  0.5275660000000  0.4931410000000  0.4751210000000 1.0
C      1  0.5232650000000  0.4994800000000  0.5263040000000 1.0
C      1  0.4744640000000  0.5022720000000  0.5257510000000 1.0
C      1  0.5485710000000  0.4163360000000  0.4439610000000 1.0
C      1  0.4525880000000  0.5830390000000  0.4339970000000 1.0
C      1  0.4488380000000  0.4238360000000  0.5649510000000 1.0
C      1  0.5404980000000  0.5848540000000  0.5651770000000 1.0
C      1  0.4888170000000  0.4956080000000  0.4248920000000 1.0
C      1  0.5175130000000  0.5128020000000  0.4256880000000 1.0
C      1  0.5227510000000  0.4919130000000  0.5762140000000 1.0
C      1  0.4960810000000  0.5094950000000  0.5726270000000 1.0
C      1  0.4780610000000  0.5321620000000  0.4997500000000 1.0
C      1  0.5200670000000  0.4716710000000  0.4966960000000 1.0
C      1  0.5119880000000  0.5299230000000  0.4999480000000 1.0
C      1  0.4819070000000  0.4703770000000  0.4952900000000 1.0
C      1  0.4522550000000  0.4529680000000  0.4252390000000 1.0
C      1  0.5492450000000  0.5486480000000  0.4226530000000 1.0
C      1  0.5505290000000  0.4561350000000  0.5698960000000 1.0
C      1  0.4510280000000  0.5453460000000  0.5773870000000 1.0
C      1  0.4875490000000  0.5181290000000  0.4503680000000 1.0
C      1  0.5200050000000  0.4857950000000  0.4462160000000 1.0
C      1  0.5410840000000  0.5069450000000  0.5518270000000 1.0
C      1  0.4860220000000  0.4851210000000  0.5511630000000 1.0
C      1  0.5425670000000  0.5893980000000  0.4553800000000 1.0
C      1  0.4535760000000  0.4097510000000  0.4562280000000 1.0
C      1  0.4503350000000  0.5856570000000  0.5442490000000 1.0
C      1  0.5439960000000  0.4117790000000  0.5475900000000 1.0
C      1  0.5620990000000  0.4921750000000  0.4188940000000 1.0
C      1  0.4419690000000  0.5080690000000  0.4175360000000 1.0
C      1  0.4504510000000  0.4968860000000  0.5933110000000 1.0
C      1  0.5618360000000  0.5081190000000  0.5859610000000 1.0
C      1  0.4668380000000  0.5569070000000  0.4246260000000 1.0
C      1  0.5348990000000  0.4445060000000  0.4306770000000 1.0
C      1  0.5314480000000  0.5533600000000  0.5679400000000 1.0
C      1  0.4656550000000  0.4502230000000  0.5738920000000 1.0
C      1  0.5150500000000  0.5973050000000  0.5486900000000 1.0
C      1  0.4765470000000  0.4197450000000  0.5455360000000 1.0
C      1  0.4761350000000  0.5899090000000  0.4564980000000 1.0
C      1  0.5190650000000  0.4021640000000  0.4542050000000 1.0
C      1  0.5416630000000  0.5310480000000  0.5914860000000 1.0
C      1  0.4685540000000  0.4752530000000  0.5968400000000 1.0
C      1  0.4660850000000  0.5283270000000  0.4068070000000 1.0
C      1  0.5386910000000  0.4717130000000  0.4106320000000 1.0
C      1  0.4002020000000  0.4706470000000  0.5630110000000 1.0
C      1  0.5882590000000  0.5156810000000  0.5656330000000 1.0
C      1  0.5865060000000  0.4754660000000  0.4367610000000 1.0
C      1  0.4133040000000  0.5233170000000  0.4288180000000 1.0
C      1  0.5647410000000  0.4525360000000  0.5391950000000 1.0
C      1  0.4371120000000  0.5364770000000  0.5493580000000 1.0
C      1  0.4240380000000  0.4491350000000  0.4427420000000 1.0
C      1  0.5777680000000  0.5562030000000  0.4378430000000 1.0
C      1  0.4799640000000  0.5252090000000  0.5503290000000 1.0
C      1  0.5186810000000  0.4740940000000  0.5475380000000 1.0
C      1  0.5172580000000  0.5352110000000  0.4511240000000 1.0
C      1  0.4894870000000  0.4702150000000  0.4444160000000 1.0
C      1  0.5178410000000  0.4963150000000  0.3782450000000 1.0
C      1  0.4875500000000  0.5009960000000  0.3773580000000 1.0
C      1  0.4912270000000  0.5017870000000  0.6247760000000 1.0
C      1  0.5217430000000  0.5057640000000  0.6235250000000 1.0
C      1  0.5781190000000  0.4540180000000  0.4872850000000 1.0
C      1  0.4230630000000  0.5452970000000  0.4771630000000 1.0
C      1  0.4174750000000  0.4539410000000  0.5122510000000 1.0
C      1  0.5709680000000  0.5480220000000  0.5141990000000 1.0
C      1  0.5533590000000  0.4766400000000  0.5968990000000 1.0
C      1  0.4566700000000  0.5238900000000  0.5980580000000 1.0
C      1  0.4528980000000  0.4778120000000  0.4081450000000 1.0
C      1  0.5514160000000  0.5223030000000  0.4069720000000 1.0
C      1  0.5613660000000  0.5833570000000  0.5302960000000 1.0
C      1  0.4364940000000  0.4226910000000  0.5338700000000 1.0
C      1  0.4384380000000  0.5798120000000  0.4647440000000 1.0
C      1  0.5635600000000  0.4191320000000  0.4743760000000 1.0
C      1  0.5038530000000  0.4451940000000  0.4168310000000 1.0
C      1  0.4976660000000  0.5558560000000  0.4126160000000 1.0
C      1  0.4971550000000  0.4500670000000  0.5850390000000 1.0
C      1  0.5018390000000  0.5549690000000  0.5813960000000 1.0
C      1  0.5303540000000  0.4257730000000  0.5093610000000 1.0
C      1  0.4661070000000  0.5677890000000  0.5124080000000 1.0
C      1  0.4668670000000  0.4353240000000  0.4838670000000 1.0
C      1  0.5300790000000  0.5684680000000  0.4969080000000 1.0
C      1  0.4703440000000  0.4628970000000  0.4675030000000 1.0
C      1  0.5336940000000  0.5405660000000  0.4777990000000 1.0
C      1  0.5347110000000  0.4565050000000  0.5232360000000 1.0
C      1  0.4610450000000  0.5396670000000  0.5273880000000 1.0
C      1  0.4520740000000  0.4966650000000  0.4783200000000 1.0
C      1  0.5559110000000  0.5017080000000  0.4824260000000 1.0
C      1  0.5528040000000  0.5024870000000  0.5138670000000 1.0
C      1  0.4459650000000  0.4987520000000  0.5088230000000 1.0
C      1  0.4124550000000  0.4970350000000  0.5610230000000 1.0
C      1  0.5922850000000  0.4895050000000  0.5489550000000 1.0
C      1  0.5915920000000  0.5058090000000  0.4446640000000 1.0
C      1  0.4121860000000  0.4965510000000  0.4461160000000 1.0
C      1  0.5232460000000  0.4410260000000  0.4625220000000 1.0
C      1  0.4729550000000  0.5617110000000  0.4734900000000 1.0
C      1  0.4705830000000  0.4543000000000  0.5187860000000 1.0
C      1  0.5228300000000  0.5502320000000  0.5351850000000 1.0
C      1  0.5100040000000  0.5872140000000  0.4550650000000 1.0
C      1  0.4864350000000  0.4095170000000  0.4553840000000 1.0
C      1  0.4829800000000  0.5879760000000  0.5456710000000 1.0
C      1  0.5104900000000  0.4174200000000  0.5463060000000 1.0
C      1  0.5721150000000  0.5788430000000  0.5024500000000 1.0
C      1  0.4245810000000  0.4226770000000  0.5039420000000 1.0
C      1  0.4240790000000  0.5755460000000  0.4927310000000 1.0
C      1  0.5767090000000  0.4228530000000  0.5009160000000 1.0
C      1  0.5560060000000  0.4225820000000  0.5703170000000 1.0
C      1  0.4397300000000  0.5745440000000  0.5667970000000 1.0
C      1  0.4410660000000  0.4221980000000  0.4344190000000 1.0
C      1  0.5560360000000  0.5796020000000  0.4336080000000 1.0
C      1  0.4785420000000  0.5268050000000  0.6145680000000 1.0
C      1  0.5323900000000  0.4781890000000  0.6156290000000 1.0
C      1  0.5308250000000  0.5212470000000  0.3873320000000 1.0
C      1  0.4741700000000  0.4776490000000  0.3896110000000 1.0
C      1  0.5625350000000  0.4721340000000  0.5114930000000 1.0
C      1  0.4217840000000  0.5192400000000  0.4964130000000 1.0
C      1  0.4410960000000  0.4707490000000  0.4621920000000 1.0
C      1  0.5663070000000  0.5331090000000  0.4845530000000 1.0
C      1  0.6077280000000  0.4960200000000  0.4948270000000 1.0
C      1  0.3965210000000  0.4973730000000  0.5008560000000 1.0
C      1  0.4997740000000  0.4981380000000  0.5034200000000 1.0
END
