TITL C-2622968-4806-346 -9.5150809002243e-07 125000 -191.858780330876 0 0 33 (C1) n - 1
REM
REM in /nfs/bkarasulu/CARBON/AIRSS/Generating-Clusters/AIREBO/with-SteepDescent/Higher-Symm/SD-CG/HFTN-CG
REM
REM
REM
REM
REM
REM ./C.cell (b20cbc046b6831c77cfcea5457e17084)
REM
REM compiler GCC version 9.2.1 20190827 (Red Hat 9.2.1-1)
REM options -cpp -mtune=generic -march=x86-64 -g -O0 -fpre-include=/usr/include/finclude/math-vector-fortran.h
REM seed -313608786 -1633928811 -2088604861 -1020244368 731048466 -417266356 -733065227 -1395002085 -150814864 -1727881999 -320364560 661587125 784804756 632170709 2080351747 1358228400 992934494 798111608 -831457508 1508825917 -126783759 1977328727 -564843932 356370753 554455964 -969898310 -1838910197 1768316416 -817774581 -2140329434 -1261085668 1933109553 -43030546
REM
CELL 1.54180   50.00000   50.00000   50.00000   90.00000   90.00000   90.00000
LATT -1
SFAC C  
C      1  0.4654380000000  0.5292200000000  0.4951210000000 1.0
C      1  0.4488410000000  0.4865470000000  0.4773480000000 1.0
C      1  0.4694070000000  0.4843760000000  0.5197080000000 1.0
C      1  0.5464950000000  0.5276030000000  0.4641400000000 1.0
C      1  0.5472790000000  0.4856740000000  0.4390830000000 1.0
C      1  0.5591480000000  0.4852800000000  0.4849140000000 1.0
C      1  0.4653770000000  0.4716140000000  0.4950410000000 1.0
C      1  0.4489610000000  0.5143650000000  0.4773110000000 1.0
C      1  0.4693790000000  0.5163990000000  0.5197790000000 1.0
C      1  0.5462760000000  0.4712480000000  0.4636660000000 1.0
C      1  0.5475480000000  0.5135810000000  0.4393270000000 1.0
C      1  0.5591570000000  0.5131200000000  0.4852120000000 1.0
C      1  0.4998750000000  0.5665830000000  0.5024150000000 1.0
C      1  0.4895580000000  0.4660630000000  0.4379930000000 1.0
C      1  0.5001050000000  0.4534870000000  0.6245390000000 1.0
C      1  0.5266110000000  0.5656860000000  0.4925580000000 1.0
C      1  0.4865500000000  0.4869750000000  0.4212360000000 1.0
C      1  0.4943430000000  0.4761450000000  0.6126890000000 1.0
C      1  0.4991720000000  0.4335390000000  0.5021940000000 1.0
C      1  0.4812650000000  0.5134150000000  0.4234580000000 1.0
C      1  0.5000370000000  0.5467980000000  0.6247730000000 1.0
C      1  0.5257650000000  0.4334760000000  0.4919170000000 1.0
C      1  0.4904280000000  0.5341380000000  0.4380760000000 1.0
C      1  0.4943080000000  0.5241910000000  0.6128090000000 1.0
C      1  0.4772410000000  0.5003210000000  0.5465870000000 1.0
C      1  0.4908590000000  0.5001990000000  0.5993360000000 1.0
C      1  0.4833700000000  0.5488680000000  0.4861980000000 1.0
C      1  0.5270100000000  0.4515740000000  0.4691130000000 1.0
C      1  0.5275840000000  0.5475460000000  0.4697740000000 1.0
C      1  0.4830060000000  0.4517080000000  0.4861400000000 1.0
C      1  0.4990740000000  0.4568890000000  0.4621950000000 1.0
C      1  0.4826230000000  0.5002590000000  0.5728580000000 1.0
C      1  0.4995750000000  0.5431140000000  0.4624930000000 1.0
END
