TITL C-2622959-7779-717 -0.00416420839893607 125000 -627.369394480764 0 0 123 (C1) n - 1
REM
REM in /nfs/bkarasulu/CARBON/AIRSS/Generating-Clusters/AIREBO/with-SteepDescent/Higher-Symm/SD-CG/HFTN-CG
REM
REM
REM
REM
REM
REM ./C.cell (b20cbc046b6831c77cfcea5457e17084)
REM
REM compiler GCC version 9.2.1 20190827 (Red Hat 9.2.1-1)
REM options -cpp -mtune=generic -march=x86-64 -g -O0 -fpre-include=/usr/include/finclude/math-vector-fortran.h
REM seed 1486376768 -1306529668 680423733 1542687465 -2028442764 2138057530 -646766102 -1750402775 1275166624 1635115267 461829558 1290417409 1222290990 1252563551 -1191668805 -586388414 1975470638 1673216054 203467020 -1634144357 -1155418810 -1323597967 220622270 1480582225 -1348872216 1172957895 -262884864 637156838 1220575959 47973790 -1101720729 14955377 800363512
REM
CELL 1.54180   50.00000   50.00000   50.00000   90.00000   90.00000   90.00000
LATT -1
SFAC C  
C      1  0.4758840000000  0.4037770000000  0.5012470000000 1.0
C      1  0.4758970000000  0.5428950000000  0.5760780000000 1.0
C      1  0.4704380000000  0.5527820000000  0.4213240000000 1.0
C      1  0.5259800000000  0.4116030000000  0.4932900000000 1.0
C      1  0.5222500000000  0.5434990000000  0.5817490000000 1.0
C      1  0.5216640000000  0.5449950000000  0.4165850000000 1.0
C      1  0.5796860000000  0.5190840000000  0.5639310000000 1.0
C      1  0.5852650000000  0.5341840000000  0.4537840000000 1.0
C      1  0.5697990000000  0.4337090000000  0.4896440000000 1.0
C      1  0.4242670000000  0.5316620000000  0.5629300000000 1.0
C      1  0.4153760000000  0.5363060000000  0.4426930000000 1.0
C      1  0.4239960000000  0.4298410000000  0.4947740000000 1.0
C      1  0.5192610000000  0.4523720000000  0.4806650000000 1.0
C      1  0.5146000000000  0.5072450000000  0.5444900000000 1.0
C      1  0.5206980000000  0.5409510000000  0.4704210000000 1.0
C      1  0.4848650000000  0.4499500000000  0.4806000000000 1.0
C      1  0.4811190000000  0.5053420000000  0.5504460000000 1.0
C      1  0.4889580000000  0.5475710000000  0.4666790000000 1.0
C      1  0.4089800000000  0.4849700000000  0.5194420000000 1.0
C      1  0.4019980000000  0.5331770000000  0.5089220000000 1.0
C      1  0.4072050000000  0.4852920000000  0.4702050000000 1.0
C      1  0.5940980000000  0.4758080000000  0.5201560000000 1.0
C      1  0.5976750000000  0.5265870000000  0.5023270000000 1.0
C      1  0.5883170000000  0.4866100000000  0.4796710000000 1.0
C      1  0.4825500000000  0.4719860000000  0.5463450000000 1.0
C      1  0.4813610000000  0.5604860000000  0.4963900000000 1.0
C      1  0.4786510000000  0.4614120000000  0.4491970000000 1.0
C      1  0.5258940000000  0.4770480000000  0.5459460000000 1.0
C      1  0.5213370000000  0.5566490000000  0.4979880000000 1.0
C      1  0.5167120000000  0.4711110000000  0.4523980000000 1.0
C      1  0.4492840000000  0.4923710000000  0.5186870000000 1.0
C      1  0.4440160000000  0.5239110000000  0.4923250000000 1.0
C      1  0.4659340000000  0.4833220000000  0.4696690000000 1.0
C      1  0.5479410000000  0.4937420000000  0.5261660000000 1.0
C      1  0.5593080000000  0.5349080000000  0.5097940000000 1.0
C      1  0.5491410000000  0.4834490000000  0.4851160000000 1.0
C      1  0.4801130000000  0.5802030000000  0.5307560000000 1.0
C      1  0.4694820000000  0.4897840000000  0.4173590000000 1.0
C      1  0.4740100000000  0.4325770000000  0.5443100000000 1.0
C      1  0.5311860000000  0.5774420000000  0.5376430000000 1.0
C      1  0.5230990000000  0.4946480000000  0.4209770000000 1.0
C      1  0.5418190000000  0.4195960000000  0.5429880000000 1.0
C      1  0.4952490000000  0.4646560000000  0.5234290000000 1.0
C      1  0.4774550000000  0.5404760000000  0.5187220000000 1.0
C      1  0.4761440000000  0.5102560000000  0.4520050000000 1.0
C      1  0.5214910000000  0.4506480000000  0.5285010000000 1.0
C      1  0.5309830000000  0.5395580000000  0.5252660000000 1.0
C      1  0.5084840000000  0.5019380000000  0.4504800000000 1.0
C      1  0.4796270000000  0.5061880000000  0.5164860000000 1.0
C      1  0.4716600000000  0.5246180000000  0.4824950000000 1.0
C      1  0.4874840000000  0.4800410000000  0.4962130000000 1.0
C      1  0.5121720000000  0.5157040000000  0.5139610000000 1.0
C      1  0.5037060000000  0.5133340000000  0.4811160000000 1.0
C      1  0.5199990000000  0.4851480000000  0.4895880000000 1.0
C      1  0.5675400000000  0.5449350000000  0.5475330000000 1.0
C      1  0.5642600000000  0.5105860000000  0.4400230000000 1.0
C      1  0.5653770000000  0.4313800000000  0.5234990000000 1.0
C      1  0.4367130000000  0.5537570000000  0.5402510000000 1.0
C      1  0.4280710000000  0.5050040000000  0.4326960000000 1.0
C      1  0.4410560000000  0.4394740000000  0.5229290000000 1.0
C      1  0.5162990000000  0.4188800000000  0.5234470000000 1.0
C      1  0.5161380000000  0.5537470000000  0.5523830000000 1.0
C      1  0.5089320000000  0.5217160000000  0.4119500000000 1.0
C      1  0.4859700000000  0.4154520000000  0.5260540000000 1.0
C      1  0.4861470000000  0.5540660000000  0.5486590000000 1.0
C      1  0.4788010000000  0.5215910000000  0.4200560000000 1.0
C      1  0.4478390000000  0.4419050000000  0.4350540000000 1.0
C      1  0.4549590000000  0.4771240000000  0.5747560000000 1.0
C      1  0.4541760000000  0.5758000000000  0.4828810000000 1.0
C      1  0.5430820000000  0.4483490000000  0.4364020000000 1.0
C      1  0.5498590000000  0.4706690000000  0.5770210000000 1.0
C      1  0.5468660000000  0.5819550000000  0.4813160000000 1.0
C      1  0.4716240000000  0.5661400000000  0.4483130000000 1.0
C      1  0.4708080000000  0.4124690000000  0.4760080000000 1.0
C      1  0.4721230000000  0.5116870000000  0.5822260000000 1.0
C      1  0.5260280000000  0.5569610000000  0.4408960000000 1.0
C      1  0.5319490000000  0.4245330000000  0.4663480000000 1.0
C      1  0.5267860000000  0.5173040000000  0.5889310000000 1.0
C      1  0.5528380000000  0.5320530000000  0.4638000000000 1.0
C      1  0.5432960000000  0.4489830000000  0.5045060000000 1.0
C      1  0.5422550000000  0.5225810000000  0.5525670000000 1.0
C      1  0.4455630000000  0.5241360000000  0.4524110000000 1.0
C      1  0.4529090000000  0.4476030000000  0.4920910000000 1.0
C      1  0.4570630000000  0.5276070000000  0.5413750000000 1.0
C      1  0.5671520000000  0.4724780000000  0.5104770000000 1.0
C      1  0.5770370000000  0.5115660000000  0.5247910000000 1.0
C      1  0.5643400000000  0.5112000000000  0.4868960000000 1.0
C      1  0.4336930000000  0.4749720000000  0.4982460000000 1.0
C      1  0.4299180000000  0.5188320000000  0.5228520000000 1.0
C      1  0.4230210000000  0.5079380000000  0.4722160000000 1.0
C      1  0.4284510000000  0.5526130000000  0.5016300000000 1.0
C      1  0.4400400000000  0.4669150000000  0.4567310000000 1.0
C      1  0.4319780000000  0.4765710000000  0.5423630000000 1.0
C      1  0.5667560000000  0.5663090000000  0.5002260000000 1.0
C      1  0.5650740000000  0.4751380000000  0.4576610000000 1.0
C      1  0.5675630000000  0.4802920000000  0.5496330000000 1.0
C      1  0.4851180000000  0.5863660000000  0.4735500000000 1.0
C      1  0.4785830000000  0.4288370000000  0.4472270000000 1.0
C      1  0.4873850000000  0.4811350000000  0.5846300000000 1.0
C      1  0.5144780000000  0.5866110000000  0.4907000000000 1.0
C      1  0.5110840000000  0.4389220000000  0.4434680000000 1.0
C      1  0.5189730000000  0.4860370000000  0.5780470000000 1.0
C      1  0.5543840000000  0.5043490000000  0.5785770000000 1.0
C      1  0.5502850000000  0.5659060000000  0.4574960000000 1.0
C      1  0.5629930000000  0.4324480000000  0.4567150000000 1.0
C      1  0.4395070000000  0.5063240000000  0.5769140000000 1.0
C      1  0.4404690000000  0.5573250000000  0.4577900000000 1.0
C      1  0.4433850000000  0.4281860000000  0.4658430000000 1.0
C      1  0.5866120000000  0.4535840000000  0.4692010000000 1.0
C      1  0.5969020000000  0.4958610000000  0.5474800000000 1.0
C      1  0.5878410000000  0.5450480000000  0.4838920000000 1.0
C      1  0.4174730000000  0.4568500000000  0.4760280000000 1.0
C      1  0.4121440000000  0.5036030000000  0.5480190000000 1.0
C      1  0.4105520000000  0.5387120000000  0.4762740000000 1.0
C      1  0.4473260000000  0.4514400000000  0.5537730000000 1.0
C      1  0.4496290000000  0.5745960000000  0.5166270000000 1.0
C      1  0.4416300000000  0.4748620000000  0.4244070000000 1.0
C      1  0.5550130000000  0.4500940000000  0.5502180000000 1.0
C      1  0.5585440000000  0.5676970000000  0.5327640000000 1.0
C      1  0.5511530000000  0.4809950000000  0.4294370000000 1.0
C      1  0.4965140000000  0.4737050000000  0.4251570000000 1.0
C      1  0.4837720000000  0.4509230000000  0.5694370000000 1.0
C      1  0.5086120000000  0.5888940000000  0.5218620000000 1.0
END
