TITL C-2622960-5345-2 0.20779634207568 125000 -274.498466247422 0 0 47 (C1) n - 1
REM
REM in /nfs/bkarasulu/CARBON/AIRSS/Generating-Clusters/AIREBO/with-SteepDescent/Higher-Symm/SD-CG/HFTN-CG
REM
REM
REM
REM
REM
REM ./C.cell (b20cbc046b6831c77cfcea5457e17084)
REM
REM compiler GCC version 9.2.1 20190827 (Red Hat 9.2.1-1)
REM options -cpp -mtune=generic -march=x86-64 -g -O0 -fpre-include=/usr/include/finclude/math-vector-fortran.h
REM seed 1166929587 1101141108 -1228338921 -1427261368 -1316010013 1609275901 -1927526525 -1962543943 1799759408 1913068159 1154039317 -1150842169 -218934604 -1457470583 754758645 -244604231 1156318066 2053551316 -1254259196 1808834346 -1102922153 1324691635 -1673658442 1710557433 1649489250 -860968086 1273763361 8479192 -769195627 -1470016683 582373647 128229941 -988825476
REM
CELL 1.54180   50.00000   50.00000   50.00000   90.00000   90.00000   90.00000
LATT -1
SFAC C  
C      1  0.4524680000000  0.4999980000000  0.4596580000000 1.0
C      1  0.4714900000000  0.5211950000000  0.4561240000000 1.0
C      1  0.4297560000000  0.5568230000000  0.5032480000000 1.0
C      1  0.4545880000000  0.5630950000000  0.5104260000000 1.0
C      1  0.4582380000000  0.5106400000000  0.5516100000000 1.0
C      1  0.4362410000000  0.4944880000000  0.5468090000000 1.0
C      1  0.4371230000000  0.4653120000000  0.5362030000000 1.0
C      1  0.4488190000000  0.4570440000000  0.4832770000000 1.0
C      1  0.4668780000000  0.4739540000000  0.4707990000000 1.0
C      1  0.4241880000000  0.4615950000000  0.5052950000000 1.0
C      1  0.4197330000000  0.4626490000000  0.4725350000000 1.0
C      1  0.4210960000000  0.4856590000000  0.4567590000000 1.0
C      1  0.4239720000000  0.5131180000000  0.4710960000000 1.0
C      1  0.4180920000000  0.5306150000000  0.4893350000000 1.0
C      1  0.4020700000000  0.5439800000000  0.5137390000000 1.0
C      1  0.3954910000000  0.5276530000000  0.5353820000000 1.0
C      1  0.4067210000000  0.5031430000000  0.5415500000000 1.0
C      1  0.4060170000000  0.4743230000000  0.5305080000000 1.0
C      1  0.5219100000000  0.5398340000000  0.4681410000000 1.0
C      1  0.5149170000000  0.5469430000000  0.4975910000000 1.0
C      1  0.5249710000000  0.5281230000000  0.5232830000000 1.0
C      1  0.5041160000000  0.5133500000000  0.5371360000000 1.0
C      1  0.5056910000000  0.4868470000000  0.5408730000000 1.0
C      1  0.5191290000000  0.4559250000000  0.5357730000000 1.0
C      1  0.5324030000000  0.4415170000000  0.4754320000000 1.0
C      1  0.5122070000000  0.4848500000000  0.4544170000000 1.0
C      1  0.5208400000000  0.5148750000000  0.4453400000000 1.0
C      1  0.4860250000000  0.4622730000000  0.5339380000000 1.0
C      1  0.4994720000000  0.4456200000000  0.5099900000000 1.0
C      1  0.5059300000000  0.4483910000000  0.4834500000000 1.0
C      1  0.4939490000000  0.4692550000000  0.4680270000000 1.0
C      1  0.4974610000000  0.5381590000000  0.4442940000000 1.0
C      1  0.4826190000000  0.5430470000000  0.4744550000000 1.0
C      1  0.4864980000000  0.5589940000000  0.5010610000000 1.0
C      1  0.4748420000000  0.5506200000000  0.5309660000000 1.0
C      1  0.4797630000000  0.5259330000000  0.5422470000000 1.0
C      1  0.5523300000000  0.5133190000000  0.4571800000000 1.0
C      1  0.5611400000000  0.5323090000000  0.4737510000000 1.0
C      1  0.5477660000000  0.5418680000000  0.4985740000000 1.0
C      1  0.5575610000000  0.5286490000000  0.5264320000000 1.0
C      1  0.5765300000000  0.5100800000000  0.5284970000000 1.0
C      1  0.5770490000000  0.4842520000000  0.5199860000000 1.0
C      1  0.5706740000000  0.4646290000000  0.4950570000000 1.0
C      1  0.5515920000000  0.4625400000000  0.4747740000000 1.0
C      1  0.5422210000000  0.4851220000000  0.4609300000000 1.0
C      1  0.5467440000000  0.4459350000000  0.5403850000000 1.0
C      1  0.5687910000000  0.4541550000000  0.5257590000000 1.0
END
