TITL C-2622956-4641-545 -0.00098050191392143 125000 -323.015216816755 0 0 59 (C1) n - 1
REM
REM in /nfs/bkarasulu/CARBON/AIRSS/Generating-Clusters/AIREBO/with-SteepDescent/Higher-Symm/SD-CG/HFTN-CG
REM
REM
REM
REM
REM
REM ./C.cell (b20cbc046b6831c77cfcea5457e17084)
REM
REM compiler GCC version 9.2.1 20190827 (Red Hat 9.2.1-1)
REM options -cpp -mtune=generic -march=x86-64 -g -O0 -fpre-include=/usr/include/finclude/math-vector-fortran.h
REM seed -672453531 610467968 2145310760 -846001558 -1528238226 1868331669 -1010237412 124686659 1631496405 263724058 -1541098804 -1953448622 -1766475485 -97322105 -1998480875 302315469 -1477288749 1925262122 -1924158175 -2120387354 1389598562 298639702 -2111217560 -673104730 -1591333213 2080813866 1952962727 2052110299 238583363 1721756249 -776969297 2006124790 385915406
REM
CELL 1.54180   50.00000   50.00000   50.00000   90.00000   90.00000   90.00000
LATT -1
SFAC C  
C      1  0.4733530000000  0.4591590000000  0.4405290000000 1.0
C      1  0.5303500000000  0.4870820000000  0.5095290000000 1.0
C      1  0.4787890000000  0.5743800000000  0.4613590000000 1.0
C      1  0.4654290000000  0.5351270000000  0.5112730000000 1.0
C      1  0.5133590000000  0.5182270000000  0.4654760000000 1.0
C      1  0.5143320000000  0.5427450000000  0.4892140000000 1.0
C      1  0.4619800000000  0.4685610000000  0.5468830000000 1.0
C      1  0.4765620000000  0.5432770000000  0.5485880000000 1.0
C      1  0.5651060000000  0.4823120000000  0.4810280000000 1.0
C      1  0.5603630000000  0.5131880000000  0.5873540000000 1.0
C      1  0.5376840000000  0.4282000000000  0.5222740000000 1.0
C      1  0.4905210000000  0.5644140000000  0.5399250000000 1.0
C      1  0.4358930000000  0.4860360000000  0.5475880000000 1.0
C      1  0.5601290000000  0.5164020000000  0.4817390000000 1.0
C      1  0.5581650000000  0.4716340000000  0.5215380000000 1.0
C      1  0.5455530000000  0.4586770000000  0.4859500000000 1.0
C      1  0.5500270000000  0.5369680000000  0.5367380000000 1.0
C      1  0.5039650000000  0.5916550000000  0.5325980000000 1.0
C      1  0.4474680000000  0.5344860000000  0.4654110000000 1.0
C      1  0.5649100000000  0.5097250000000  0.6129330000000 1.0
C      1  0.4958090000000  0.4487100000000  0.4718640000000 1.0
C      1  0.4481930000000  0.5319240000000  0.5395660000000 1.0
C      1  0.4258940000000  0.4888680000000  0.4828730000000 1.0
C      1  0.4559170000000  0.5599450000000  0.4569680000000 1.0
C      1  0.5428650000000  0.5524720000000  0.5154730000000 1.0
C      1  0.4837050000000  0.5145780000000  0.5345010000000 1.0
C      1  0.5492520000000  0.5405520000000  0.4897320000000 1.0
C      1  0.5532760000000  0.5174880000000  0.5618690000000 1.0
C      1  0.5297790000000  0.4051360000000  0.5331830000000 1.0
C      1  0.5044260000000  0.5652920000000  0.4657650000000 1.0
C      1  0.4559970000000  0.5108960000000  0.4515940000000 1.0
C      1  0.5125080000000  0.4653240000000  0.4904240000000 1.0
C      1  0.5235600000000  0.4623660000000  0.4350690000000 1.0
C      1  0.5104220000000  0.4402210000000  0.4504070000000 1.0
C      1  0.5350650000000  0.4884190000000  0.4437310000000 1.0
C      1  0.5045730000000  0.5246860000000  0.4173580000000 1.0
C      1  0.4681380000000  0.4400600000000  0.5949310000000 1.0
C      1  0.4954400000000  0.4940480000000  0.4916840000000 1.0
C      1  0.4765990000000  0.5178080000000  0.4295800000000 1.0
C      1  0.5503170000000  0.4325520000000  0.4966930000000 1.0
C      1  0.4946200000000  0.5011810000000  0.4479480000000 1.0
C      1  0.4639310000000  0.4570330000000  0.4716200000000 1.0
C      1  0.4868060000000  0.4859920000000  0.5412910000000 1.0
C      1  0.5345560000000  0.4549220000000  0.5328130000000 1.0
C      1  0.5271360000000  0.5103160000000  0.4265190000000 1.0
C      1  0.4277190000000  0.5089870000000  0.5029590000000 1.0
C      1  0.4427980000000  0.5307520000000  0.4925170000000 1.0
C      1  0.5342290000000  0.4959420000000  0.4768950000000 1.0
C      1  0.5206880000000  0.5462180000000  0.4499840000000 1.0
C      1  0.4484990000000  0.4858150000000  0.4646960000000 1.0
C      1  0.4318370000000  0.5088440000000  0.5318250000000 1.0
C      1  0.4961430000000  0.4752210000000  0.4373880000000 1.0
C      1  0.5144290000000  0.5640600000000  0.5157130000000 1.0
C      1  0.4652610000000  0.4530090000000  0.5731340000000 1.0
C      1  0.4539960000000  0.4468260000000  0.4986680000000 1.0
C      1  0.4932650000000  0.5202420000000  0.5035640000000 1.0
C      1  0.5402210000000  0.5075500000000  0.5345200000000 1.0
C      1  0.5104530000000  0.4738650000000  0.5340590000000 1.0
C      1  0.4577390000000  0.4496210000000  0.5226930000000 1.0
END
