TITL C-2622957-9142-274 -0.00184364821661814 125000 -548.845121640138 0 0 96 (C1) n - 1
REM
REM in /nfs/bkarasulu/CARBON/AIRSS/Generating-Clusters/AIREBO/with-SteepDescent/Higher-Symm/SD-CG/HFTN-CG
REM
REM
REM
REM
REM
REM ./C.cell (b20cbc046b6831c77cfcea5457e17084)
REM
REM compiler GCC version 9.2.1 20190827 (Red Hat 9.2.1-1)
REM options -cpp -mtune=generic -march=x86-64 -g -O0 -fpre-include=/usr/include/finclude/math-vector-fortran.h
REM seed -1790802120 323544436 -825706078 2138838889 -497820398 -2095031864 -68725120 -1665916777 1213114397 1173663892 -982697786 -1638870905 647415909 -2140320720 -1815999661 1319987112 -416834572 -54998126 -1404975775 -714066754 -46514795 666094323 -1112738216 1068054216 921533997 48397166 -760584532 -1995867005 1100894566 1236979075 1429307345 -152152619 1420890822
REM
CELL 1.54180   50.00000   50.00000   50.00000   90.00000   90.00000   90.00000
LATT -1
SFAC C  
C      1  0.4927650000000  0.5137840000000  0.5993350000000 1.0
C      1  0.4875080000000  0.4785210000000  0.4014120000000 1.0
C      1  0.5018710000000  0.4995980000000  0.4006970000000 1.0
C      1  0.4798680000000  0.4920180000000  0.6013710000000 1.0
C      1  0.4890640000000  0.5803310000000  0.4723020000000 1.0
C      1  0.5115500000000  0.4205620000000  0.5158980000000 1.0
C      1  0.5120370000000  0.5867930000000  0.5129790000000 1.0
C      1  0.4913280000000  0.4213740000000  0.4614080000000 1.0
C      1  0.5247050000000  0.4329770000000  0.4300800000000 1.0
C      1  0.5162260000000  0.5677010000000  0.5613140000000 1.0
C      1  0.5291910000000  0.4411660000000  0.5616140000000 1.0
C      1  0.5232470000000  0.5721740000000  0.4408670000000 1.0
C      1  0.4954730000000  0.5732770000000  0.4450790000000 1.0
C      1  0.4962170000000  0.4379980000000  0.5613290000000 1.0
C      1  0.4898290000000  0.5581690000000  0.5542190000000 1.0
C      1  0.5031790000000  0.4162930000000  0.4363400000000 1.0
C      1  0.5310770000000  0.5237110000000  0.4415580000000 1.0
C      1  0.5300210000000  0.4729660000000  0.5584780000000 1.0
C      1  0.5318380000000  0.5310090000000  0.5594990000000 1.0
C      1  0.5330690000000  0.4652890000000  0.4365750000000 1.0
C      1  0.5880750000000  0.5376450000000  0.5135430000000 1.0
C      1  0.5717630000000  0.4607790000000  0.4880610000000 1.0
C      1  0.5754200000000  0.5404660000000  0.4886810000000 1.0
C      1  0.5847750000000  0.4659840000000  0.5119310000000 1.0
C      1  0.5388710000000  0.5593610000000  0.5420750000000 1.0
C      1  0.5438360000000  0.4380610000000  0.4542590000000 1.0
C      1  0.5370530000000  0.5531670000000  0.4548530000000 1.0
C      1  0.5426370000000  0.4269150000000  0.5402440000000 1.0
C      1  0.5214110000000  0.5303360000000  0.5209560000000 1.0
C      1  0.5219820000000  0.4616910000000  0.4775830000000 1.0
C      1  0.5234880000000  0.5403040000000  0.4902140000000 1.0
C      1  0.5190610000000  0.4681960000000  0.5280100000000 1.0
C      1  0.4725790000000  0.4896450000000  0.5224600000000 1.0
C      1  0.4587170000000  0.5128830000000  0.4770900000000 1.0
C      1  0.4548130000000  0.4831060000000  0.4766110000000 1.0
C      1  0.4683380000000  0.5217940000000  0.5276870000000 1.0
C      1  0.4885350000000  0.4062570000000  0.5081080000000 1.0
C      1  0.4669110000000  0.5991630000000  0.4806630000000 1.0
C      1  0.4751910000000  0.4078570000000  0.4803530000000 1.0
C      1  0.4851040000000  0.5966270000000  0.5084650000000 1.0
C      1  0.5779150000000  0.5190990000000  0.5299400000000 1.0
C      1  0.5687540000000  0.4848680000000  0.4668810000000 1.0
C      1  0.5680760000000  0.5156020000000  0.4774960000000 1.0
C      1  0.5723640000000  0.4860980000000  0.5325740000000 1.0
C      1  0.4873780000000  0.5121770000000  0.4852400000000 1.0
C      1  0.5011090000000  0.4817960000000  0.5070440000000 1.0
C      1  0.4935300000000  0.5213500000000  0.5102140000000 1.0
C      1  0.5045920000000  0.4897380000000  0.4741420000000 1.0
C      1  0.5408360000000  0.4242120000000  0.5095410000000 1.0
C      1  0.5504630000000  0.5586630000000  0.4857160000000 1.0
C      1  0.5473090000000  0.4421430000000  0.4855180000000 1.0
C      1  0.5381860000000  0.5700180000000  0.5153600000000 1.0
C      1  0.4625580000000  0.5760170000000  0.5120350000000 1.0
C      1  0.4480990000000  0.4218270000000  0.4858740000000 1.0
C      1  0.4456830000000  0.5726490000000  0.4822300000000 1.0
C      1  0.4628190000000  0.4234140000000  0.5148530000000 1.0
C      1  0.5423700000000  0.4870240000000  0.5176430000000 1.0
C      1  0.5363290000000  0.5172450000000  0.4722440000000 1.0
C      1  0.5419060000000  0.4873630000000  0.4875970000000 1.0
C      1  0.5455420000000  0.5156020000000  0.5324630000000 1.0
C      1  0.5555740000000  0.5123090000000  0.5710010000000 1.0
C      1  0.5579830000000  0.4832530000000  0.4383700000000 1.0
C      1  0.5539800000000  0.5083250000000  0.4269250000000 1.0
C      1  0.5564960000000  0.4869980000000  0.5595710000000 1.0
C      1  0.5054460000000  0.4834430000000  0.4423650000000 1.0
C      1  0.5058910000000  0.5199720000000  0.5695880000000 1.0
C      1  0.5077690000000  0.4872090000000  0.5731570000000 1.0
C      1  0.5027300000000  0.5145070000000  0.4287970000000 1.0
C      1  0.4665470000000  0.5458870000000  0.4798150000000 1.0
C      1  0.4673090000000  0.4568750000000  0.5196380000000 1.0
C      1  0.4542530000000  0.5438690000000  0.5114530000000 1.0
C      1  0.4497810000000  0.4534060000000  0.4924040000000 1.0
C      1  0.4411560000000  0.5098110000000  0.5610900000000 1.0
C      1  0.4469510000000  0.4868260000000  0.4376890000000 1.0
C      1  0.4486080000000  0.5152660000000  0.4386040000000 1.0
C      1  0.4280180000000  0.4850840000000  0.5611030000000 1.0
C      1  0.5035000000000  0.4424760000000  0.5314180000000 1.0
C      1  0.4959880000000  0.5568620000000  0.4920590000000 1.0
C      1  0.4948190000000  0.4483900000000  0.4695640000000 1.0
C      1  0.5019010000000  0.5572360000000  0.5254950000000 1.0
C      1  0.4218860000000  0.4604830000000  0.5200570000000 1.0
C      1  0.4260230000000  0.5476440000000  0.4834810000000 1.0
C      1  0.4205370000000  0.4695730000000  0.4909540000000 1.0
C      1  0.4226370000000  0.5403990000000  0.5151970000000 1.0
C      1  0.4749190000000  0.4656620000000  0.4608060000000 1.0
C      1  0.4670520000000  0.5393680000000  0.5556270000000 1.0
C      1  0.4673740000000  0.4536850000000  0.5524950000000 1.0
C      1  0.4765720000000  0.5506680000000  0.4485550000000 1.0
C      1  0.4273760000000  0.4737260000000  0.4590400000000 1.0
C      1  0.4339650000000  0.5335340000000  0.5441090000000 1.0
C      1  0.4364090000000  0.4638530000000  0.5442210000000 1.0
C      1  0.4340430000000  0.5283490000000  0.4645620000000 1.0
C      1  0.4771830000000  0.4746740000000  0.5735880000000 1.0
C      1  0.4746160000000  0.5273900000000  0.4341570000000 1.0
C      1  0.4755210000000  0.4727540000000  0.4300160000000 1.0
C      1  0.4747470000000  0.5073800000000  0.5642200000000 1.0
END
