TITL C-2622954-8726-182 0.000488734206108054 125000 -127.371602671017 0 0 25 (C1) n - 1
REM
REM in /nfs/bkarasulu/CARBON/AIRSS/Generating-Clusters/AIREBO/with-SteepDescent/Higher-Symm/SD-CG/HFTN-CG
REM
REM
REM
REM
REM
REM ./C.cell (b20cbc046b6831c77cfcea5457e17084)
REM
REM compiler GCC version 9.2.1 20190827 (Red Hat 9.2.1-1)
REM options -cpp -mtune=generic -march=x86-64 -g -O0 -fpre-include=/usr/include/finclude/math-vector-fortran.h
REM seed 48269574 1830183541 -972386763 1678126932 -907905370 -1569888561 468097649 -1352579971 -1182461486 -477074003 -1919480813 -1384727980 -727986600 2013158022 -1993490809 686100828 -1457358488 -111111394 1586288341 -988303936 -28969874 1546422849 1706313857 381959116 1079492905 -184594531 1195970706 -1947232963 95535921 1422802617 -1721067231 1551593739 1839958920
REM
CELL 1.54180   50.00000   50.00000   50.00000   90.00000   90.00000   90.00000
LATT -1
SFAC C  
C      1  0.5089580000000  0.4886980000000  0.4266480000000 1.0
C      1  0.4878720000000  0.4909730000000  0.5759120000000 1.0
C      1  0.4801270000000  0.5388970000000  0.4591170000000 1.0
C      1  0.5208040000000  0.5368890000000  0.5431780000000 1.0
C      1  0.5586900000000  0.4882420000000  0.4879860000000 1.0
C      1  0.4387690000000  0.4866510000000  0.5139470000000 1.0
C      1  0.4401100000000  0.4897690000000  0.4865370000000 1.0
C      1  0.5551430000000  0.4919460000000  0.5150460000000 1.0
C      1  0.4839010000000  0.4715900000000  0.4744580000000 1.0
C      1  0.5235630000000  0.4626240000000  0.5351510000000 1.0
C      1  0.5321730000000  0.5251680000000  0.4655100000000 1.0
C      1  0.4659400000000  0.5251110000000  0.5352230000000 1.0
C      1  0.4884210000000  0.5109430000000  0.4689880000000 1.0
C      1  0.5109720000000  0.5095040000000  0.5330510000000 1.0
C      1  0.5141780000000  0.5000530000000  0.4510500000000 1.0
C      1  0.4839710000000  0.5008140000000  0.5505700000000 1.0
C      1  0.4765630000000  0.5333420000000  0.5116090000000 1.0
C      1  0.5229440000000  0.5330550000000  0.4898400000000 1.0
C      1  0.5043350000000  0.4575810000000  0.5161040000000 1.0
C      1  0.4982450000000  0.4779830000000  0.4977830000000 1.0
C      1  0.4542450000000  0.4964740000000  0.5344000000000 1.0
C      1  0.5445890000000  0.4968610000000  0.4659230000000 1.0
C      1  0.5338110000000  0.4887310000000  0.5331100000000 1.0
C      1  0.4620880000000  0.4907760000000  0.4693640000000 1.0
C      1  0.4997670000000  0.5119500000000  0.5010350000000 1.0
END
