TITL C-2622964-2985-7 0.000421695068217442 125000 -672.625143674682 0 0 124 (C1) n - 1
REM
REM in /nfs/bkarasulu/CARBON/AIRSS/Generating-Clusters/AIREBO/with-SteepDescent/Higher-Symm/SD-CG/HFTN-CG
REM
REM
REM
REM
REM
REM ./C.cell (b20cbc046b6831c77cfcea5457e17084)
REM
REM compiler GCC version 9.2.1 20190827 (Red Hat 9.2.1-1)
REM options -cpp -mtune=generic -march=x86-64 -g -O0 -fpre-include=/usr/include/finclude/math-vector-fortran.h
REM seed -731882646 -598536529 -1813253594 -480193399 1868392986 873652836 892996936 540007718 -124211790 151884759 -1824329532 1901453699 1211959985 336439444 -1139417977 91982044 1923821719 2039535859 -1655435577 1701382785 -703197125 2027379285 1538894335 1777905554 -256230839 -1007707044 2140899070 698751884 47371871 70630225 720198246 -661683778 391561610
REM
CELL 1.54180   50.00000   50.00000   50.00000   90.00000   90.00000   90.00000
LATT -1
SFAC C  
C      1  0.4448100000000  0.4648860000000  0.4732150000000 1.0
C      1  0.5400530000000  0.4646310000000  0.4626730000000 1.0
C      1  0.5188500000000  0.5520970000000  0.4719420000000 1.0
C      1  0.4427180000000  0.5265370000000  0.4618830000000 1.0
C      1  0.5467950000000  0.5345520000000  0.4640580000000 1.0
C      1  0.5140940000000  0.4460770000000  0.4754440000000 1.0
C      1  0.4728250000000  0.3986950000000  0.4620780000000 1.0
C      1  0.6070200000000  0.5129610000000  0.4640970000000 1.0
C      1  0.4413220000000  0.5772390000000  0.4666930000000 1.0
C      1  0.4713160000000  0.5923390000000  0.4613430000000 1.0
C      1  0.5962630000000  0.4823340000000  0.4656480000000 1.0
C      1  0.4409570000000  0.4073690000000  0.4638420000000 1.0
C      1  0.4357980000000  0.5515320000000  0.4787430000000 1.0
C      1  0.4851650000000  0.4281950000000  0.4743670000000 1.0
C      1  0.5730160000000  0.5141330000000  0.4712640000000 1.0
C      1  0.4524120000000  0.4365870000000  0.4781190000000 1.0
C      1  0.4916210000000  0.5714140000000  0.4784780000000 1.0
C      1  0.5664550000000  0.4847540000000  0.4552200000000 1.0
C      1  0.4666040000000  0.5890880000000  0.5614180000000 1.0
C      1  0.4463450000000  0.4335260000000  0.5710980000000 1.0
C      1  0.5946050000000  0.4868800000000  0.5674230000000 1.0
C      1  0.4708130000000  0.4147540000000  0.5640240000000 1.0
C      1  0.4515210000000  0.5658430000000  0.5631560000000 1.0
C      1  0.5845800000000  0.5120690000000  0.5643040000000 1.0
C      1  0.5240920000000  0.4878540000000  0.5145600000000 1.0
C      1  0.4956570000000  0.5330140000000  0.5112480000000 1.0
C      1  0.4738970000000  0.4902060000000  0.5220000000000 1.0
C      1  0.5222510000000  0.5200160000000  0.5109860000000 1.0
C      1  0.4966610000000  0.4744940000000  0.5123750000000 1.0
C      1  0.4698290000000  0.5163810000000  0.5070790000000 1.0
C      1  0.4358350000000  0.4344770000000  0.5077300000000 1.0
C      1  0.5705560000000  0.4676910000000  0.5054410000000 1.0
C      1  0.4799960000000  0.5880190000000  0.5034410000000 1.0
C      1  0.4250850000000  0.5454100000000  0.5040070000000 1.0
C      1  0.5768020000000  0.5239340000000  0.5036280000000 1.0
C      1  0.4867860000000  0.4163470000000  0.5061960000000 1.0
C      1  0.4376840000000  0.4048880000000  0.4969990000000 1.0
C      1  0.5966700000000  0.4767790000000  0.4950210000000 1.0
C      1  0.4598890000000  0.6099780000000  0.4969540000000 1.0
C      1  0.4396220000000  0.6041950000000  0.4824690000000 1.0
C      1  0.6030810000000  0.5069130000000  0.4961220000000 1.0
C      1  0.4665690000000  0.3978400000000  0.4925840000000 1.0
C      1  0.4970000000000  0.4607860000000  0.4314040000000 1.0
C      1  0.5390470000000  0.5323200000000  0.4318120000000 1.0
C      1  0.4610010000000  0.5221740000000  0.4356720000000 1.0
C      1  0.5072210000000  0.5444340000000  0.4288600000000 1.0
C      1  0.5221610000000  0.4756590000000  0.4358750000000 1.0
C      1  0.4539380000000  0.4947310000000  0.4227000000000 1.0
C      1  0.5315000000000  0.4250970000000  0.5474450000000 1.0
C      1  0.5548380000000  0.5626870000000  0.5451410000000 1.0
C      1  0.4091420000000  0.5137040000000  0.5360160000000 1.0
C      1  0.5231410000000  0.5750810000000  0.5423320000000 1.0
C      1  0.5620760000000  0.4398840000000  0.5452160000000 1.0
C      1  0.4191860000000  0.4854800000000  0.5440850000000 1.0
C      1  0.5357340000000  0.5108800000000  0.4846150000000 1.0
C      1  0.4664480000000  0.5104000000000  0.4760190000000 1.0
C      1  0.4920100000000  0.4662350000000  0.4844840000000 1.0
C      1  0.5450490000000  0.4798420000000  0.4910880000000 1.0
C      1  0.4697420000000  0.4807730000000  0.4687810000000 1.0
C      1  0.4930850000000  0.5314690000000  0.4777710000000 1.0
C      1  0.4700440000000  0.5691100000000  0.5270610000000 1.0
C      1  0.4531120000000  0.4429380000000  0.5328870000000 1.0
C      1  0.5638290000000  0.4787190000000  0.5326410000000 1.0
C      1  0.4818680000000  0.4299570000000  0.5356850000000 1.0
C      1  0.4397590000000  0.5548970000000  0.5331880000000 1.0
C      1  0.5636730000000  0.5089410000000  0.5304460000000 1.0
C      1  0.5199580000000  0.5888260000000  0.4567520000000 1.0
C      1  0.4191360000000  0.4741030000000  0.4559080000000 1.0
C      1  0.5606180000000  0.4378310000000  0.4665590000000 1.0
C      1  0.5173170000000  0.4095480000000  0.4599890000000 1.0
C      1  0.4146940000000  0.5133050000000  0.4623790000000 1.0
C      1  0.5671780000000  0.5604480000000  0.4680200000000 1.0
C      1  0.5212700000000  0.5547780000000  0.5656710000000 1.0
C      1  0.4452750000000  0.4899610000000  0.5653080000000 1.0
C      1  0.5436890000000  0.4559820000000  0.5688770000000 1.0
C      1  0.5168430000000  0.4381450000000  0.5752240000000 1.0
C      1  0.4556990000000  0.5181410000000  0.5620700000000 1.0
C      1  0.5479470000000  0.5453800000000  0.5731770000000 1.0
C      1  0.5799100000000  0.4668710000000  0.5563600000000 1.0
C      1  0.4930480000000  0.5900290000000  0.5408680000000 1.0
C      1  0.4261990000000  0.4529520000000  0.5511070000000 1.0
C      1  0.5786790000000  0.5369390000000  0.5417190000000 1.0
C      1  0.5024580000000  0.4078390000000  0.5513150000000 1.0
C      1  0.4153310000000  0.5376450000000  0.5493920000000 1.0
C      1  0.4228880000000  0.4642860000000  0.5184530000000 1.0
C      1  0.5656250000000  0.4387330000000  0.5136410000000 1.0
C      1  0.5120280000000  0.5832820000000  0.5123380000000 1.0
C      1  0.4109220000000  0.5202060000000  0.5082460000000 1.0
C      1  0.5673060000000  0.5547390000000  0.5150740000000 1.0
C      1  0.5152960000000  0.4148840000000  0.5199320000000 1.0
C      1  0.4080060000000  0.5029200000000  0.4866790000000 1.0
C      1  0.5266870000000  0.4184010000000  0.4909840000000 1.0
C      1  0.5593130000000  0.5724810000000  0.4923820000000 1.0
C      1  0.4171350000000  0.4736160000000  0.4898920000000 1.0
C      1  0.5293210000000  0.5800470000000  0.4882400000000 1.0
C      1  0.5563540000000  0.4246940000000  0.4911120000000 1.0
C      1  0.5031690000000  0.4550240000000  0.5379120000000 1.0
C      1  0.5350250000000  0.5159020000000  0.5408230000000 1.0
C      1  0.4540100000000  0.5246040000000  0.5334440000000 1.0
C      1  0.4922150000000  0.5496470000000  0.5387080000000 1.0
C      1  0.5322240000000  0.4716540000000  0.5409560000000 1.0
C      1  0.4571890000000  0.4746570000000  0.5387820000000 1.0
C      1  0.5538420000000  0.5163260000000  0.5684850000000 1.0
C      1  0.4646520000000  0.5425290000000  0.5749770000000 1.0
C      1  0.4912920000000  0.4525470000000  0.5679300000000 1.0
C      1  0.5380320000000  0.4894780000000  0.5704720000000 1.0
C      1  0.4626360000000  0.4611320000000  0.5688580000000 1.0
C      1  0.4934680000000  0.5485150000000  0.5726700000000 1.0
C      1  0.5618800000000  0.5136270000000  0.4171640000000 1.0
C      1  0.4648340000000  0.5693150000000  0.4393250000000 1.0
C      1  0.4964400000000  0.4286580000000  0.4422870000000 1.0
C      1  0.5646800000000  0.4879750000000  0.4251250000000 1.0
C      1  0.4250360000000  0.4848460000000  0.4316100000000 1.0
C      1  0.4985970000000  0.5706750000000  0.4431310000000 1.0
C      1  0.5503540000000  0.5586640000000  0.4200340000000 1.0
C      1  0.4580130000000  0.5480560000000  0.4209130000000 1.0
C      1  0.4929440000000  0.4350890000000  0.4094200000000 1.0
C      1  0.5458230000000  0.4699320000000  0.4151040000000 1.0
C      1  0.4579000000000  0.4938870000000  0.3948310000000 1.0
C      1  0.5002710000000  0.5450690000000  0.3989340000000 1.0
C      1  0.5173540000000  0.5063090000000  0.4348600000000 1.0
C      1  0.4903940000000  0.5217220000000  0.4460680000000 1.0
C      1  0.4736990000000  0.4773110000000  0.4387470000000 1.0
C      1  0.5066830000000  0.5207550000000  0.5476540000000 1.0
END
