TITL C-2622968-4806-43 0.0023954158731504 125000 -704.837046110969 0 0 126 (C1) n - 1
REM
REM in /nfs/bkarasulu/CARBON/AIRSS/Generating-Clusters/AIREBO/with-SteepDescent/Higher-Symm/SD-CG/HFTN-CG
REM
REM
REM
REM
REM
REM ./C.cell (b20cbc046b6831c77cfcea5457e17084)
REM
REM compiler GCC version 9.2.1 20190827 (Red Hat 9.2.1-1)
REM options -cpp -mtune=generic -march=x86-64 -g -O0 -fpre-include=/usr/include/finclude/math-vector-fortran.h
REM seed 1417754654 688262667 492073293 -1519095860 1988495043 -351835278 -1526025049 869200603 -85459542 1516232793 731482943 1130813886 -623092374 1494388756 225164087 -1989181464 -1150400028 176986579 1523875793 -260891960 -730711021 -651938231 1784728978 -1382896381 -1416309039 -1244653092 -1685729262 5228402 -12220719 -257805404 999173043 -1756470760 -1870379092
REM
CELL 1.54180   50.00000   50.00000   50.00000   90.00000   90.00000   90.00000
LATT -1
SFAC C  
C      1  0.5021420000000  0.4441240000000  0.5002020000000 1.0
C      1  0.4989520000000  0.4850650000000  0.4523200000000 1.0
C      1  0.5016940000000  0.5497800000000  0.4776020000000 1.0
C      1  0.4993020000000  0.5456770000000  0.5364900000000 1.0
C      1  0.5019790000000  0.4765160000000  0.5535070000000 1.0
C      1  0.5258250000000  0.5856390000000  0.5349970000000 1.0
C      1  0.5134250000000  0.4957020000000  0.5919430000000 1.0
C      1  0.5176160000000  0.4130460000000  0.5248690000000 1.0
C      1  0.5169410000000  0.4509620000000  0.4253170000000 1.0
C      1  0.5178070000000  0.5579450000000  0.4350440000000 1.0
C      1  0.4193670000000  0.4497880000000  0.5186680000000 1.0
C      1  0.4237410000000  0.4633720000000  0.4580860000000 1.0
C      1  0.4153270000000  0.5245680000000  0.4576230000000 1.0
C      1  0.4210940000000  0.5511890000000  0.5095200000000 1.0
C      1  0.4267370000000  0.5063430000000  0.5558150000000 1.0
C      1  0.5323870000000  0.4477180000000  0.5114860000000 1.0
C      1  0.5288370000000  0.4735240000000  0.4559990000000 1.0
C      1  0.5281270000000  0.5334620000000  0.4649000000000 1.0
C      1  0.5301820000000  0.5464620000000  0.5277880000000 1.0
C      1  0.5306680000000  0.4939920000000  0.5559130000000 1.0
C      1  0.5204870000000  0.6016770000000  0.4925140000000 1.0
C      1  0.5372060000000  0.5361450000000  0.6024260000000 1.0
C      1  0.5427980000000  0.4152190000000  0.5628430000000 1.0
C      1  0.5348430000000  0.4108960000000  0.4412530000000 1.0
C      1  0.5318290000000  0.5285300000000  0.4005090000000 1.0
C      1  0.4978330000000  0.4365280000000  0.4700950000000 1.0
C      1  0.4959500000000  0.5100250000000  0.4351280000000 1.0
C      1  0.4890570000000  0.5622180000000  0.5016540000000 1.0
C      1  0.4973990000000  0.5335580000000  0.5640410000000 1.0
C      1  0.4960980000000  0.4469790000000  0.5501630000000 1.0
C      1  0.5605390000000  0.5261660000000  0.4943400000000 1.0
C      1  0.5669040000000  0.5136290000000  0.5215360000000 1.0
C      1  0.5695130000000  0.4818690000000  0.5219000000000 1.0
C      1  0.5703020000000  0.4852970000000  0.4738610000000 1.0
C      1  0.5757330000000  0.5111970000000  0.4742430000000 1.0
C      1  0.4908980000000  0.4189560000000  0.5158250000000 1.0
C      1  0.4918520000000  0.4616180000000  0.4332870000000 1.0
C      1  0.4944610000000  0.5604730000000  0.4499330000000 1.0
C      1  0.4977600000000  0.5776020000000  0.5372830000000 1.0
C      1  0.4899330000000  0.4873360000000  0.5792710000000 1.0
C      1  0.4382270000000  0.4833930000000  0.4794540000000 1.0
C      1  0.4396490000000  0.5151550000000  0.4771530000000 1.0
C      1  0.4384400000000  0.5255680000000  0.5063900000000 1.0
C      1  0.4379570000000  0.5012890000000  0.5257290000000 1.0
C      1  0.4355690000000  0.4755130000000  0.5091700000000 1.0
C      1  0.4210410000000  0.4829580000000  0.5682760000000 1.0
C      1  0.4088860000000  0.4334960000000  0.4981540000000 1.0
C      1  0.4101840000000  0.4792110000000  0.4389210000000 1.0
C      1  0.4313490000000  0.5518270000000  0.4634320000000 1.0
C      1  0.4101290000000  0.5547790000000  0.5359150000000 1.0
C      1  0.5272770000000  0.4395440000000  0.4556340000000 1.0
C      1  0.5243230000000  0.5246880000000  0.4322570000000 1.0
C      1  0.5225760000000  0.5703490000000  0.5047860000000 1.0
C      1  0.5268980000000  0.5219110000000  0.5749770000000 1.0
C      1  0.5285780000000  0.4388590000000  0.5440980000000 1.0
C      1  0.4649660000000  0.5254130000000  0.4630950000000 1.0
C      1  0.4635320000000  0.5457140000000  0.5170210000000 1.0
C      1  0.4645320000000  0.4989860000000  0.5460610000000 1.0
C      1  0.4589450000000  0.4543350000000  0.5165480000000 1.0
C      1  0.4626750000000  0.4702310000000  0.4597930000000 1.0
C      1  0.5916040000000  0.5536350000000  0.4605250000000 1.0
C      1  0.5943580000000  0.5403150000000  0.5319970000000 1.0
C      1  0.5897440000000  0.4761320000000  0.5479320000000 1.0
C      1  0.5986820000000  0.4496150000000  0.4910460000000 1.0
C      1  0.5981880000000  0.4893100000000  0.4456340000000 1.0
C      1  0.5749620000000  0.5610170000000  0.4819400000000 1.0
C      1  0.5747480000000  0.5343590000000  0.5562660000000 1.0
C      1  0.5735270000000  0.4616750000000  0.5670300000000 1.0
C      1  0.5753180000000  0.4343120000000  0.4758980000000 1.0
C      1  0.5715050000000  0.5038060000000  0.4351880000000 1.0
C      1  0.4307500000000  0.5734720000000  0.4970000000000 1.0
C      1  0.4438860000000  0.5289380000000  0.5626660000000 1.0
C      1  0.4317850000000  0.4379780000000  0.5409110000000 1.0
C      1  0.4388910000000  0.4381580000000  0.4611140000000 1.0
C      1  0.4207810000000  0.5054910000000  0.4340260000000 1.0
C      1  0.5452560000000  0.5472700000000  0.6239300000000 1.0
C      1  0.5558720000000  0.3982180000000  0.5766740000000 1.0
C      1  0.5430760000000  0.3893410000000  0.4303520000000 1.0
C      1  0.5375710000000  0.5316520000000  0.3758440000000 1.0
C      1  0.5213730000000  0.6254270000000  0.4832220000000 1.0
C      1  0.4722670000000  0.5230700000000  0.5679530000000 1.0
C      1  0.4646400000000  0.4432290000000  0.5479640000000 1.0
C      1  0.4710610000000  0.4392280000000  0.4601100000000 1.0
C      1  0.4678670000000  0.5175090000000  0.4320010000000 1.0
C      1  0.4629960000000  0.5821870000000  0.5007450000000 1.0
C      1  0.5383570000000  0.5707990000000  0.4479480000000 1.0
C      1  0.5428120000000  0.5745730000000  0.5531950000000 1.0
C      1  0.5315840000000  0.4750690000000  0.5934810000000 1.0
C      1  0.5357270000000  0.4085620000000  0.5042750000000 1.0
C      1  0.5343890000000  0.4700650000000  0.4156530000000 1.0
C      1  0.4675320000000  0.5543150000000  0.4466340000000 1.0
C      1  0.4728560000000  0.5877680000000  0.5304400000000 1.0
C      1  0.4615340000000  0.4861880000000  0.5774440000000 1.0
C      1  0.4632920000000  0.4218580000000  0.5142680000000 1.0
C      1  0.4637490000000  0.4621630000000  0.4268760000000 1.0
C      1  0.5416190000000  0.4628940000000  0.5645990000000 1.0
C      1  0.5457270000000  0.4330060000000  0.4834940000000 1.0
C      1  0.5428540000000  0.4961920000000  0.4344570000000 1.0
C      1  0.5427370000000  0.5607640000000  0.4790360000000 1.0
C      1  0.5462750000000  0.5416190000000  0.5550740000000 1.0
C      1  0.4815870000000  0.4852580000000  0.4806070000000 1.0
C      1  0.4934950000000  0.5170360000000  0.4796910000000 1.0
C      1  0.4886730000000  0.5237920000000  0.5126960000000 1.0
C      1  0.4913830000000  0.4931420000000  0.5271760000000 1.0
C      1  0.4846340000000  0.4700750000000  0.5061830000000 1.0
C      1  0.5243320000000  0.4980670000000  0.5233120000000 1.0
C      1  0.5418890000000  0.4758350000000  0.5111690000000 1.0
C      1  0.5429820000000  0.4808470000000  0.4822160000000 1.0
C      1  0.5256190000000  0.5052880000000  0.4800330000000 1.0
C      1  0.5288120000000  0.5260480000000  0.5050570000000 1.0
C      1  0.4282950000000  0.4211890000000  0.4813540000000 1.0
C      1  0.4455700000000  0.5052680000000  0.4204210000000 1.0
C      1  0.4484350000000  0.5802510000000  0.4702970000000 1.0
C      1  0.4424380000000  0.5518760000000  0.5432620000000 1.0
C      1  0.4389700000000  0.4549110000000  0.5671680000000 1.0
C      1  0.4501990000000  0.5757360000000  0.4376510000000 1.0
C      1  0.4531690000000  0.5809610000000  0.5482670000000 1.0
C      1  0.4465760000000  0.4694810000000  0.5956690000000 1.0
C      1  0.4474980000000  0.4069270000000  0.4963850000000 1.0
C      1  0.4517810000000  0.4800440000000  0.4089590000000 1.0
C      1  0.5905020000000  0.5077860000000  0.5437680000000 1.0
C      1  0.5935950000000  0.4612690000000  0.5147560000000 1.0
C      1  0.5874540000000  0.4629050000000  0.4619630000000 1.0
C      1  0.5937210000000  0.5231280000000  0.4521950000000 1.0
C      1  0.5822820000000  0.5481470000000  0.5085030000000 1.0
C      1  0.3883200000000  0.5254250000000  0.4648410000000 1.0
END
