TITL C-2622968-4806-475 0.00271923313642914 125000 -1107.97658142621 0 0 194 (C1) n - 1
REM
REM in /nfs/bkarasulu/CARBON/AIRSS/Generating-Clusters/AIREBO/with-SteepDescent/Higher-Symm/SD-CG/HFTN-CG
REM
REM
REM
REM
REM
REM ./C.cell (b20cbc046b6831c77cfcea5457e17084)
REM
REM compiler GCC version 9.2.1 20190827 (Red Hat 9.2.1-1)
REM options -cpp -mtune=generic -march=x86-64 -g -O0 -fpre-include=/usr/include/finclude/math-vector-fortran.h
REM seed -950592527 -456481558 1419193498 1257978415 2102332697 -1148556157 137267439 328924748 1725557595 1359011722 -1853789127 -1898409523 -299418207 420102586 267809259 -1794653437 1286314140 -254135866 -1996224173 827392649 1931431893 1803506102 220156116 1178362190 -1752657942 906819791 2062422624 -607462577 -2016993009 -1942495051 545216347 -2071646036 1979655901
REM
CELL 1.54180   50.00000   50.00000   50.00000   90.00000   90.00000   90.00000
LATT -1
SFAC C  
C      1  0.5379850000000  0.5588820000000  0.4051410000000 1.0
C      1  0.5833630000000  0.5639870000000  0.5137240000000 1.0
C      1  0.5096010000000  0.5654040000000  0.5961890000000 1.0
C      1  0.4163360000000  0.5671510000000  0.5456880000000 1.0
C      1  0.4340800000000  0.5635580000000  0.4370900000000 1.0
C      1  0.5210450000000  0.4274630000000  0.3997980000000 1.0
C      1  0.5900570000000  0.4364010000000  0.5144920000000 1.0
C      1  0.5099450000000  0.4379430000000  0.5889550000000 1.0
C      1  0.4148640000000  0.4411200000000  0.5400410000000 1.0
C      1  0.4329230000000  0.4398370000000  0.4373240000000 1.0
C      1  0.4233820000000  0.5254410000000  0.4425660000000 1.0
C      1  0.5345220000000  0.5166230000000  0.3975780000000 1.0
C      1  0.5939180000000  0.5264350000000  0.5029100000000 1.0
C      1  0.5323220000000  0.5224790000000  0.5907520000000 1.0
C      1  0.4239080000000  0.5264880000000  0.5504340000000 1.0
C      1  0.4230570000000  0.4780930000000  0.4429810000000 1.0
C      1  0.5319080000000  0.4826730000000  0.4000810000000 1.0
C      1  0.5891750000000  0.4788570000000  0.5039590000000 1.0
C      1  0.5261480000000  0.4742360000000  0.5858040000000 1.0
C      1  0.4174980000000  0.4806070000000  0.5529810000000 1.0
C      1  0.4567510000000  0.4792960000000  0.5826190000000 1.0
C      1  0.4110670000000  0.4912530000000  0.4910020000000 1.0
C      1  0.4793570000000  0.4850820000000  0.4119350000000 1.0
C      1  0.5794900000000  0.4877240000000  0.4542240000000 1.0
C      1  0.5743850000000  0.4817930000000  0.5643190000000 1.0
C      1  0.4648710000000  0.5123460000000  0.5844040000000 1.0
C      1  0.4085800000000  0.5231790000000  0.4930600000000 1.0
C      1  0.4779400000000  0.5167410000000  0.4064430000000 1.0
C      1  0.5803340000000  0.5193350000000  0.4459760000000 1.0
C      1  0.5705820000000  0.5146100000000  0.5607960000000 1.0
C      1  0.5697300000000  0.5948020000000  0.4637390000000 1.0
C      1  0.5440230000000  0.5919400000000  0.5659940000000 1.0
C      1  0.4654880000000  0.5929650000000  0.5808150000000 1.0
C      1  0.4307860000000  0.5868060000000  0.4859450000000 1.0
C      1  0.4878390000000  0.5769100000000  0.4333110000000 1.0
C      1  0.5777850000000  0.4119020000000  0.4623040000000 1.0
C      1  0.5630660000000  0.4026680000000  0.5591700000000 1.0
C      1  0.4529320000000  0.4099090000000  0.5608770000000 1.0
C      1  0.4225150000000  0.4090710000000  0.4910070000000 1.0
C      1  0.4845900000000  0.4168170000000  0.4349420000000 1.0
C      1  0.4953690000000  0.4767250000000  0.4408170000000 1.0
C      1  0.5553470000000  0.4778240000000  0.4698750000000 1.0
C      1  0.5503090000000  0.4824930000000  0.5412820000000 1.0
C      1  0.4705090000000  0.4885710000000  0.5529360000000 1.0
C      1  0.4449210000000  0.4871950000000  0.4923230000000 1.0
C      1  0.4964890000000  0.5187440000000  0.4348690000000 1.0
C      1  0.5549590000000  0.5177580000000  0.4685520000000 1.0
C      1  0.5434560000000  0.5157670000000  0.5398020000000 1.0
C      1  0.4783480000000  0.5192640000000  0.5558850000000 1.0
C      1  0.4415250000000  0.5268180000000  0.4894690000000 1.0
C      1  0.5490350000000  0.4443710000000  0.4679450000000 1.0
C      1  0.5527650000000  0.4504320000000  0.5435750000000 1.0
C      1  0.4809760000000  0.4363740000000  0.5520760000000 1.0
C      1  0.4395500000000  0.4560170000000  0.4961300000000 1.0
C      1  0.4802280000000  0.4498220000000  0.4396540000000 1.0
C      1  0.5487080000000  0.5474440000000  0.4602220000000 1.0
C      1  0.5446510000000  0.5492270000000  0.5371580000000 1.0
C      1  0.4775760000000  0.5499080000000  0.5569360000000 1.0
C      1  0.4324470000000  0.5549130000000  0.4976740000000 1.0
C      1  0.4803860000000  0.5450580000000  0.4344030000000 1.0
C      1  0.5690530000000  0.4329270000000  0.5647130000000 1.0
C      1  0.4560840000000  0.4401240000000  0.5748870000000 1.0
C      1  0.4148650000000  0.4396540000000  0.4874200000000 1.0
C      1  0.4760270000000  0.4346170000000  0.4096030000000 1.0
C      1  0.5877280000000  0.4371400000000  0.4588370000000 1.0
C      1  0.5572970000000  0.5628580000000  0.5634110000000 1.0
C      1  0.4594220000000  0.5618840000000  0.5796830000000 1.0
C      1  0.4043650000000  0.5660580000000  0.4855980000000 1.0
C      1  0.4828120000000  0.5589740000000  0.4046740000000 1.0
C      1  0.5759360000000  0.5645150000000  0.4570630000000 1.0
C      1  0.4870660000000  0.5992650000000  0.5627990000000 1.0
C      1  0.4559290000000  0.5854580000000  0.5079110000000 1.0
C      1  0.4897530000000  0.5843510000000  0.4645660000000 1.0
C      1  0.5411240000000  0.5944610000000  0.4756350000000 1.0
C      1  0.5308860000000  0.5991050000000  0.5382120000000 1.0
C      1  0.4828770000000  0.4040420000000  0.5507550000000 1.0
C      1  0.4514800000000  0.4025650000000  0.5071270000000 1.0
C      1  0.4886850000000  0.4049600000000  0.4628470000000 1.0
C      1  0.5469250000000  0.4104350000000  0.4696610000000 1.0
C      1  0.5442990000000  0.4071740000000  0.5369400000000 1.0
C      1  0.5585080000000  0.4738610000000  0.5916310000000 1.0
C      1  0.4242620000000  0.4840310000000  0.5847350000000 1.0
C      1  0.3970280000000  0.4837250000000  0.4609320000000 1.0
C      1  0.5020030000000  0.4736150000000  0.3911640000000 1.0
C      1  0.6046450000000  0.4844650000000  0.4757580000000 1.0
C      1  0.5581050000000  0.5071580000000  0.5894800000000 1.0
C      1  0.4327400000000  0.5167950000000  0.5801140000000 1.0
C      1  0.4002360000000  0.5175100000000  0.4630620000000 1.0
C      1  0.5035880000000  0.5077920000000  0.3865500000000 1.0
C      1  0.5984170000000  0.5177840000000  0.4724120000000 1.0
C      1  0.5103950000000  0.4232650000000  0.4790550000000 1.0
C      1  0.5287730000000  0.4425990000000  0.4946910000000 1.0
C      1  0.5268320000000  0.4349470000000  0.5279620000000 1.0
C      1  0.4818640000000  0.4519590000000  0.5236130000000 1.0
C      1  0.4695130000000  0.4426660000000  0.4932950000000 1.0
C      1  0.5026070000000  0.5627010000000  0.4846670000000 1.0
C      1  0.5327830000000  0.5630920000000  0.4819840000000 1.0
C      1  0.5201520000000  0.5696310000000  0.5331500000000 1.0
C      1  0.4768540000000  0.5527020000000  0.5251020000000 1.0
C      1  0.4875970000000  0.5365140000000  0.4816970000000 1.0
C      1  0.5340300000000  0.6030500000000  0.5050400000000 1.0
C      1  0.5060100000000  0.6221880000000  0.5406390000000 1.0
C      1  0.4749530000000  0.5982520000000  0.5330880000000 1.0
C      1  0.4629380000000  0.5928750000000  0.4765860000000 1.0
C      1  0.5197500000000  0.5885010000000  0.4540080000000 1.0
C      1  0.5400270000000  0.4002260000000  0.4980280000000 1.0
C      1  0.5134090000000  0.3960380000000  0.5429370000000 1.0
C      1  0.4803720000000  0.3931110000000  0.5207760000000 1.0
C      1  0.4597020000000  0.4046850000000  0.4749680000000 1.0
C      1  0.5201990000000  0.4073370000000  0.4502810000000 1.0
C      1  0.5417490000000  0.4498050000000  0.4374310000000 1.0
C      1  0.5558180000000  0.4557830000000  0.5105340000000 1.0
C      1  0.5101990000000  0.4518930000000  0.5515660000000 1.0
C      1  0.4496930000000  0.4539600000000  0.5258270000000 1.0
C      1  0.4609260000000  0.4540040000000  0.4624020000000 1.0
C      1  0.5297580000000  0.5406750000000  0.4370210000000 1.0
C      1  0.5482570000000  0.5470410000000  0.5058150000000 1.0
C      1  0.5093070000000  0.5511040000000  0.5589450000000 1.0
C      1  0.4448640000000  0.5493230000000  0.5251670000000 1.0
C      1  0.4662320000000  0.5397190000000  0.4608230000000 1.0
C      1  0.3961740000000  0.4776950000000  0.5134040000000 1.0
C      1  0.4507220000000  0.4735330000000  0.4074860000000 1.0
C      1  0.5789560000000  0.4770760000000  0.4232550000000 1.0
C      1  0.5977560000000  0.4712890000000  0.5493120000000 1.0
C      1  0.4849280000000  0.4807740000000  0.5971920000000 1.0
C      1  0.3938230000000  0.5343540000000  0.5157220000000 1.0
C      1  0.4509180000000  0.5295180000000  0.4050370000000 1.0
C      1  0.5777130000000  0.5328830000000  0.4204410000000 1.0
C      1  0.5924360000000  0.5300260000000  0.5487620000000 1.0
C      1  0.4847170000000  0.5251350000000  0.6046600000000 1.0
C      1  0.6034030000000  0.4882270000000  0.5280850000000 1.0
C      1  0.5099040000000  0.4839020000000  0.6095520000000 1.0
C      1  0.3958370000000  0.4916170000000  0.5373970000000 1.0
C      1  0.4294200000000  0.4882620000000  0.4162760000000 1.0
C      1  0.5634180000000  0.4897140000000  0.4038750000000 1.0
C      1  0.6044520000000  0.5161740000000  0.5279700000000 1.0
C      1  0.5102920000000  0.5128960000000  0.6099180000000 1.0
C      1  0.3976800000000  0.5192780000000  0.5384550000000 1.0
C      1  0.4296700000000  0.5155420000000  0.4157450000000 1.0
C      1  0.5674100000000  0.5187060000000  0.3991610000000 1.0
C      1  0.5138870000000  0.4846660000000  0.5573820000000 1.0
C      1  0.4442490000000  0.4825020000000  0.5370670000000 1.0
C      1  0.4479770000000  0.4823350000000  0.4606890000000 1.0
C      1  0.5262950000000  0.4752750000000  0.4316440000000 1.0
C      1  0.5564370000000  0.4879000000000  0.5022480000000 1.0
C      1  0.5177910000000  0.5181400000000  0.5619760000000 1.0
C      1  0.4468260000000  0.5159610000000  0.5315170000000 1.0
C      1  0.4464350000000  0.5156110000000  0.4611270000000 1.0
C      1  0.5259650000000  0.5092010000000  0.4293830000000 1.0
C      1  0.5633110000000  0.5210940000000  0.4991860000000 1.0
C      1  0.5268910000000  0.4834930000000  0.5185590000000 1.0
C      1  0.4944490000000  0.4818790000000  0.5293150000000 1.0
C      1  0.4776130000000  0.4911920000000  0.5012570000000 1.0
C      1  0.4948110000000  0.4860230000000  0.4735550000000 1.0
C      1  0.5233440000000  0.4728940000000  0.4802440000000 1.0
C      1  0.5257070000000  0.5146460000000  0.5106660000000 1.0
C      1  0.5014610000000  0.5150150000000  0.5323160000000 1.0
C      1  0.4698190000000  0.5236590000000  0.5076740000000 1.0
C      1  0.5022170000000  0.5157300000000  0.4650590000000 1.0
C      1  0.5283870000000  0.5063660000000  0.4805750000000 1.0
C      1  0.5939510000000  0.5526080000000  0.4833760000000 1.0
C      1  0.5369910000000  0.5530610000000  0.5890330000000 1.0
C      1  0.4298330000000  0.5507290000000  0.5723870000000 1.0
C      1  0.4068820000000  0.5525120000000  0.4543680000000 1.0
C      1  0.5104480000000  0.5406470000000  0.3967770000000 1.0
C      1  0.5980450000000  0.4519620000000  0.4852000000000 1.0
C      1  0.5424200000000  0.4453440000000  0.5818400000000 1.0
C      1  0.4294930000000  0.4539160000000  0.5680930000000 1.0
C      1  0.4090000000000  0.4513690000000  0.4586100000000 1.0
C      1  0.4993310000000  0.4427790000000  0.3925260000000 1.0
C      1  0.4842170000000  0.4509740000000  0.5891110000000 1.0
C      1  0.4027630000000  0.4507360000000  0.5152770000000 1.0
C      1  0.4481040000000  0.4466320000000  0.4144640000000 1.0
C      1  0.5745560000000  0.4515360000000  0.4381560000000 1.0
C      1  0.5922890000000  0.4444710000000  0.5427180000000 1.0
C      1  0.4847760000000  0.5526940000000  0.5997350000000 1.0
C      1  0.3997610000000  0.5625260000000  0.5192210000000 1.0
C      1  0.4496390000000  0.5577830000000  0.4123040000000 1.0
C      1  0.5652690000000  0.5579250000000  0.4254130000000 1.0
C      1  0.5835860000000  0.5561610000000  0.5428400000000 1.0
C      1  0.5277360000000  0.5742700000000  0.4321590000000 1.0
C      1  0.5572800000000  0.5796810000000  0.5088650000000 1.0
C      1  0.5125680000000  0.5831430000000  0.5698940000000 1.0
C      1  0.4466640000000  0.5803340000000  0.5390100000000 1.0
C      1  0.4525480000000  0.5671620000000  0.4589090000000 1.0
C      1  0.5283750000000  0.4252260000000  0.4259090000000 1.0
C      1  0.5605570000000  0.4221160000000  0.5110210000000 1.0
C      1  0.5167020000000  0.4207740000000  0.5636280000000 1.0
C      1  0.4416480000000  0.4221820000000  0.5331580000000 1.0
C      1  0.4450760000000  0.4254460000000  0.4623410000000 1.0
C      1  0.4966990000000  0.5712350000000  0.5132030000000 1.0
C      1  0.4873000000000  0.4187350000000  0.5002310000000 1.0
C      1  0.5009220000000  0.6044560000000  0.5126610000000 1.0
C      1  0.5127870000000  0.3985270000000  0.5101450000000 1.0
END
