TITL C-2622966-9038-210 0.00221150335163889 125000 -555.70770718987 0 0 106 (C1) n - 1
REM
REM in /nfs/bkarasulu/CARBON/AIRSS/Generating-Clusters/AIREBO/with-SteepDescent/Higher-Symm/SD-CG/HFTN-CG
REM
REM
REM
REM
REM
REM ./C.cell (b20cbc046b6831c77cfcea5457e17084)
REM
REM compiler GCC version 9.2.1 20190827 (Red Hat 9.2.1-1)
REM options -cpp -mtune=generic -march=x86-64 -g -O0 -fpre-include=/usr/include/finclude/math-vector-fortran.h
REM seed 412084143 -1159915960 -1354359234 95769832 1529652280 538913813 949847464 -1800904902 395462200 1624375891 1412664882 -156541336 1812247412 -1409448921 1461208812 -289775876 1927494581 -168102217 -1874927935 -1006999246 1407934826 -1561073775 -1525945619 1146938369 -965983962 796186174 -99500459 190503667 -454623200 -1487537996 -1212073719 807489764 -1701292284
REM
CELL 1.54180   50.00000   50.00000   50.00000   90.00000   90.00000   90.00000
LATT -1
SFAC C  
C      1  0.4057390000000  0.5260900000000  0.5139460000000 1.0
C      1  0.5965010000000  0.4786680000000  0.4882700000000 1.0
C      1  0.4943970000000  0.4272580000000  0.4379460000000 1.0
C      1  0.5049170000000  0.5694630000000  0.5680770000000 1.0
C      1  0.5353870000000  0.4467610000000  0.4576750000000 1.0
C      1  0.4653360000000  0.5480660000000  0.5490940000000 1.0
C      1  0.5358880000000  0.5269000000000  0.4568060000000 1.0
C      1  0.4751200000000  0.4809510000000  0.5452320000000 1.0
C      1  0.5412580000000  0.4387540000000  0.5191500000000 1.0
C      1  0.4637100000000  0.5676070000000  0.4839340000000 1.0
C      1  0.5044500000000  0.5605020000000  0.4381490000000 1.0
C      1  0.4965840000000  0.4285910000000  0.5572940000000 1.0
C      1  0.4801760000000  0.5223560000000  0.5758700000000 1.0
C      1  0.5180870000000  0.4698920000000  0.4159690000000 1.0
C      1  0.5047830000000  0.5126300000000  0.3965400000000 1.0
C      1  0.5104390000000  0.4812420000000  0.5882490000000 1.0
C      1  0.5598790000000  0.5437050000000  0.5581540000000 1.0
C      1  0.4395270000000  0.4546700000000  0.4481490000000 1.0
C      1  0.4844330000000  0.5194710000000  0.4145670000000 1.0
C      1  0.5176570000000  0.4682510000000  0.6090570000000 1.0
C      1  0.5177950000000  0.4348310000000  0.4798780000000 1.0
C      1  0.4820400000000  0.5602820000000  0.5269980000000 1.0
C      1  0.5090380000000  0.4596940000000  0.5514900000000 1.0
C      1  0.4826940000000  0.5367520000000  0.4485480000000 1.0
C      1  0.5661960000000  0.5894980000000  0.4612180000000 1.0
C      1  0.4407750000000  0.4267960000000  0.5332010000000 1.0
C      1  0.5297240000000  0.4349040000000  0.5438060000000 1.0
C      1  0.4739120000000  0.5677860000000  0.4578770000000 1.0
C      1  0.5334970000000  0.5187000000000  0.5872770000000 1.0
C      1  0.4656520000000  0.4730660000000  0.4089550000000 1.0
C      1  0.4576290000000  0.5144010000000  0.4540490000000 1.0
C      1  0.5485570000000  0.4946250000000  0.5439370000000 1.0
C      1  0.5683520000000  0.4662870000000  0.4906170000000 1.0
C      1  0.4347500000000  0.5364810000000  0.5117010000000 1.0
C      1  0.4773470000000  0.5416250000000  0.4989550000000 1.0
C      1  0.5230640000000  0.4609850000000  0.5009620000000 1.0
C      1  0.5774090000000  0.5164330000000  0.4625590000000 1.0
C      1  0.4144580000000  0.4813080000000  0.5334140000000 1.0
C      1  0.4826710000000  0.4909550000000  0.5768520000000 1.0
C      1  0.5256320000000  0.4973420000000  0.4063540000000 1.0
C      1  0.5186030000000  0.4883820000000  0.5566010000000 1.0
C      1  0.4759740000000  0.4952250000000  0.4327690000000 1.0
C      1  0.5612590000000  0.5391090000000  0.4658940000000 1.0
C      1  0.4457210000000  0.4703710000000  0.5318110000000 1.0
C      1  0.5165650000000  0.4809370000000  0.4741720000000 1.0
C      1  0.4851700000000  0.5186210000000  0.5227770000000 1.0
C      1  0.5569900000000  0.5656580000000  0.4779080000000 1.0
C      1  0.4230270000000  0.4488990000000  0.5244210000000 1.0
C      1  0.5269990000000  0.5431500000000  0.4306690000000 1.0
C      1  0.4708250000000  0.4487100000000  0.5551490000000 1.0
C      1  0.4222420000000  0.5530000000000  0.4658380000000 1.0
C      1  0.5830490000000  0.4547190000000  0.5362110000000 1.0
C      1  0.4044710000000  0.4966420000000  0.5099730000000 1.0
C      1  0.5923210000000  0.5098660000000  0.4870400000000 1.0
C      1  0.5263540000000  0.5772740000000  0.5143970000000 1.0
C      1  0.4701550000000  0.4257430000000  0.4916230000000 1.0
C      1  0.4388150000000  0.4215610000000  0.4501390000000 1.0
C      1  0.5605090000000  0.5765860000000  0.5528560000000 1.0
C      1  0.4600590000000  0.4855340000000  0.4718610000000 1.0
C      1  0.5409260000000  0.5201510000000  0.5245860000000 1.0
C      1  0.4226860000000  0.5060080000000  0.4828280000000 1.0
C      1  0.5756900000000  0.5004710000000  0.5151730000000 1.0
C      1  0.5676460000000  0.4454390000000  0.5142510000000 1.0
C      1  0.4367830000000  0.5599480000000  0.4892130000000 1.0
C      1  0.5552140000000  0.5814790000000  0.5224770000000 1.0
C      1  0.4408200000000  0.4262460000000  0.4824110000000 1.0
C      1  0.4849020000000  0.4868280000000  0.5148890000000 1.0
C      1  0.5190630000000  0.5127230000000  0.4785120000000 1.0
C      1  0.5546870000000  0.5166390000000  0.5691410000000 1.0
C      1  0.4400580000000  0.4874850000000  0.4428840000000 1.0
C      1  0.5488440000000  0.4739190000000  0.4660490000000 1.0
C      1  0.4536500000000  0.5226450000000  0.5349700000000 1.0
C      1  0.4526410000000  0.5215850000000  0.4869200000000 1.0
C      1  0.5474040000000  0.4817830000000  0.5124670000000 1.0
C      1  0.5610580000000  0.4968690000000  0.4488010000000 1.0
C      1  0.4395520000000  0.4981790000000  0.5497830000000 1.0
C      1  0.4847100000000  0.4794850000000  0.4859840000000 1.0
C      1  0.5156630000000  0.5216870000000  0.5080320000000 1.0
C      1  0.5873070000000  0.5323140000000  0.5101370000000 1.0
C      1  0.4053630000000  0.4764910000000  0.4846580000000 1.0
C      1  0.5015180000000  0.5148450000000  0.5510950000000 1.0
C      1  0.5026270000000  0.4786510000000  0.4450790000000 1.0
C      1  0.4681800000000  0.4390300000000  0.4534370000000 1.0
C      1  0.5309370000000  0.5595440000000  0.5499320000000 1.0
C      1  0.5608240000000  0.5420360000000  0.5267330000000 1.0
C      1  0.4353060000000  0.4670880000000  0.4763620000000 1.0
C      1  0.4534490000000  0.4743330000000  0.5705920000000 1.0
C      1  0.5405800000000  0.5120140000000  0.4270440000000 1.0
C      1  0.5730310000000  0.5627280000000  0.5041250000000 1.0
C      1  0.4186590000000  0.4466360000000  0.4950990000000 1.0
C      1  0.5024360000000  0.5415140000000  0.4759810000000 1.0
C      1  0.4964790000000  0.4567140000000  0.5217380000000 1.0
C      1  0.4260030000000  0.5272510000000  0.4577210000000 1.0
C      1  0.5798230000000  0.4811520000000  0.5419100000000 1.0
C      1  0.5229780000000  0.4426460000000  0.4331180000000 1.0
C      1  0.4756350000000  0.5554060000000  0.5772480000000 1.0
C      1  0.5105690000000  0.5367580000000  0.5755100000000 1.0
C      1  0.4874170000000  0.4574590000000  0.4237870000000 1.0
C      1  0.4733680000000  0.4319450000000  0.5249720000000 1.0
C      1  0.5238580000000  0.5669590000000  0.4835540000000 1.0
C      1  0.4935470000000  0.4134050000000  0.4694010000000 1.0
C      1  0.5025630000000  0.5845400000000  0.5375910000000 1.0
C      1  0.5116140000000  0.5807050000000  0.4594220000000 1.0
C      1  0.4886260000000  0.4045490000000  0.5381250000000 1.0
C      1  0.4878050000000  0.4504970000000  0.4787270000000 1.0
C      1  0.5129380000000  0.5486490000000  0.5246470000000 1.0
END
