TITL C-2622966-9038-239 -0.00282894443468269 125000 -644.914088006602 0 0 121 (C1) n - 1
REM
REM in /nfs/bkarasulu/CARBON/AIRSS/Generating-Clusters/AIREBO/with-SteepDescent/Higher-Symm/SD-CG/HFTN-CG
REM
REM
REM
REM
REM
REM ./C.cell (b20cbc046b6831c77cfcea5457e17084)
REM
REM compiler GCC version 9.2.1 20190827 (Red Hat 9.2.1-1)
REM options -cpp -mtune=generic -march=x86-64 -g -O0 -fpre-include=/usr/include/finclude/math-vector-fortran.h
REM seed -709522191 -1924446019 540163794 -701663854 1983043157 -1572755714 -1326293315 -1520825672 29586728 1013512275 1336351957 -1375573648 -821765988 -1518362655 1397367855 -2112309039 -695632340 322582998 -575365961 94265236 1609340462 -2108494975 -1919187530 179154752 -1075438091 -1477063028 1929541760 1421972558 -1334289604 1908668628 865407192 190526064 1873026155
REM
CELL 1.54180   50.00000   50.00000   50.00000   90.00000   90.00000   90.00000
LATT -1
SFAC C  
C      1  0.3879000000000  0.5157560000000  0.5410830000000 1.0
C      1  0.5064860000000  0.6019580000000  0.5464200000000 1.0
C      1  0.6024280000000  0.4968580000000  0.5398330000000 1.0
C      1  0.4952940000000  0.3935050000000  0.5231020000000 1.0
C      1  0.3866600000000  0.4997780000000  0.4806010000000 1.0
C      1  0.5177220000000  0.3827310000000  0.4659190000000 1.0
C      1  0.6010510000000  0.5105300000000  0.4554780000000 1.0
C      1  0.5003920000000  0.6055500000000  0.4695350000000 1.0
C      1  0.4598970000000  0.4502140000000  0.5318840000000 1.0
C      1  0.4507090000000  0.5411090000000  0.5247500000000 1.0
C      1  0.5429460000000  0.5638550000000  0.5270670000000 1.0
C      1  0.5531300000000  0.4556210000000  0.5386870000000 1.0
C      1  0.4585570000000  0.5614980000000  0.4675570000000 1.0
C      1  0.4395300000000  0.4615300000000  0.4627880000000 1.0
C      1  0.5425240000000  0.4513940000000  0.4737220000000 1.0
C      1  0.5524680000000  0.5348170000000  0.4756180000000 1.0
C      1  0.5043230000000  0.4629530000000  0.5596610000000 1.0
C      1  0.4754660000000  0.4809190000000  0.5625400000000 1.0
C      1  0.4917880000000  0.5244230000000  0.5551360000000 1.0
C      1  0.5252390000000  0.5207860000000  0.5600770000000 1.0
C      1  0.5055320000000  0.5178240000000  0.4415910000000 1.0
C      1  0.4715200000000  0.5177400000000  0.4419870000000 1.0
C      1  0.4910590000000  0.4653460000000  0.4379020000000 1.0
C      1  0.5132980000000  0.4849920000000  0.4459090000000 1.0
C      1  0.5521570000000  0.4143830000000  0.5261680000000 1.0
C      1  0.4209580000000  0.4558620000000  0.5252100000000 1.0
C      1  0.4488280000000  0.5841590000000  0.5322240000000 1.0
C      1  0.5871170000000  0.5500180000000  0.5242460000000 1.0
C      1  0.5466260000000  0.5816290000000  0.4731480000000 1.0
C      1  0.4117860000000  0.5522220000000  0.4693500000000 1.0
C      1  0.4647770000000  0.4191940000000  0.4720160000000 1.0
C      1  0.5898590000000  0.4530930000000  0.4710470000000 1.0
C      1  0.5725520000000  0.5382740000000  0.5503190000000 1.0
C      1  0.5305680000000  0.4281180000000  0.5439720000000 1.0
C      1  0.4264230000000  0.4811900000000  0.5444980000000 1.0
C      1  0.4710690000000  0.5609890000000  0.5434000000000 1.0
C      1  0.5646450000000  0.4707480000000  0.4565960000000 1.0
C      1  0.5267390000000  0.5645700000000  0.4546150000000 1.0
C      1  0.4216810000000  0.5277240000000  0.4572600000000 1.0
C      1  0.4857270000000  0.4200320000000  0.4496350000000 1.0
C      1  0.5098700000000  0.4813240000000  0.3915990000000 1.0
C      1  0.4854580000000  0.4782250000000  0.4108330000000 1.0
C      1  0.4788510000000  0.5071360000000  0.4138410000000 1.0
C      1  0.5109860000000  0.5087180000000  0.4090090000000 1.0
C      1  0.5121330000000  0.5069970000000  0.5845190000000 1.0
C      1  0.4855380000000  0.5215040000000  0.5886530000000 1.0
C      1  0.4772480000000  0.4910700000000  0.5949320000000 1.0
C      1  0.5069180000000  0.4783100000000  0.5867750000000 1.0
C      1  0.5636230000000  0.4926470000000  0.5736490000000 1.0
C      1  0.4829630000000  0.4214270000000  0.5684390000000 1.0
C      1  0.4381780000000  0.5191790000000  0.5703100000000 1.0
C      1  0.5224630000000  0.5617740000000  0.5715460000000 1.0
C      1  0.5488810000000  0.5160570000000  0.4295340000000 1.0
C      1  0.4872000000000  0.5636780000000  0.4255940000000 1.0
C      1  0.4285340000000  0.4936640000000  0.4251830000000 1.0
C      1  0.5267950000000  0.4345730000000  0.4267660000000 1.0
C      1  0.5310730000000  0.4834400000000  0.4741400000000 1.0
C      1  0.4710880000000  0.4640300000000  0.4608680000000 1.0
C      1  0.4603980000000  0.5307530000000  0.4671680000000 1.0
C      1  0.5240910000000  0.5168310000000  0.4700960000000 1.0
C      1  0.5309320000000  0.5341410000000  0.5319660000000 1.0
C      1  0.4739380000000  0.5168910000000  0.5303430000000 1.0
C      1  0.4652840000000  0.4837930000000  0.5310630000000 1.0
C      1  0.5211840000000  0.4666080000000  0.5347880000000 1.0
C      1  0.4359280000000  0.5679520000000  0.5091940000000 1.0
C      1  0.5680590000000  0.5656940000000  0.5117950000000 1.0
C      1  0.5704210000000  0.4349630000000  0.5179410000000 1.0
C      1  0.4388890000000  0.4390400000000  0.5075920000000 1.0
C      1  0.4442870000000  0.4358450000000  0.4802770000000 1.0
C      1  0.5698430000000  0.4408040000000  0.4911060000000 1.0
C      1  0.5633930000000  0.5623330000000  0.4844680000000 1.0
C      1  0.4331450000000  0.5683180000000  0.4815540000000 1.0
C      1  0.5358070000000  0.5158720000000  0.5082420000000 1.0
C      1  0.5100940000000  0.4607540000000  0.5029660000000 1.0
C      1  0.4630380000000  0.4869280000000  0.4995990000000 1.0
C      1  0.4833370000000  0.5343950000000  0.5026580000000 1.0
C      1  0.5500530000000  0.4793580000000  0.5005780000000 1.0
C      1  0.5143970000000  0.5374320000000  0.4957100000000 1.0
C      1  0.4572910000000  0.5164120000000  0.4940060000000 1.0
C      1  0.4814670000000  0.4637450000000  0.4899880000000 1.0
C      1  0.4968590000000  0.5552100000000  0.5648110000000 1.0
C      1  0.5549650000000  0.5166680000000  0.5656380000000 1.0
C      1  0.5069160000000  0.4330280000000  0.5641180000000 1.0
C      1  0.4432640000000  0.4918150000000  0.5633450000000 1.0
C      1  0.4998450000000  0.4373230000000  0.4340860000000 1.0
C      1  0.5446210000000  0.4904040000000  0.4373940000000 1.0
C      1  0.5086330000000  0.5496530000000  0.4343500000000 1.0
C      1  0.4379480000000  0.5174270000000  0.4371330000000 1.0
C      1  0.5342320000000  0.5964710000000  0.4944120000000 1.0
C      1  0.5901080000000  0.4746650000000  0.4965940000000 1.0
C      1  0.4810170000000  0.4075120000000  0.4969840000000 1.0
C      1  0.4044110000000  0.5460740000000  0.4981980000000 1.0
C      1  0.5398800000000  0.4053010000000  0.5027290000000 1.0
C      1  0.5969250000000  0.5312110000000  0.5061610000000 1.0
C      1  0.4720610000000  0.5844280000000  0.5111050000000 1.0
C      1  0.4126760000000  0.4792210000000  0.5076400000000 1.0
C      1  0.4252530000000  0.4691850000000  0.4368840000000 1.0
C      1  0.4662380000000  0.5734130000000  0.4402110000000 1.0
C      1  0.5454630000000  0.5381990000000  0.4440570000000 1.0
C      1  0.5474810000000  0.4437920000000  0.4409430000000 1.0
C      1  0.4480170000000  0.5422110000000  0.5599450000000 1.0
C      1  0.4603530000000  0.4327160000000  0.5575780000000 1.0
C      1  0.5633890000000  0.4660420000000  0.5676860000000 1.0
C      1  0.5465550000000  0.5585950000000  0.5589700000000 1.0
C      1  0.5078880000000  0.4239020000000  0.5211840000000 1.0
C      1  0.4095430000000  0.5042130000000  0.5284880000000 1.0
C      1  0.4965610000000  0.5790240000000  0.5291220000000 1.0
C      1  0.5741180000000  0.5101200000000  0.5312950000000 1.0
C      1  0.5056700000000  0.5758980000000  0.4758240000000 1.0
C      1  0.4162220000000  0.5077130000000  0.4799140000000 1.0
C      1  0.5031220000000  0.4083080000000  0.4730060000000 1.0
C      1  0.5809110000000  0.4959490000000  0.4727860000000 1.0
C      1  0.4349270000000  0.4826270000000  0.4853270000000 1.0
C      1  0.4799040000000  0.5637790000000  0.4892380000000 1.0
C      1  0.5682540000000  0.5147910000000  0.4981090000000 1.0
C      1  0.5211930000000  0.4310420000000  0.4906980000000 1.0
C      1  0.4271350000000  0.5228950000000  0.5083270000000 1.0
C      1  0.4786700000000  0.4376170000000  0.5100240000000 1.0
C      1  0.5717060000000  0.4787600000000  0.5220610000000 1.0
C      1  0.5178550000000  0.5693960000000  0.5069090000000 1.0
C      1  0.5221660000000  0.4894900000000  0.5125080000000 1.0
END
