TITL C-2622964-2985-693 0.00232948643537037 125000 -326.988821337438 0 0 60 (C1) n - 1
REM
REM in /nfs/bkarasulu/CARBON/AIRSS/Generating-Clusters/AIREBO/with-SteepDescent/Higher-Symm/SD-CG/HFTN-CG
REM
REM
REM
REM
REM
REM ./C.cell (b20cbc046b6831c77cfcea5457e17084)
REM
REM compiler GCC version 9.2.1 20190827 (Red Hat 9.2.1-1)
REM options -cpp -mtune=generic -march=x86-64 -g -O0 -fpre-include=/usr/include/finclude/math-vector-fortran.h
REM seed 354524159 1289615415 1617689428 1884711336 -1972740153 1721919292 -864148227 673220328 -1895525213 -1047735411 -163064365 1928804078 1409117912 1595962055 -1013017408 -1863754413 -376076441 1149074582 -1543426977 -1259091606 1193782058 -739819042 378341179 1097382906 731679713 1370756791 2070473303 694134196 459854564 -1237836588 -320753562 -491659113 -1921777105
REM
CELL 1.54180   50.00000   50.00000   50.00000   90.00000   90.00000   90.00000
LATT -1
SFAC C  
C      1  0.5347840000000  0.5389060000000  0.5608770000000 1.0
C      1  0.4058210000000  0.4733210000000  0.5008140000000 1.0
C      1  0.5525190000000  0.5825640000000  0.4948790000000 1.0
C      1  0.5228080000000  0.4655740000000  0.4617570000000 1.0
C      1  0.5667080000000  0.4342840000000  0.4619630000000 1.0
C      1  0.5011530000000  0.5512120000000  0.4559350000000 1.0
C      1  0.5288120000000  0.4844250000000  0.4338120000000 1.0
C      1  0.5095550000000  0.5605470000000  0.5140250000000 1.0
C      1  0.5165450000000  0.5088010000000  0.4311800000000 1.0
C      1  0.4606330000000  0.4379780000000  0.4925160000000 1.0
C      1  0.5491790000000  0.4514220000000  0.4717640000000 1.0
C      1  0.4687870000000  0.4772270000000  0.4423450000000 1.0
C      1  0.4858220000000  0.5067080000000  0.4381350000000 1.0
C      1  0.4568320000000  0.5187150000000  0.5470630000000 1.0
C      1  0.4244720000000  0.4589790000000  0.5443240000000 1.0
C      1  0.4700290000000  0.4984920000000  0.5157480000000 1.0
C      1  0.5853880000000  0.5304960000000  0.4932340000000 1.0
C      1  0.4522550000000  0.5220100000000  0.5075020000000 1.0
C      1  0.5006870000000  0.5188250000000  0.4663080000000 1.0
C      1  0.5404470000000  0.5734540000000  0.5201940000000 1.0
C      1  0.5227600000000  0.5103370000000  0.4870790000000 1.0
C      1  0.4287350000000  0.4749220000000  0.5175680000000 1.0
C      1  0.4750720000000  0.4504380000000  0.4460600000000 1.0
C      1  0.4326250000000  0.5039140000000  0.5285550000000 1.0
C      1  0.5362030000000  0.5156200000000  0.5178590000000 1.0
C      1  0.4782150000000  0.4828990000000  0.4913220000000 1.0
C      1  0.5215110000000  0.4568130000000  0.4230280000000 1.0
C      1  0.4666160000000  0.5574280000000  0.4920640000000 1.0
C      1  0.4420450000000  0.4617660000000  0.5649280000000 1.0
C      1  0.4677780000000  0.5422910000000  0.5382140000000 1.0
C      1  0.5093160000000  0.5816650000000  0.4626050000000 1.0
C      1  0.4691980000000  0.4668120000000  0.5614230000000 1.0
C      1  0.5626450000000  0.5010070000000  0.5273980000000 1.0
C      1  0.4621200000000  0.5216280000000  0.4574380000000 1.0
C      1  0.5119210000000  0.4950760000000  0.5239970000000 1.0
C      1  0.4214060000000  0.5296880000000  0.5091500000000 1.0
C      1  0.5064220000000  0.5014950000000  0.5556130000000 1.0
C      1  0.4945670000000  0.4362840000000  0.5339440000000 1.0
C      1  0.5603540000000  0.4729440000000  0.5153040000000 1.0
C      1  0.4766970000000  0.4920470000000  0.5472160000000 1.0
C      1  0.5118930000000  0.4784830000000  0.4943110000000 1.0
C      1  0.5260620000000  0.5342810000000  0.4401430000000 1.0
C      1  0.4592830000000  0.4353460000000  0.4642020000000 1.0
C      1  0.4543100000000  0.4640220000000  0.5029710000000 1.0
C      1  0.5868680000000  0.5168300000000  0.5167200000000 1.0
C      1  0.4905970000000  0.5090870000000  0.5804710000000 1.0
C      1  0.5670550000000  0.5338400000000  0.4737390000000 1.0
C      1  0.5437120000000  0.4665550000000  0.4956750000000 1.0
C      1  0.5263870000000  0.5635270000000  0.4843360000000 1.0
C      1  0.4869730000000  0.4453090000000  0.5586280000000 1.0
C      1  0.5361080000000  0.5366220000000  0.4713080000000 1.0
C      1  0.5561420000000  0.4984190000000  0.5583200000000 1.0
C      1  0.4835090000000  0.4271910000000  0.5052400000000 1.0
C      1  0.5085630000000  0.4474800000000  0.5078840000000 1.0
C      1  0.4806710000000  0.5549890000000  0.5163490000000 1.0
C      1  0.4625760000000  0.4929600000000  0.4669370000000 1.0
C      1  0.5023680000000  0.4453240000000  0.4438790000000 1.0
C      1  0.4714260000000  0.5458170000000  0.4671030000000 1.0
C      1  0.5336300000000  0.5117670000000  0.5661620000000 1.0
C      1  0.5324270000000  0.5431380000000  0.5304790000000 1.0
END
