TITL C-2622954-8726-186 29.4894683956804 125000 -610.826023269266 0 0 112 (C1) n - 1
REM
REM in /nfs/bkarasulu/CARBON/AIRSS/Generating-Clusters/AIREBO/with-SteepDescent/Higher-Symm/SD-CG/HFTN-CG
REM
REM
REM
REM
REM
REM ./C.cell (b20cbc046b6831c77cfcea5457e17084)
REM
REM compiler GCC version 9.2.1 20190827 (Red Hat 9.2.1-1)
REM options -cpp -mtune=generic -march=x86-64 -g -O0 -fpre-include=/usr/include/finclude/math-vector-fortran.h
REM seed -1449816958 -395400702 1874383655 1889331392 -50423834 -1323301276 -2078118094 60789261 1773757772 -806546861 -1996728290 -2125471798 -1383456903 1311430474 -535948778 -256418151 1146104188 2132642632 -1993229277 1708562109 -578471320 -388493475 1211502849 -85262166 -2087691791 -1478405017 759489824 -146412475 687019424 -1094048274 2047646795 -955740891 2003693127
REM
CELL 1.54180   50.00000   50.00000   50.00000   90.00000   90.00000   90.00000
LATT -1
SFAC C  
C      1  0.4834010000000  0.4650870000000  0.5628980000000 1.0
C      1  0.4850670000000  0.5577200000000  0.5378840000000 1.0
C      1  0.4912100000000  0.5611220000000  0.4608580000000 1.0
C      1  0.4784320000000  0.4944110000000  0.4298880000000 1.0
C      1  0.4890070000000  0.4261620000000  0.4980590000000 1.0
C      1  0.5192230000000  0.5675040000000  0.5127080000000 1.0
C      1  0.5134240000000  0.5134870000000  0.4311170000000 1.0
C      1  0.5263480000000  0.4421520000000  0.4500210000000 1.0
C      1  0.5216450000000  0.4384520000000  0.5273780000000 1.0
C      1  0.5086030000000  0.5091780000000  0.5635600000000 1.0
C      1  0.5042300000000  0.5808560000000  0.4379370000000 1.0
C      1  0.5024850000000  0.4755890000000  0.4149410000000 1.0
C      1  0.5035240000000  0.3982310000000  0.5062630000000 1.0
C      1  0.5010550000000  0.4697330000000  0.5915840000000 1.0
C      1  0.5026110000000  0.5812390000000  0.5503380000000 1.0
C      1  0.5120890000000  0.4570030000000  0.5543040000000 1.0
C      1  0.4902830000000  0.5346210000000  0.5533190000000 1.0
C      1  0.5089370000000  0.5736160000000  0.4812120000000 1.0
C      1  0.5013940000000  0.4928620000000  0.4541770000000 1.0
C      1  0.5079840000000  0.4320780000000  0.4771960000000 1.0
C      1  0.5530610000000  0.5022510000000  0.4729590000000 1.0
C      1  0.5491090000000  0.4761740000000  0.4894200000000 1.0
C      1  0.5454090000000  0.4857830000000  0.5183850000000 1.0
C      1  0.5342180000000  0.5144630000000  0.5250430000000 1.0
C      1  0.5509480000000  0.5303890000000  0.4893660000000 1.0
C      1  0.5451640000000  0.5487710000000  0.5504970000000 1.0
C      1  0.5475260000000  0.5689050000000  0.4611900000000 1.0
C      1  0.5508310000000  0.4814200000000  0.4267060000000 1.0
C      1  0.5492210000000  0.4204290000000  0.4962070000000 1.0
C      1  0.5473660000000  0.4661900000000  0.5710070000000 1.0
C      1  0.4753940000000  0.5692810000000  0.4255200000000 1.0
C      1  0.4764940000000  0.4554320000000  0.4231350000000 1.0
C      1  0.4738700000000  0.3996170000000  0.5230500000000 1.0
C      1  0.4762260000000  0.4930590000000  0.5897250000000 1.0
C      1  0.4770540000000  0.5961910000000  0.5346080000000 1.0
C      1  0.5601390000000  0.4355420000000  0.5175930000000 1.0
C      1  0.5570240000000  0.4932020000000  0.5704490000000 1.0
C      1  0.5570500000000  0.5617520000000  0.5232180000000 1.0
C      1  0.5557230000000  0.5423820000000  0.4415080000000 1.0
C      1  0.5616710000000  0.4597490000000  0.4454770000000 1.0
C      1  0.5464680000000  0.5765200000000  0.4944560000000 1.0
C      1  0.5455940000000  0.5150930000000  0.4263220000000 1.0
C      1  0.5551210000000  0.4325220000000  0.4648310000000 1.0
C      1  0.5478370000000  0.4402510000000  0.5489840000000 1.0
C      1  0.5389230000000  0.5195990000000  0.5681900000000 1.0
C      1  0.5206500000000  0.4705620000000  0.5250250000000 1.0
C      1  0.5046020000000  0.5131360000000  0.5309800000000 1.0
C      1  0.5243510000000  0.5438540000000  0.4890720000000 1.0
C      1  0.5264070000000  0.5142740000000  0.4622470000000 1.0
C      1  0.5275090000000  0.4598970000000  0.4783670000000 1.0
C      1  0.4571340000000  0.4591450000000  0.5294510000000 1.0
C      1  0.4589030000000  0.5086680000000  0.5299090000000 1.0
C      1  0.4585080000000  0.5501680000000  0.5022900000000 1.0
C      1  0.4596690000000  0.5203040000000  0.4698600000000 1.0
C      1  0.4543050000000  0.4699040000000  0.4816460000000 1.0
C      1  0.5338190000000  0.4053490000000  0.4629310000000 1.0
C      1  0.5305200000000  0.4308930000000  0.5780960000000 1.0
C      1  0.5202910000000  0.5448530000000  0.5809680000000 1.0
C      1  0.5347120000000  0.6031390000000  0.4764590000000 1.0
C      1  0.5287450000000  0.5136530000000  0.3950530000000 1.0
C      1  0.5070610000000  0.6048470000000  0.4926650000000 1.0
C      1  0.5021790000000  0.5289510000000  0.4060230000000 1.0
C      1  0.5048230000000  0.4163540000000  0.4489780000000 1.0
C      1  0.5057690000000  0.4248040000000  0.5608560000000 1.0
C      1  0.4927030000000  0.5377080000000  0.5865500000000 1.0
C      1  0.4341960000000  0.4729080000000  0.4543890000000 1.0
C      1  0.4388440000000  0.4490240000000  0.5035880000000 1.0
C      1  0.4412460000000  0.4843970000000  0.5459080000000 1.0
C      1  0.4438930000000  0.5391910000000  0.5306160000000 1.0
C      1  0.4394650000000  0.5472990000000  0.4742660000000 1.0
C      1  0.4971710000000  0.5316510000000  0.4624520000000 1.0
C      1  0.4958530000000  0.4694050000000  0.4708190000000 1.0
C      1  0.4979480000000  0.4716060000000  0.5025690000000 1.0
C      1  0.4899620000000  0.4998270000000  0.5070070000000 1.0
C      1  0.4994690000000  0.5244960000000  0.4930710000000 1.0
C      1  0.4159450000000  0.4519240000000  0.4490370000000 1.0
C      1  0.4133750000000  0.4329240000000  0.5116810000000 1.0
C      1  0.4253120000000  0.5075590000000  0.5650390000000 1.0
C      1  0.4286200000000  0.5321510000000  0.5595020000000 1.0
C      1  0.4162890000000  0.5659200000000  0.4740490000000 1.0
C      1  0.4787700000000  0.5420540000000  0.4162870000000 1.0
C      1  0.4790060000000  0.4266640000000  0.4380280000000 1.0
C      1  0.4834400000000  0.4196930000000  0.5437530000000 1.0
C      1  0.4786820000000  0.5206610000000  0.6017460000000 1.0
C      1  0.4868250000000  0.6102620000000  0.5113880000000 1.0
C      1  0.5793850000000  0.4970620000000  0.5535110000000 1.0
C      1  0.5608560000000  0.5312890000000  0.5181410000000 1.0
C      1  0.5709820000000  0.5371310000000  0.4657450000000 1.0
C      1  0.5741890000000  0.4824150000000  0.4590400000000 1.0
C      1  0.5714070000000  0.4582780000000  0.5062850000000 1.0
C      1  0.5262500000000  0.4584290000000  0.5919060000000 1.0
C      1  0.5245340000000  0.5695080000000  0.5633960000000 1.0
C      1  0.5289280000000  0.5902280000000  0.4476100000000 1.0
C      1  0.5277270000000  0.4849880000000  0.4070830000000 1.0
C      1  0.5285740000000  0.3971800000000  0.4932680000000 1.0
C      1  0.4187370000000  0.4763050000000  0.5007710000000 1.0
C      1  0.4184760000000  0.4930740000000  0.5231290000000 1.0
C      1  0.4207560000000  0.5204620000000  0.5141740000000 1.0
C      1  0.4231890000000  0.5197540000000  0.4857900000000 1.0
C      1  0.4219440000000  0.4926790000000  0.4770610000000 1.0
C      1  0.4897350000000  0.5511910000000  0.5077180000000 1.0
C      1  0.4753690000000  0.5222920000000  0.4412990000000 1.0
C      1  0.4714170000000  0.4542970000000  0.4567420000000 1.0
C      1  0.4884980000000  0.4468170000000  0.5238450000000 1.0
C      1  0.4778230000000  0.4970220000000  0.5557100000000 1.0
C      1  0.4602830000000  0.5646110000000  0.4544640000000 1.0
C      1  0.4518430000000  0.4775970000000  0.4308520000000 1.0
C      1  0.4570250000000  0.4203210000000  0.5019850000000 1.0
C      1  0.4530650000000  0.4728710000000  0.5751610000000 1.0
C      1  0.4550400000000  0.5702540000000  0.5389020000000 1.0
C      1  0.4599170000000  0.4997820000000  0.4969780000000 1.0
C      1  0.5718290000000  0.5030550000000  0.5283300000000 1.0
END
