TITL C-2622955-8511-458 -2987.44298998173 125000 -1095.0875253967 0 0 196 (C1) n - 1
REM
REM in /nfs/bkarasulu/CARBON/AIRSS/Generating-Clusters/AIREBO/with-SteepDescent/Higher-Symm/SD-CG/HFTN-CG
REM
REM
REM
REM
REM
REM ./C.cell (b20cbc046b6831c77cfcea5457e17084)
REM
REM compiler GCC version 9.2.1 20190827 (Red Hat 9.2.1-1)
REM options -cpp -mtune=generic -march=x86-64 -g -O0 -fpre-include=/usr/include/finclude/math-vector-fortran.h
REM seed -543739510 1766225386 714348705 249873134 1794123378 262982766 -841366619 -2065726008 -2036113064 1419726017 -1816727933 678153592 -1145882357 320292641 -1620906094 -610911144 2125598499 577544980 -2071168540 330395363 -1417181008 683854941 993658555 713314826 1343833102 1738630880 -1638379894 -429722046 962601770 403725994 1529504365 -1283423287 1692317993
REM
CELL 1.54180   50.00000   50.00000   50.00000   90.00000   90.00000   90.00000
LATT -1
SFAC C  
C      1  0.5138950000000  0.4810770000000  0.5354410000000 1.0
C      1  0.4903680000000  0.4829800000000  0.4568610000000 1.0
C      1  0.5005160000000  0.5117860000000  0.5348350000000 1.0
C      1  0.5035400000000  0.5136320000000  0.4634470000000 1.0
C      1  0.6092310000000  0.4491590000000  0.4721310000000 1.0
C      1  0.4005810000000  0.4526990000000  0.5488840000000 1.0
C      1  0.6051560000000  0.5420240000000  0.4570770000000 1.0
C      1  0.3989680000000  0.5419790000000  0.5377280000000 1.0
C      1  0.4879300000000  0.5066430000000  0.6094020000000 1.0
C      1  0.4995910000000  0.5286650000000  0.3913920000000 1.0
C      1  0.4904920000000  0.4739950000000  0.6048760000000 1.0
C      1  0.5119800000000  0.4796150000000  0.4016690000000 1.0
C      1  0.4088210000000  0.5581750000000  0.4626790000000 1.0
C      1  0.5852160000000  0.5683250000000  0.5476980000000 1.0
C      1  0.4116170000000  0.4409590000000  0.4652360000000 1.0
C      1  0.5886990000000  0.4389120000000  0.5479480000000 1.0
C      1  0.5199770000000  0.4838410000000  0.5029530000000 1.0
C      1  0.4877660000000  0.4881040000000  0.4897690000000 1.0
C      1  0.5213170000000  0.5168310000000  0.5083590000000 1.0
C      1  0.4817360000000  0.5215590000000  0.4861470000000 1.0
C      1  0.4689050000000  0.4545290000000  0.4203360000000 1.0
C      1  0.5234090000000  0.4492230000000  0.5756090000000 1.0
C      1  0.4848880000000  0.5472600000000  0.4271950000000 1.0
C      1  0.5123410000000  0.5461770000000  0.5770140000000 1.0
C      1  0.5600980000000  0.5718310000000  0.4458880000000 1.0
C      1  0.4439220000000  0.5764030000000  0.5445960000000 1.0
C      1  0.5587380000000  0.4083160000000  0.4566590000000 1.0
C      1  0.4442590000000  0.4014090000000  0.5528620000000 1.0
C      1  0.3964870000000  0.5121500000000  0.5131440000000 1.0
C      1  0.6023590000000  0.5093150000000  0.4943000000000 1.0
C      1  0.3832970000000  0.4841900000000  0.5132030000000 1.0
C      1  0.6140510000000  0.4792180000000  0.4976800000000 1.0
C      1  0.4235330000000  0.4280780000000  0.5502260000000 1.0
C      1  0.5642630000000  0.4352360000000  0.4690400000000 1.0
C      1  0.4281810000000  0.5505540000000  0.5473290000000 1.0
C      1  0.5763270000000  0.5490950000000  0.4491530000000 1.0
C      1  0.4362400000000  0.5138270000000  0.5727870000000 1.0
C      1  0.5564920000000  0.5186910000000  0.4291240000000 1.0
C      1  0.4333400000000  0.4840350000000  0.5646270000000 1.0
C      1  0.5519250000000  0.4933050000000  0.4160610000000 1.0
C      1  0.5045360000000  0.5929000000000  0.4495030000000 1.0
C      1  0.4879070000000  0.6119820000000  0.5669150000000 1.0
C      1  0.5318430000000  0.4073150000000  0.4424150000000 1.0
C      1  0.4636850000000  0.4016230000000  0.5744770000000 1.0
C      1  0.4523640000000  0.5213610000000  0.4766230000000 1.0
C      1  0.5530320000000  0.5164800000000  0.5173650000000 1.0
C      1  0.4544560000000  0.4827020000000  0.4855770000000 1.0
C      1  0.5537360000000  0.4850750000000  0.5091970000000 1.0
C      1  0.4338660000000  0.4800850000000  0.5333760000000 1.0
C      1  0.5741770000000  0.4677620000000  0.4687880000000 1.0
C      1  0.4364200000000  0.5236480000000  0.5282300000000 1.0
C      1  0.5614410000000  0.5229620000000  0.4595990000000 1.0
C      1  0.3946520000000  0.5139620000000  0.4410860000000 1.0
C      1  0.5944240000000  0.5151550000000  0.5561020000000 1.0
C      1  0.4112000000000  0.4863380000000  0.4520180000000 1.0
C      1  0.5825510000000  0.4847400000000  0.5532740000000 1.0
C      1  0.5205750000000  0.3839790000000  0.5316900000000 1.0
C      1  0.4828050000000  0.3847080000000  0.4666190000000 1.0
C      1  0.5308010000000  0.6081270000000  0.5275810000000 1.0
C      1  0.4753100000000  0.6018730000000  0.4751950000000 1.0
C      1  0.4824460000000  0.6043730000000  0.5361730000000 1.0
C      1  0.5266240000000  0.5957620000000  0.4752210000000 1.0
C      1  0.4796910000000  0.4053640000000  0.5196730000000 1.0
C      1  0.5233990000000  0.4093970000000  0.4752890000000 1.0
C      1  0.5536820000000  0.4856050000000  0.5423910000000 1.0
C      1  0.4435800000000  0.4888780000000  0.4552900000000 1.0
C      1  0.5415800000000  0.5166300000000  0.5494070000000 1.0
C      1  0.4534620000000  0.5174430000000  0.4428570000000 1.0
C      1  0.4537170000000  0.5132910000000  0.4103200000000 1.0
C      1  0.5323290000000  0.5191410000000  0.5820980000000 1.0
C      1  0.4572970000000  0.4803210000000  0.4022470000000 1.0
C      1  0.5255910000000  0.4864810000000  0.5897180000000 1.0
C      1  0.5332000000000  0.5139240000000  0.4762570000000 1.0
C      1  0.4669720000000  0.5164850000000  0.5318220000000 1.0
C      1  0.5445730000000  0.4839590000000  0.4645150000000 1.0
C      1  0.4651130000000  0.4849440000000  0.5403920000000 1.0
C      1  0.4375640000000  0.5711330000000  0.4642070000000 1.0
C      1  0.5682830000000  0.5569750000000  0.5302420000000 1.0
C      1  0.4408900000000  0.4472040000000  0.4732160000000 1.0
C      1  0.5610170000000  0.4364980000000  0.5343000000000 1.0
C      1  0.4835700000000  0.5714720000000  0.5448090000000 1.0
C      1  0.5209210000000  0.5608190000000  0.4566950000000 1.0
C      1  0.4867330000000  0.4336230000000  0.5341100000000 1.0
C      1  0.5106820000000  0.4363270000000  0.4588850000000 1.0
C      1  0.5644800000000  0.5182680000000  0.5931250000000 1.0
C      1  0.4218540000000  0.5144310000000  0.4044210000000 1.0
C      1  0.5570630000000  0.4893130000000  0.5919480000000 1.0
C      1  0.4268550000000  0.4840900000000  0.4066640000000 1.0
C      1  0.5347400000000  0.5666090000000  0.4261610000000 1.0
C      1  0.4624370000000  0.5646100000000  0.5705630000000 1.0
C      1  0.5296390000000  0.4473010000000  0.4327460000000 1.0
C      1  0.4734080000000  0.4438900000000  0.5622640000000 1.0
C      1  0.4235310000000  0.4424500000000  0.4375210000000 1.0
C      1  0.5711890000000  0.4417560000000  0.5725750000000 1.0
C      1  0.4173340000000  0.5556220000000  0.4335020000000 1.0
C      1  0.5802920000000  0.5600130000000  0.5742560000000 1.0
C      1  0.4903240000000  0.4565240000000  0.5015860000000 1.0
C      1  0.5201830000000  0.4525170000000  0.4971780000000 1.0
C      1  0.4884360000000  0.5457510000000  0.5019160000000 1.0
C      1  0.5199540000000  0.5498340000000  0.5077180000000 1.0
C      1  0.5643120000000  0.5590870000000  0.4858980000000 1.0
C      1  0.4374360000000  0.5588440000000  0.5095850000000 1.0
C      1  0.5635080000000  0.4219760000000  0.5067570000000 1.0
C      1  0.4439810000000  0.4359720000000  0.5035740000000 1.0
C      1  0.4077840000000  0.4582850000000  0.4925780000000 1.0
C      1  0.5936670000000  0.4554910000000  0.5215490000000 1.0
C      1  0.4045330000000  0.5373550000000  0.4832550000000 1.0
C      1  0.5829370000000  0.5413150000000  0.5081140000000 1.0
C      1  0.5332600000000  0.5357920000000  0.4197350000000 1.0
C      1  0.4632960000000  0.5327260000000  0.5700890000000 1.0
C      1  0.5347820000000  0.4767200000000  0.4353470000000 1.0
C      1  0.4774190000000  0.4747130000000  0.5664710000000 1.0
C      1  0.5002880000000  0.5957780000000  0.5848700000000 1.0
C      1  0.5055070000000  0.5800750000000  0.4180210000000 1.0
C      1  0.4863200000000  0.4129350000000  0.5837710000000 1.0
C      1  0.5110500000000  0.4213650000000  0.4209990000000 1.0
C      1  0.3955120000000  0.4869720000000  0.4823100000000 1.0
C      1  0.6038560000000  0.4876180000000  0.5284990000000 1.0
C      1  0.3898490000000  0.5146510000000  0.4700990000000 1.0
C      1  0.6046020000000  0.5219970000000  0.5258520000000 1.0
C      1  0.4111400000000  0.5492450000000  0.5110130000000 1.0
C      1  0.5980080000000  0.5580440000000  0.4814320000000 1.0
C      1  0.4172050000000  0.4444590000000  0.5209220000000 1.0
C      1  0.5892290000000  0.4385290000000  0.4919050000000 1.0
C      1  0.5040510000000  0.3880140000000  0.4838500000000 1.0
C      1  0.5019500000000  0.3875360000000  0.5119240000000 1.0
C      1  0.4999820000000  0.6110610000000  0.4890020000000 1.0
C      1  0.5029820000000  0.6159660000000  0.5169860000000 1.0
C      1  0.4081930000000  0.5305200000000  0.4228670000000 1.0
C      1  0.5833000000000  0.5313710000000  0.5769210000000 1.0
C      1  0.4170850000000  0.4684810000000  0.4274930000000 1.0
C      1  0.5730170000000  0.4704650000000  0.5786500000000 1.0
C      1  0.5203440000000  0.4663050000000  0.6165910000000 1.0
C      1  0.4832630000000  0.4715970000000  0.3873100000000 1.0
C      1  0.5112420000000  0.5212020000000  0.6087030000000 1.0
C      1  0.4691040000000  0.5324750000000  0.3930100000000 1.0
C      1  0.4603750000000  0.5498500000000  0.4506160000000 1.0
C      1  0.5387900000000  0.5480980000000  0.5359900000000 1.0
C      1  0.4640450000000  0.4618040000000  0.4530100000000 1.0
C      1  0.5357780000000  0.4567870000000  0.5447920000000 1.0
C      1  0.5366130000000  0.5476600000000  0.4788680000000 1.0
C      1  0.4663820000000  0.5498190000000  0.5250150000000 1.0
C      1  0.5375620000000  0.4527160000000  0.4713740000000 1.0
C      1  0.4644430000000  0.4566540000000  0.5227440000000 1.0
C      1  0.4888270000000  0.5678380000000  0.5886450000000 1.0
C      1  0.4881350000000  0.5604890000000  0.3960360000000 1.0
C      1  0.4938860000000  0.4457700000000  0.5885270000000 1.0
C      1  0.4995650000000  0.4493380000000  0.4065470000000 1.0
C      1  0.4528130000000  0.3944740000000  0.5272010000000 1.0
C      1  0.5688810000000  0.3869930000000  0.4721870000000 1.0
C      1  0.4604330000000  0.5898440000000  0.5180790000000 1.0
C      1  0.5546660000000  0.5916230000000  0.4649650000000 1.0
C      1  0.5801320000000  0.4765420000000  0.4985280000000 1.0
C      1  0.4290940000000  0.4817440000000  0.5033310000000 1.0
C      1  0.5708250000000  0.5155630000000  0.4895060000000 1.0
C      1  0.4262450000000  0.5150220000000  0.4969340000000 1.0
C      1  0.4758090000000  0.4290620000000  0.4959930000000 1.0
C      1  0.5327790000000  0.4243290000000  0.5014800000000 1.0
C      1  0.4779970000000  0.5741980000000  0.4935080000000 1.0
C      1  0.5223730000000  0.5829160000000  0.5063720000000 1.0
C      1  0.5258100000000  0.5765220000000  0.5783160000000 1.0
C      1  0.4733940000000  0.5792700000000  0.4273610000000 1.0
C      1  0.5188990000000  0.4158330000000  0.5801840000000 1.0
C      1  0.4773050000000  0.4217240000000  0.4239610000000 1.0
C      1  0.6047710000000  0.4821340000000  0.4650990000000 1.0
C      1  0.4010210000000  0.4841240000000  0.5411850000000 1.0
C      1  0.6113330000000  0.5155090000000  0.4639050000000 1.0
C      1  0.4119370000000  0.5140930000000  0.5499110000000 1.0
C      1  0.5075930000000  0.4766840000000  0.5656090000000 1.0
C      1  0.5067980000000  0.4917030000000  0.4307170000000 1.0
C      1  0.4919930000000  0.5282420000000  0.5605690000000 1.0
C      1  0.5056070000000  0.5256950000000  0.4330280000000 1.0
C      1  0.5266400000000  0.5246250000000  0.3909890000000 1.0
C      1  0.4584560000000  0.5147350000000  0.5980010000000 1.0
C      1  0.5352490000000  0.4972100000000  0.3919260000000 1.0
C      1  0.4612930000000  0.4828800000000  0.5927880000000 1.0
C      1  0.5298990000000  0.4083570000000  0.5496510000000 1.0
C      1  0.4673250000000  0.4079090000000  0.4523480000000 1.0
C      1  0.5421350000000  0.5908230000000  0.5536200000000 1.0
C      1  0.4624410000000  0.5993580000000  0.4509340000000 1.0
C      1  0.5739550000000  0.5916820000000  0.4868260000000 1.0
C      1  0.4397840000000  0.5830690000000  0.4919070000000 1.0
C      1  0.5708730000000  0.3921370000000  0.4993370000000 1.0
C      1  0.4363520000000  0.4035780000000  0.5065400000000 1.0
C      1  0.5175990000000  0.4315600000000  0.5310330000000 1.0
C      1  0.4811900000000  0.4347720000000  0.4644810000000 1.0
C      1  0.5164650000000  0.5734890000000  0.5395850000000 1.0
C      1  0.4878110000000  0.5661990000000  0.4622850000000 1.0
C      1  0.5498220000000  0.5777350000000  0.4017810000000 1.0
C      1  0.4421780000000  0.5727230000000  0.5915700000000 1.0
C      1  0.5467650000000  0.4340380000000  0.4087680000000 1.0
C      1  0.4468590000000  0.4375150000000  0.5692740000000 1.0
C      1  0.5515560000000  0.4215410000000  0.5726060000000 1.0
C      1  0.4448940000000  0.4255470000000  0.4338540000000 1.0
C      1  0.5581080000000  0.5766700000000  0.5803770000000 1.0
C      1  0.4405810000000  0.5806420000000  0.4322060000000 1.0
END
