TITL C-2622955-8511-507 0.00115386408123592 125000 -563.302937208845 0 0 104 (C1) n - 1
REM
REM in /nfs/bkarasulu/CARBON/AIRSS/Generating-Clusters/AIREBO/with-SteepDescent/Higher-Symm/SD-CG/HFTN-CG
REM
REM
REM
REM
REM
REM ./C.cell (b20cbc046b6831c77cfcea5457e17084)
REM
REM compiler GCC version 9.2.1 20190827 (Red Hat 9.2.1-1)
REM options -cpp -mtune=generic -march=x86-64 -g -O0 -fpre-include=/usr/include/finclude/math-vector-fortran.h
REM seed -1400731043 1887989777 -1730209278 -1119676057 -1026894249 -984223264 333215320 -1498587003 -442133678 -1678318364 846763635 -1745907764 -1829816901 1874194351 542767751 608128381 1596955752 -1828048188 -157424479 -1816408722 -760161438 1221734328 -1107529151 632044270 -1420176796 -1212875870 -808883959 -1370257474 -448123004 -926064944 -806041250 -1899090757 1428788305
REM
CELL 1.54180   50.00000   50.00000   50.00000   90.00000   90.00000   90.00000
LATT -1
SFAC C  
C      1  0.5135270000000  0.4743200000000  0.5269910000000 1.0
C      1  0.4698730000000  0.5053650000000  0.5230360000000 1.0
C      1  0.5203430000000  0.5255670000000  0.5295640000000 1.0
C      1  0.5080640000000  0.5155620000000  0.4613670000000 1.0
C      1  0.4718460000000  0.4921120000000  0.4736660000000 1.0
C      1  0.5238010000000  0.4865000000000  0.4695170000000 1.0
C      1  0.5676440000000  0.5739810000000  0.5125650000000 1.0
C      1  0.5350010000000  0.4063790000000  0.5075810000000 1.0
C      1  0.3945700000000  0.5281760000000  0.5033190000000 1.0
C      1  0.5677820000000  0.4204260000000  0.4954680000000 1.0
C      1  0.5331170000000  0.6002500000000  0.4936490000000 1.0
C      1  0.3969180000000  0.4700300000000  0.4923540000000 1.0
C      1  0.5562210000000  0.4457440000000  0.5122500000000 1.0
C      1  0.4242010000000  0.4753710000000  0.5079200000000 1.0
C      1  0.5228600000000  0.5801860000000  0.5180030000000 1.0
C      1  0.5542220000000  0.5576400000000  0.4891590000000 1.0
C      1  0.4190260000000  0.5226880000000  0.4843040000000 1.0
C      1  0.5172890000000  0.4275570000000  0.4890090000000 1.0
C      1  0.5611830000000  0.4961980000000  0.4414810000000 1.0
C      1  0.4656640000000  0.4513880000000  0.4450640000000 1.0
C      1  0.4710810000000  0.5519440000000  0.4454650000000 1.0
C      1  0.5638890000000  0.5027360000000  0.5601220000000 1.0
C      1  0.4668800000000  0.5478730000000  0.5608960000000 1.0
C      1  0.4760330000000  0.4514280000000  0.5634900000000 1.0
C      1  0.5211810000000  0.4224330000000  0.5302740000000 1.0
C      1  0.4168290000000  0.5231300000000  0.5242050000000 1.0
C      1  0.5622200000000  0.5652830000000  0.5385880000000 1.0
C      1  0.5203930000000  0.5760330000000  0.4783710000000 1.0
C      1  0.4149480000000  0.4784350000000  0.4691760000000 1.0
C      1  0.5581310000000  0.4399810000000  0.4729400000000 1.0
C      1  0.5131940000000  0.5346360000000  0.4219040000000 1.0
C      1  0.5249450000000  0.4680290000000  0.4188880000000 1.0
C      1  0.4653230000000  0.4984700000000  0.4208870000000 1.0
C      1  0.5211950000000  0.4735560000000  0.5774940000000 1.0
C      1  0.5286280000000  0.5292130000000  0.5778000000000 1.0
C      1  0.4576140000000  0.5114620000000  0.5742040000000 1.0
C      1  0.5193990000000  0.4565990000000  0.5507040000000 1.0
C      1  0.4471000000000  0.5086810000000  0.5454560000000 1.0
C      1  0.5337600000000  0.5410240000000  0.5519290000000 1.0
C      1  0.5162110000000  0.5471510000000  0.4515380000000 1.0
C      1  0.4384770000000  0.4870840000000  0.4383860000000 1.0
C      1  0.5358150000000  0.4622330000000  0.4489420000000 1.0
C      1  0.5767980000000  0.5231010000000  0.4557840000000 1.0
C      1  0.4803370000000  0.4233180000000  0.4571040000000 1.0
C      1  0.4439870000000  0.5517720000000  0.4539400000000 1.0
C      1  0.5796910000000  0.4748810000000  0.5472410000000 1.0
C      1  0.4806050000000  0.5758960000000  0.5468480000000 1.0
C      1  0.4469650000000  0.4476380000000  0.5491860000000 1.0
C      1  0.4900400000000  0.4260750000000  0.5182550000000 1.0
C      1  0.4412990000000  0.5544720000000  0.5151700000000 1.0
C      1  0.5764840000000  0.5227730000000  0.5138980000000 1.0
C      1  0.4818800000000  0.5748040000000  0.4913210000000 1.0
C      1  0.4317570000000  0.4441700000000  0.4842310000000 1.0
C      1  0.5831680000000  0.4718410000000  0.4829890000000 1.0
C      1  0.4819060000000  0.4784840000000  0.5200970000000 1.0
C      1  0.4911360000000  0.5304260000000  0.5143530000000 1.0
C      1  0.5316970000000  0.4970290000000  0.5217800000000 1.0
C      1  0.4848250000000  0.5193280000000  0.4828320000000 1.0
C      1  0.4803300000000  0.4663430000000  0.4893550000000 1.0
C      1  0.5425680000000  0.5015580000000  0.4904700000000 1.0
C      1  0.5135450000000  0.5524120000000  0.5007420000000 1.0
C      1  0.5375840000000  0.4619770000000  0.4887580000000 1.0
C      1  0.4426200000000  0.4904480000000  0.4836030000000 1.0
C      1  0.5083080000000  0.4566000000000  0.5001100000000 1.0
C      1  0.5380250000000  0.5305410000000  0.5012240000000 1.0
C      1  0.4433780000000  0.5132630000000  0.5061020000000 1.0
C      1  0.5377700000000  0.5010780000000  0.5774000000000 1.0
C      1  0.4874290000000  0.4726620000000  0.5731830000000 1.0
C      1  0.4851850000000  0.5225820000000  0.5744180000000 1.0
C      1  0.5306880000000  0.4968040000000  0.4334280000000 1.0
C      1  0.4849270000000  0.5260040000000  0.4387240000000 1.0
C      1  0.4770660000000  0.4796480000000  0.4453180000000 1.0
C      1  0.4630350000000  0.4446390000000  0.4771620000000 1.0
C      1  0.4703300000000  0.5477920000000  0.4850740000000 1.0
C      1  0.5675530000000  0.4974320000000  0.4746230000000 1.0
C      1  0.4704560000000  0.5506810000000  0.5275400000000 1.0
C      1  0.4698540000000  0.4496650000000  0.5241240000000 1.0
C      1  0.5633910000000  0.4965220000000  0.5266790000000 1.0
C      1  0.5076190000000  0.4193940000000  0.4431100000000 1.0
C      1  0.4244170000000  0.5367790000000  0.4408210000000 1.0
C      1  0.5649970000000  0.5497750000000  0.4425490000000 1.0
C      1  0.5066440000000  0.5844530000000  0.5625660000000 1.0
C      1  0.4211690000000  0.4668470000000  0.5519860000000 1.0
C      1  0.5691960000000  0.4497260000000  0.5575970000000 1.0
C      1  0.4859960000000  0.4145100000000  0.4887950000000 1.0
C      1  0.4391610000000  0.5472600000000  0.4855010000000 1.0
C      1  0.5755250000000  0.5340340000000  0.4879620000000 1.0
C      1  0.4917400000000  0.5822250000000  0.5160190000000 1.0
C      1  0.4387280000000  0.4479850000000  0.5157990000000 1.0
C      1  0.5774870000000  0.4688760000000  0.5127770000000 1.0
C      1  0.4367480000000  0.5403880000000  0.5457860000000 1.0
C      1  0.5654060000000  0.5326860000000  0.5435460000000 1.0
C      1  0.4963030000000  0.4316490000000  0.5515390000000 1.0
C      1  0.4339380000000  0.4563890000000  0.4525160000000 1.0
C      1  0.5697590000000  0.4645880000000  0.4525570000000 1.0
C      1  0.4924940000000  0.5700460000000  0.4598730000000 1.0
C      1  0.5463840000000  0.4407450000000  0.5421430000000 1.0
C      1  0.4220990000000  0.4913990000000  0.5352420000000 1.0
C      1  0.5319730000000  0.5731340000000  0.5476000000000 1.0
C      1  0.5442940000000  0.5604990000000  0.4595740000000 1.0
C      1  0.4210530000000  0.5088130000000  0.4554320000000 1.0
C      1  0.5282410000000  0.4317210000000  0.4589960000000 1.0
C      1  0.4992480000000  0.4975650000000  0.4267980000000 1.0
C      1  0.5018630000000  0.5004610000000  0.5851390000000 1.0
END
