TITL C-2622957-9142-580 0.00103676543263042 125000 -677.090895028527 0 0 121 (C1) n - 1
REM
REM in /nfs/bkarasulu/CARBON/AIRSS/Generating-Clusters/AIREBO/with-SteepDescent/Higher-Symm/SD-CG/HFTN-CG
REM
REM
REM
REM
REM
REM ./C.cell (b20cbc046b6831c77cfcea5457e17084)
REM
REM compiler GCC version 9.2.1 20190827 (Red Hat 9.2.1-1)
REM options -cpp -mtune=generic -march=x86-64 -g -O0 -fpre-include=/usr/include/finclude/math-vector-fortran.h
REM seed 1713690500 617593816 -1061560228 76221124 259630393 1430438260 -701087920 940809467 927285669 -1974940898 -2089125807 -863418102 -1764384201 -1095214905 -664776462 1323850924 -1609929897 1375851599 1803371502 -270309024 266260161 1175182108 -1595179445 -826304109 1624059677 1312625387 1442850833 2099559334 2133472792 506070091 1914533172 -232565565 -626240610
REM
CELL 1.54180   50.00000   50.00000   50.00000   90.00000   90.00000   90.00000
LATT -1
SFAC C  
C      1  0.5640110000000  0.4564520000000  0.5662870000000 1.0
C      1  0.5461780000000  0.5433450000000  0.4353590000000 1.0
C      1  0.3960840000000  0.4909600000000  0.5363710000000 1.0
C      1  0.4340460000000  0.5211830000000  0.5485220000000 1.0
C      1  0.4852830000000  0.4319080000000  0.5269600000000 1.0
C      1  0.4424440000000  0.5211380000000  0.5814820000000 1.0
C      1  0.4563920000000  0.5843670000000  0.5077720000000 1.0
C      1  0.6043950000000  0.5077330000000  0.5173380000000 1.0
C      1  0.5331990000000  0.5703250000000  0.4429590000000 1.0
C      1  0.4562300000000  0.4394500000000  0.4967770000000 1.0
C      1  0.4339690000000  0.4687590000000  0.5655150000000 1.0
C      1  0.5262270000000  0.5492900000000  0.4944230000000 1.0
C      1  0.4615500000000  0.5335550000000  0.4498550000000 1.0
C      1  0.5026510000000  0.4115430000000  0.5566280000000 1.0
C      1  0.4268520000000  0.4454420000000  0.5418090000000 1.0
C      1  0.5543310000000  0.5062870000000  0.5907370000000 1.0
C      1  0.4773490000000  0.5376570000000  0.5416760000000 1.0
C      1  0.5091020000000  0.5475060000000  0.5199270000000 1.0
C      1  0.5324400000000  0.5976740000000  0.4837790000000 1.0
C      1  0.4412710000000  0.4140950000000  0.4832140000000 1.0
C      1  0.4827820000000  0.4861960000000  0.5527770000000 1.0
C      1  0.4125850000000  0.5157050000000  0.5276310000000 1.0
C      1  0.4040260000000  0.4492780000000  0.4860230000000 1.0
C      1  0.4096940000000  0.5299290000000  0.4623780000000 1.0
C      1  0.5570580000000  0.4429980000000  0.5443520000000 1.0
C      1  0.5844360000000  0.5645710000000  0.4970890000000 1.0
C      1  0.5146490000000  0.4146950000000  0.5269010000000 1.0
C      1  0.3947150000000  0.5377280000000  0.5094880000000 1.0
C      1  0.5366590000000  0.5036120000000  0.4794060000000 1.0
C      1  0.5076280000000  0.4919260000000  0.5042620000000 1.0
C      1  0.4970080000000  0.4314220000000  0.5709810000000 1.0
C      1  0.5047640000000  0.5565960000000  0.5467000000000 1.0
C      1  0.4266990000000  0.5150810000000  0.4173540000000 1.0
C      1  0.5257400000000  0.5169410000000  0.4420620000000 1.0
C      1  0.4782570000000  0.5068360000000  0.4602190000000 1.0
C      1  0.5897640000000  0.4941860000000  0.5350380000000 1.0
C      1  0.4146990000000  0.5169740000000  0.4933900000000 1.0
C      1  0.5149290000000  0.4651880000000  0.4379720000000 1.0
C      1  0.5468640000000  0.5447170000000  0.5440710000000 1.0
C      1  0.5734630000000  0.4393540000000  0.4794310000000 1.0
C      1  0.5199750000000  0.5401020000000  0.4653680000000 1.0
C      1  0.5335850000000  0.6244110000000  0.4863900000000 1.0
C      1  0.5584170000000  0.5208860000000  0.4762210000000 1.0
C      1  0.3996550000000  0.4648990000000  0.5355960000000 1.0
C      1  0.5435480000000  0.4227940000000  0.5259820000000 1.0
C      1  0.4520010000000  0.4884170000000  0.4585610000000 1.0
C      1  0.5026790000000  0.4105280000000  0.4981840000000 1.0
C      1  0.5043890000000  0.5627920000000  0.4479990000000 1.0
C      1  0.5367980000000  0.5009700000000  0.5192360000000 1.0
C      1  0.4505040000000  0.5676480000000  0.4881070000000 1.0
C      1  0.4984720000000  0.4589150000000  0.5622930000000 1.0
C      1  0.4950420000000  0.4394330000000  0.4884150000000 1.0
C      1  0.4244970000000  0.4707460000000  0.4352680000000 1.0
C      1  0.5753330000000  0.5771060000000  0.5209430000000 1.0
C      1  0.6044310000000  0.5396010000000  0.5054520000000 1.0
C      1  0.5462900000000  0.4618730000000  0.5181920000000 1.0
C      1  0.4864480000000  0.5185410000000  0.6111550000000 1.0
C      1  0.5163210000000  0.5808750000000  0.4993600000000 1.0
C      1  0.4967080000000  0.3904890000000  0.4772210000000 1.0
C      1  0.4200660000000  0.4884310000000  0.4162370000000 1.0
C      1  0.4518070000000  0.6111660000000  0.5099460000000 1.0
C      1  0.5231330000000  0.5374110000000  0.5673730000000 1.0
C      1  0.4561540000000  0.4494490000000  0.5258590000000 1.0
C      1  0.5407360000000  0.4765460000000  0.4879930000000 1.0
C      1  0.5655800000000  0.5409380000000  0.4586330000000 1.0
C      1  0.5450530000000  0.5309360000000  0.5160090000000 1.0
C      1  0.3837820000000  0.5304670000000  0.4530050000000 1.0
C      1  0.4434480000000  0.5538820000000  0.5484510000000 1.0
C      1  0.5047480000000  0.5153740000000  0.4797980000000 1.0
C      1  0.5134330000000  0.5229490000000  0.6130180000000 1.0
C      1  0.4386810000000  0.4157160000000  0.5474700000000 1.0
C      1  0.5935150000000  0.4563780000000  0.4723540000000 1.0
C      1  0.5059810000000  0.4262430000000  0.4374510000000 1.0
C      1  0.5454580000000  0.4562960000000  0.4298780000000 1.0
C      1  0.6306490000000  0.5487210000000  0.5099280000000 1.0
C      1  0.5576630000000  0.4718240000000  0.4110250000000 1.0
C      1  0.4753460000000  0.5492780000000  0.5727920000000 1.0
C      1  0.4973780000000  0.5503120000000  0.5854450000000 1.0
C      1  0.5512470000000  0.4855910000000  0.5688780000000 1.0
C      1  0.4610000000000  0.4791850000000  0.5274900000000 1.0
C      1  0.4896080000000  0.5129200000000  0.5240390000000 1.0
C      1  0.4610870000000  0.4313460000000  0.4641080000000 1.0
C      1  0.4621740000000  0.5229050000000  0.5998030000000 1.0
C      1  0.4801860000000  0.5559010000000  0.4388960000000 1.0
C      1  0.5296270000000  0.4568970000000  0.4674880000000 1.0
C      1  0.5983000000000  0.4831950000000  0.4719050000000 1.0
C      1  0.5341120000000  0.4302250000000  0.4406350000000 1.0
C      1  0.4493460000000  0.4919950000000  0.5552970000000 1.0
C      1  0.5478340000000  0.5174060000000  0.4162120000000 1.0
C      1  0.5730770000000  0.5267590000000  0.5024970000000 1.0
C      1  0.4611380000000  0.5361760000000  0.4819150000000 1.0
C      1  0.4902320000000  0.4193860000000  0.4612950000000 1.0
C      1  0.5059050000000  0.4945900000000  0.4457930000000 1.0
C      1  0.4608370000000  0.4110460000000  0.5358750000000 1.0
C      1  0.5181380000000  0.4641870000000  0.5350590000000 1.0
C      1  0.5482090000000  0.5831820000000  0.4642470000000 1.0
C      1  0.4070470000000  0.4454680000000  0.5121900000000 1.0
C      1  0.5712930000000  0.5662370000000  0.4718440000000 1.0
C      1  0.5031120000000  0.4760460000000  0.4745130000000 1.0
C      1  0.4962920000000  0.4613700000000  0.5140150000000 1.0
C      1  0.5597150000000  0.4866550000000  0.5372220000000 1.0
C      1  0.4331130000000  0.5283630000000  0.4401030000000 1.0
C      1  0.5569640000000  0.4343410000000  0.5007560000000 1.0
C      1  0.4733620000000  0.4648200000000  0.4819700000000 1.0
C      1  0.5506670000000  0.4963470000000  0.3993790000000 1.0
C      1  0.4952130000000  0.5846900000000  0.5169400000000 1.0
C      1  0.4299410000000  0.4930270000000  0.4834000000000 1.0
C      1  0.5052040000000  0.5117600000000  0.5539880000000 1.0
C      1  0.5950230000000  0.5051120000000  0.4879040000000 1.0
C      1  0.5444310000000  0.5005320000000  0.3461080000000 1.0
C      1  0.4489090000000  0.4554930000000  0.4515290000000 1.0
C      1  0.5345920000000  0.5244150000000  0.5941470000000 1.0
C      1  0.4687130000000  0.5688430000000  0.5312360000000 1.0
C      1  0.5224250000000  0.4861140000000  0.5579120000000 1.0
C      1  0.4576070000000  0.4878520000000  0.4980410000000 1.0
C      1  0.5636750000000  0.5660380000000  0.5434530000000 1.0
C      1  0.5487560000000  0.4987860000000  0.3718990000000 1.0
C      1  0.4188380000000  0.4679590000000  0.4675190000000 1.0
C      1  0.4304190000000  0.5487840000000  0.4750690000000 1.0
C      1  0.4701540000000  0.5154080000000  0.4999440000000 1.0
C      1  0.4943510000000  0.4467040000000  0.4199630000000 1.0
END
