TITL C-2622960-5345-104 -0.0029198930717567 125000 -974.17921153427 0 0 185 (C1) n - 1
REM
REM in /nfs/bkarasulu/CARBON/AIRSS/Generating-Clusters/AIREBO/with-SteepDescent/Higher-Symm/SD-CG/HFTN-CG
REM
REM
REM
REM
REM
REM ./C.cell (b20cbc046b6831c77cfcea5457e17084)
REM
REM compiler GCC version 9.2.1 20190827 (Red Hat 9.2.1-1)
REM options -cpp -mtune=generic -march=x86-64 -g -O0 -fpre-include=/usr/include/finclude/math-vector-fortran.h
REM seed 563055022 -1514018647 -1331793720 -1208255095 -1340098222 -826609011 525130577 1084248257 2113152510 -651684794 1537177866 1189755586 1115310820 2103153509 -1888002961 -1859791216 720147888 -1268536527 1189459489 1061717600 1760534497 1121136593 -548723096 1731842403 -2138208717 1596509757 -1282439468 1097936248 1431391891 1958678801 -1136108595 591252087 1215274739
REM
CELL 1.54180   50.00000   50.00000   50.00000   90.00000   90.00000   90.00000
LATT -1
SFAC C  
C      1  0.4497950000000  0.4903850000000  0.5725870000000 1.0
C      1  0.5677440000000  0.4652780000000  0.4822300000000 1.0
C      1  0.4838620000000  0.5727710000000  0.4556960000000 1.0
C      1  0.5413340000000  0.4818910000000  0.4294680000000 1.0
C      1  0.4503620000000  0.5108610000000  0.4371370000000 1.0
C      1  0.5383900000000  0.5209590000000  0.5720880000000 1.0
C      1  0.4178600000000  0.4328670000000  0.5207130000000 1.0
C      1  0.5756550000000  0.5527620000000  0.5176420000000 1.0
C      1  0.4336060000000  0.5435300000000  0.4789570000000 1.0
C      1  0.5245570000000  0.5768710000000  0.5638250000000 1.0
C      1  0.4731340000000  0.4239620000000  0.5399640000000 1.0
C      1  0.5142380000000  0.4303400000000  0.4359810000000 1.0
C      1  0.5667840000000  0.4811170000000  0.4514130000000 1.0
C      1  0.4773550000000  0.4291400000000  0.5733080000000 1.0
C      1  0.4575800000000  0.5670860000000  0.4765230000000 1.0
C      1  0.4318900000000  0.4869610000000  0.5492880000000 1.0
C      1  0.4310710000000  0.5138130000000  0.4626120000000 1.0
C      1  0.5670540000000  0.5129280000000  0.5566730000000 1.0
C      1  0.5142800000000  0.4614120000000  0.4270540000000 1.0
C      1  0.5190980000000  0.5477260000000  0.5805080000000 1.0
C      1  0.4851000000000  0.5486790000000  0.4350550000000 1.0
C      1  0.5558560000000  0.5775840000000  0.5143710000000 1.0
C      1  0.5496640000000  0.4365730000000  0.4846490000000 1.0
C      1  0.4440800000000  0.4190650000000  0.5228100000000 1.0
C      1  0.6200930000000  0.4590390000000  0.5198190000000 1.0
C      1  0.5309270000000  0.6119680000000  0.4539760000000 1.0
C      1  0.4467430000000  0.5372290000000  0.6168960000000 1.0
C      1  0.3925130000000  0.4572170000000  0.4714520000000 1.0
C      1  0.6021390000000  0.5567300000000  0.4637870000000 1.0
C      1  0.3874400000000  0.5395620000000  0.5238780000000 1.0
C      1  0.4764530000000  0.6006030000000  0.5502640000000 1.0
C      1  0.5293880000000  0.3820460000000  0.5420850000000 1.0
C      1  0.4735100000000  0.3926870000000  0.4496980000000 1.0
C      1  0.5476030000000  0.5227330000000  0.3787550000000 1.0
C      1  0.4447720000000  0.4738050000000  0.3979760000000 1.0
C      1  0.5332190000000  0.4497650000000  0.6063020000000 1.0
C      1  0.5041860000000  0.4586270000000  0.6102400000000 1.0
C      1  0.4716190000000  0.6177600000000  0.5290830000000 1.0
C      1  0.6156580000000  0.5305220000000  0.4637870000000 1.0
C      1  0.4691330000000  0.4602460000000  0.3799750000000 1.0
C      1  0.4741410000000  0.5458830000000  0.6233610000000 1.0
C      1  0.5212040000000  0.5419150000000  0.3863870000000 1.0
C      1  0.5583400000000  0.6146180000000  0.4714450000000 1.0
C      1  0.5399590000000  0.3809760000000  0.5119200000000 1.0
C      1  0.4600940000000  0.3913440000000  0.4804300000000 1.0
C      1  0.3887470000000  0.5210610000000  0.5517190000000 1.0
C      1  0.3954180000000  0.4766850000000  0.4452790000000 1.0
C      1  0.6098020000000  0.4654070000000  0.5471650000000 1.0
C      1  0.5124860000000  0.5400810000000  0.4192010000000 1.0
C      1  0.4211410000000  0.5170900000000  0.5421730000000 1.0
C      1  0.5536420000000  0.4111690000000  0.5060320000000 1.0
C      1  0.4890150000000  0.5549880000000  0.5946280000000 1.0
C      1  0.5027830000000  0.4416380000000  0.5819950000000 1.0
C      1  0.4930240000000  0.4569510000000  0.4038770000000 1.0
C      1  0.5788610000000  0.5103430000000  0.4522020000000 1.0
C      1  0.4238520000000  0.4807550000000  0.4634790000000 1.0
C      1  0.5916530000000  0.4920320000000  0.5566190000000 1.0
C      1  0.4572900000000  0.4227560000000  0.4931570000000 1.0
C      1  0.5569070000000  0.5819800000000  0.4808920000000 1.0
C      1  0.4593920000000  0.5788770000000  0.5083630000000 1.0
C      1  0.4094740000000  0.5477780000000  0.5005460000000 1.0
C      1  0.5425650000000  0.5038650000000  0.4065870000000 1.0
C      1  0.5122220000000  0.4307910000000  0.5447870000000 1.0
C      1  0.5948840000000  0.5448040000000  0.4947940000000 1.0
C      1  0.5809600000000  0.4570300000000  0.5124410000000 1.0
C      1  0.4158110000000  0.4483810000000  0.4945930000000 1.0
C      1  0.4497540000000  0.5130550000000  0.5931850000000 1.0
C      1  0.4581390000000  0.4819330000000  0.4266270000000 1.0
C      1  0.5374260000000  0.4874370000000  0.5777770000000 1.0
C      1  0.4883150000000  0.4232960000000  0.4503190000000 1.0
C      1  0.5024130000000  0.5850390000000  0.5443270000000 1.0
C      1  0.5035580000000  0.5964240000000  0.4444430000000 1.0
C      1  0.4621770000000  0.5503110000000  0.4150010000000 1.0
C      1  0.4094980000000  0.4668150000000  0.5533860000000 1.0
C      1  0.5543250000000  0.4192480000000  0.4590230000000 1.0
C      1  0.5383000000000  0.5557000000000  0.6080060000000 1.0
C      1  0.4545470000000  0.4407000000000  0.5872140000000 1.0
C      1  0.5365560000000  0.4522580000000  0.4030510000000 1.0
C      1  0.5864580000000  0.4564730000000  0.4480080000000 1.0
C      1  0.4052820000000  0.5250970000000  0.4433240000000 1.0
C      1  0.5884730000000  0.5353630000000  0.5609390000000 1.0
C      1  0.4485360000000  0.3925220000000  0.5401750000000 1.0
C      1  0.5590440000000  0.5967550000000  0.5376520000000 1.0
C      1  0.4394010000000  0.5919320000000  0.4620830000000 1.0
C      1  0.4113580000000  0.5501300000000  0.4541080000000 1.0
C      1  0.5615150000000  0.4598770000000  0.4111190000000 1.0
C      1  0.4694680000000  0.3962000000000  0.5592690000000 1.0
C      1  0.5891240000000  0.5544800000000  0.5448620000000 1.0
C      1  0.5939610000000  0.4460960000000  0.4721250000000 1.0
C      1  0.4055710000000  0.4424440000000  0.5424710000000 1.0
C      1  0.4487800000000  0.4646080000000  0.5885820000000 1.0
C      1  0.4453660000000  0.5316790000000  0.4159870000000 1.0
C      1  0.5515410000000  0.5320560000000  0.6014130000000 1.0
C      1  0.5378000000000  0.4180690000000  0.4377640000000 1.0
C      1  0.5474630000000  0.5907250000000  0.5616310000000 1.0
C      1  0.4587640000000  0.5914350000000  0.4422040000000 1.0
C      1  0.5083360000000  0.6029790000000  0.5160080000000 1.0
C      1  0.5210590000000  0.5024140000000  0.6026700000000 1.0
C      1  0.6068820000000  0.5177300000000  0.5014650000000 1.0
C      1  0.5049400000000  0.6068250000000  0.4767890000000 1.0
C      1  0.4983620000000  0.3998120000000  0.4727730000000 1.0
C      1  0.5098000000000  0.4035810000000  0.5245150000000 1.0
C      1  0.4720560000000  0.4954130000000  0.3986860000000 1.0
C      1  0.5202170000000  0.5023270000000  0.3812130000000 1.0
C      1  0.4729350000000  0.5039950000000  0.6132330000000 1.0
C      1  0.3930440000000  0.5182040000000  0.4971360000000 1.0
C      1  0.6039870000000  0.4784090000000  0.4993770000000 1.0
C      1  0.3987520000000  0.4773710000000  0.4997420000000 1.0
C      1  0.5335830000000  0.6036200000000  0.4929360000000 1.0
C      1  0.6091790000000  0.4963450000000  0.5278040000000 1.0
C      1  0.4980010000000  0.5256390000000  0.6092630000000 1.0
C      1  0.4790680000000  0.6050530000000  0.4988020000000 1.0
C      1  0.4843080000000  0.4040850000000  0.5020170000000 1.0
C      1  0.5230820000000  0.4040900000000  0.4929020000000 1.0
C      1  0.3953430000000  0.4970220000000  0.4725310000000 1.0
C      1  0.3970650000000  0.5008670000000  0.5244520000000 1.0
C      1  0.6036420000000  0.5004410000000  0.4733520000000 1.0
C      1  0.4969200000000  0.5188090000000  0.3977020000000 1.0
C      1  0.4979310000000  0.4858670000000  0.6125820000000 1.0
C      1  0.4965540000000  0.4814960000000  0.3818370000000 1.0
C      1  0.4950400000000  0.4753350000000  0.4499760000000 1.0
C      1  0.4575720000000  0.5033000000000  0.4823830000000 1.0
C      1  0.4838490000000  0.4670080000000  0.5100610000000 1.0
C      1  0.4988950000000  0.4858920000000  0.5527580000000 1.0
C      1  0.4947180000000  0.5368290000000  0.5594600000000 1.0
C      1  0.4988760000000  0.5210540000000  0.4511330000000 1.0
C      1  0.5619030000000  0.4917190000000  0.5311900000000 1.0
C      1  0.4468790000000  0.4964370000000  0.5202680000000 1.0
C      1  0.5496100000000  0.5140930000000  0.4926940000000 1.0
C      1  0.5234340000000  0.4432670000000  0.5034020000000 1.0
C      1  0.4838970000000  0.5488820000000  0.4876890000000 1.0
C      1  0.5295760000000  0.5610450000000  0.5004490000000 1.0
C      1  0.4581250000000  0.4760030000000  0.5011440000000 1.0
C      1  0.4775080000000  0.5014830000000  0.4549010000000 1.0
C      1  0.5021070000000  0.4591250000000  0.4855590000000 1.0
C      1  0.5599590000000  0.4912270000000  0.5028450000000 1.0
C      1  0.5470650000000  0.5386960000000  0.5123270000000 1.0
C      1  0.4466490000000  0.5267870000000  0.5044140000000 1.0
C      1  0.5145100000000  0.5142060000000  0.5490110000000 1.0
C      1  0.5278570000000  0.5027200000000  0.4523450000000 1.0
C      1  0.4771330000000  0.5078420000000  0.5623710000000 1.0
C      1  0.4933220000000  0.4391520000000  0.5189820000000 1.0
C      1  0.5112400000000  0.5600630000000  0.4717620000000 1.0
C      1  0.5012390000000  0.5590010000000  0.5102370000000 1.0
C      1  0.4371010000000  0.5430710000000  0.5845780000000 1.0
C      1  0.5778830000000  0.4411960000000  0.5389510000000 1.0
C      1  0.5330990000000  0.5856790000000  0.4314870000000 1.0
C      1  0.5525130000000  0.5361480000000  0.4104570000000 1.0
C      1  0.4340340000000  0.4509590000000  0.4207960000000 1.0
C      1  0.5554560000000  0.4589310000000  0.5822690000000 1.0
C      1  0.4151060000000  0.4306970000000  0.4655340000000 1.0
C      1  0.5821750000000  0.5618060000000  0.4441880000000 1.0
C      1  0.4170290000000  0.5557340000000  0.5327400000000 1.0
C      1  0.4554730000000  0.5829510000000  0.5582520000000 1.0
C      1  0.5385100000000  0.4119600000000  0.5531970000000 1.0
C      1  0.4595750000000  0.4193320000000  0.4325650000000 1.0
C      1  0.5736080000000  0.5375490000000  0.4324780000000 1.0
C      1  0.5349870000000  0.4315630000000  0.5776380000000 1.0
C      1  0.4394180000000  0.5768150000000  0.5350450000000 1.0
C      1  0.4143590000000  0.5423270000000  0.5639260000000 1.0
C      1  0.4156120000000  0.4501450000000  0.4392350000000 1.0
C      1  0.5802770000000  0.4608220000000  0.5638980000000 1.0
C      1  0.4638360000000  0.4403600000000  0.4081750000000 1.0
C      1  0.4601200000000  0.5646270000000  0.5794620000000 1.0
C      1  0.5339840000000  0.5647080000000  0.4098390000000 1.0
C      1  0.5615020000000  0.5869870000000  0.4475740000000 1.0
C      1  0.5609010000000  0.4203320000000  0.5345330000000 1.0
C      1  0.4438240000000  0.4161410000000  0.4626280000000 1.0
C      1  0.4635170000000  0.5480090000000  0.5220910000000 1.0
C      1  0.5657620000000  0.5509810000000  0.4789490000000 1.0
C      1  0.4464930000000  0.4540410000000  0.4852390000000 1.0
C      1  0.5475050000000  0.4569940000000  0.5188170000000 1.0
C      1  0.5509440000000  0.5253050000000  0.4630000000000 1.0
C      1  0.5151130000000  0.4605070000000  0.5584730000000 1.0
C      1  0.4547410000000  0.5223010000000  0.5425600000000 1.0
C      1  0.5421170000000  0.4726450000000  0.5474900000000 1.0
C      1  0.4529180000000  0.4678380000000  0.4548320000000 1.0
C      1  0.4801020000000  0.4496290000000  0.4641540000000 1.0
C      1  0.5253200000000  0.5424270000000  0.4506050000000 1.0
C      1  0.4900280000000  0.5563570000000  0.5380340000000 1.0
C      1  0.4833700000000  0.5207860000000  0.4898690000000 1.0
C      1  0.4986340000000  0.4885740000000  0.5227290000000 1.0
C      1  0.5134380000000  0.4874760000000  0.4759270000000 1.0
C      1  0.5226820000000  0.5203490000000  0.5211680000000 1.0
C      1  0.5066230000000  0.5061970000000  0.4987230000000 1.0
END
