TITL C-2622966-9038-516 -0.00397140261019623 125000 -646.646279105563 0 0 115 (C1) n - 1
REM
REM in /nfs/bkarasulu/CARBON/AIRSS/Generating-Clusters/AIREBO/with-SteepDescent/Higher-Symm/SD-CG/HFTN-CG
REM
REM
REM
REM
REM
REM ./C.cell (b20cbc046b6831c77cfcea5457e17084)
REM
REM compiler GCC version 9.2.1 20190827 (Red Hat 9.2.1-1)
REM options -cpp -mtune=generic -march=x86-64 -g -O0 -fpre-include=/usr/include/finclude/math-vector-fortran.h
REM seed 1571574723 13304430 48647494 -1088731378 1830612803 1367737141 1230839830 357588006 2089784895 437616897 -1997202572 851651176 -1103538593 1603437460 1182557228 159872278 -588270809 -1550568019 2062947282 -1099649298 79206549 989627052 1298713096 1988686314 1400327671 1967943786 -396326797 -1829435143 -579532731 869026331 774480346 61475640 1563705227
REM
CELL 1.54180   50.00000   50.00000   50.00000   90.00000   90.00000   90.00000
LATT -1
SFAC C  
C      1  0.5367040000000  0.4064060000000  0.4851430000000 1.0
C      1  0.5365460000000  0.5351780000000  0.5821220000000 1.0
C      1  0.5440430000000  0.5579170000000  0.4495990000000 1.0
C      1  0.4693280000000  0.4214980000000  0.4973200000000 1.0
C      1  0.4723000000000  0.5398340000000  0.5814680000000 1.0
C      1  0.4656570000000  0.5501280000000  0.4240690000000 1.0
C      1  0.5168880000000  0.4985180000000  0.5275000000000 1.0
C      1  0.5251240000000  0.5306130000000  0.4972490000000 1.0
C      1  0.5116530000000  0.4812740000000  0.4899930000000 1.0
C      1  0.4642310000000  0.4689590000000  0.5178150000000 1.0
C      1  0.4779250000000  0.5179920000000  0.5077420000000 1.0
C      1  0.4861580000000  0.4968620000000  0.4737480000000 1.0
C      1  0.5476390000000  0.4465490000000  0.4591340000000 1.0
C      1  0.5416040000000  0.4839280000000  0.5750660000000 1.0
C      1  0.5504200000000  0.5754940000000  0.4770240000000 1.0
C      1  0.4437540000000  0.4305770000000  0.4569400000000 1.0
C      1  0.4455520000000  0.4968760000000  0.5881840000000 1.0
C      1  0.4437760000000  0.5722410000000  0.4593710000000 1.0
C      1  0.5874540000000  0.4467510000000  0.4560950000000 1.0
C      1  0.5884770000000  0.4836280000000  0.5473550000000 1.0
C      1  0.5919540000000  0.5467840000000  0.4844330000000 1.0
C      1  0.4169360000000  0.4425810000000  0.4673570000000 1.0
C      1  0.4306360000000  0.4975030000000  0.5637860000000 1.0
C      1  0.4170120000000  0.5563390000000  0.4659650000000 1.0
C      1  0.4567390000000  0.4798600000000  0.4722140000000 1.0
C      1  0.4574030000000  0.4966380000000  0.5342280000000 1.0
C      1  0.4529420000000  0.5283270000000  0.4896080000000 1.0
C      1  0.5422300000000  0.4866370000000  0.4965200000000 1.0
C      1  0.5495340000000  0.4923150000000  0.5282070000000 1.0
C      1  0.5574350000000  0.5350680000000  0.5059660000000 1.0
C      1  0.4678300000000  0.4201540000000  0.4488870000000 1.0
C      1  0.4733970000000  0.4956420000000  0.5937560000000 1.0
C      1  0.4671110000000  0.5849210000000  0.4534550000000 1.0
C      1  0.5293860000000  0.4270910000000  0.4517260000000 1.0
C      1  0.5283560000000  0.4926110000000  0.5999260000000 1.0
C      1  0.5311320000000  0.5892890000000  0.4519160000000 1.0
C      1  0.4174410000000  0.5303280000000  0.4543050000000 1.0
C      1  0.4172730000000  0.4399280000000  0.4949710000000 1.0
C      1  0.4304690000000  0.5219410000000  0.5490770000000 1.0
C      1  0.5813120000000  0.5264340000000  0.4690410000000 1.0
C      1  0.5796750000000  0.4419200000000  0.4823210000000 1.0
C      1  0.5893790000000  0.5081650000000  0.5410210000000 1.0
C      1  0.4759610000000  0.5231340000000  0.4371750000000 1.0
C      1  0.4913040000000  0.4389780000000  0.5132120000000 1.0
C      1  0.4755330000000  0.5488680000000  0.5488440000000 1.0
C      1  0.5248040000000  0.5158810000000  0.4427320000000 1.0
C      1  0.5242000000000  0.4289410000000  0.5156010000000 1.0
C      1  0.5261150000000  0.5535450000000  0.5400810000000 1.0
C      1  0.5335640000000  0.4463650000000  0.4046670000000 1.0
C      1  0.5320520000000  0.4454950000000  0.5888760000000 1.0
C      1  0.5286800000000  0.5955440000000  0.5088650000000 1.0
C      1  0.4724600000000  0.4578060000000  0.4176140000000 1.0
C      1  0.4747350000000  0.4474720000000  0.5694430000000 1.0
C      1  0.4615860000000  0.6011750000000  0.5001940000000 1.0
C      1  0.5600200000000  0.4705740000000  0.5512790000000 1.0
C      1  0.5698200000000  0.5650010000000  0.4986540000000 1.0
C      1  0.5651230000000  0.4582330000000  0.4376440000000 1.0
C      1  0.4370060000000  0.4716990000000  0.5467460000000 1.0
C      1  0.4403610000000  0.5582890000000  0.4890110000000 1.0
C      1  0.4396450000000  0.4626770000000  0.4533310000000 1.0
C      1  0.4861850000000  0.4838210000000  0.4455340000000 1.0
C      1  0.4937760000000  0.4928950000000  0.5595480000000 1.0
C      1  0.4800750000000  0.5604940000000  0.4856370000000 1.0
C      1  0.5074960000000  0.4595580000000  0.4444250000000 1.0
C      1  0.5206840000000  0.4777990000000  0.5515740000000 1.0
C      1  0.5192140000000  0.5671260000000  0.4827960000000 1.0
C      1  0.4982670000000  0.4039110000000  0.5470350000000 1.0
C      1  0.4899110000000  0.5758600000000  0.5621350000000 1.0
C      1  0.4942150000000  0.5108680000000  0.4174830000000 1.0
C      1  0.5176310000000  0.4007210000000  0.5302630000000 1.0
C      1  0.5134000000000  0.5795820000000  0.5531930000000 1.0
C      1  0.5189410000000  0.5250940000000  0.4108380000000 1.0
C      1  0.5230390000000  0.4862490000000  0.4302070000000 1.0
C      1  0.5185490000000  0.4478210000000  0.5412200000000 1.0
C      1  0.5098220000000  0.5686740000000  0.5148830000000 1.0
C      1  0.4941140000000  0.4797040000000  0.4127290000000 1.0
C      1  0.4893450000000  0.4345310000000  0.5469250000000 1.0
C      1  0.4790120000000  0.5608270000000  0.5197010000000 1.0
C      1  0.4887540000000  0.4704350000000  0.5829390000000 1.0
C      1  0.4835480000000  0.5934840000000  0.4781340000000 1.0
C      1  0.4819920000000  0.4336500000000  0.4278240000000 1.0
C      1  0.5145190000000  0.4659890000000  0.5982660000000 1.0
C      1  0.5137380000000  0.6006010000000  0.4788550000000 1.0
C      1  0.5134200000000  0.4323360000000  0.4249350000000 1.0
C      1  0.4340870000000  0.4555620000000  0.5189640000000 1.0
C      1  0.4378540000000  0.5182410000000  0.5184310000000 1.0
C      1  0.4420980000000  0.5091330000000  0.4642620000000 1.0
C      1  0.5527150000000  0.4605300000000  0.4881340000000 1.0
C      1  0.5619660000000  0.5231090000000  0.5350000000000 1.0
C      1  0.5558550000000  0.5102630000000  0.4828870000000 1.0
C      1  0.4807640000000  0.5302480000000  0.4700930000000 1.0
C      1  0.4782110000000  0.4596830000000  0.4895590000000 1.0
C      1  0.4839030000000  0.5168000000000  0.5411940000000 1.0
C      1  0.5136250000000  0.5380320000000  0.4661030000000 1.0
C      1  0.5071720000000  0.4514460000000  0.4743150000000 1.0
C      1  0.5111560000000  0.5302490000000  0.5258900000000 1.0
C      1  0.4819360000000  0.5706220000000  0.4350010000000 1.0
C      1  0.4807900000000  0.4120730000000  0.4731430000000 1.0
C      1  0.4880450000000  0.5200350000000  0.5932540000000 1.0
C      1  0.5104340000000  0.5635550000000  0.4438310000000 1.0
C      1  0.5094460000000  0.4183240000000  0.4743240000000 1.0
C      1  0.5175670000000  0.5191860000000  0.5971000000000 1.0
C      1  0.4475450000000  0.4502180000000  0.5667270000000 1.0
C      1  0.4527150000000  0.5759610000000  0.5100430000000 1.0
C      1  0.4471970000000  0.4656690000000  0.4235960000000 1.0
C      1  0.5415240000000  0.4458970000000  0.5631820000000 1.0
C      1  0.5559230000000  0.5913830000000  0.5131840000000 1.0
C      1  0.5465460000000  0.4676440000000  0.4179900000000 1.0
C      1  0.4434150000000  0.5263840000000  0.4346520000000 1.0
C      1  0.4435690000000  0.4255650000000  0.5060730000000 1.0
C      1  0.4441580000000  0.5425580000000  0.5625690000000 1.0
C      1  0.5506980000000  0.5284460000000  0.4545850000000 1.0
C      1  0.5529650000000  0.4296350000000  0.4998370000000 1.0
C      1  0.5461670000000  0.5395910000000  0.5569350000000 1.0
C      1  0.4903540000000  0.4895570000000  0.5127340000000 1.0
END
