TITL C-2622958-629-178 -8.08049883821217e-05 125000 -541.641545970937 0 0 107 (C1) n - 1
REM
REM in /nfs/bkarasulu/CARBON/AIRSS/Generating-Clusters/AIREBO/with-SteepDescent/Higher-Symm/SD-CG/HFTN-CG
REM
REM
REM
REM
REM
REM ./C.cell (b20cbc046b6831c77cfcea5457e17084)
REM
REM compiler GCC version 9.2.1 20190827 (Red Hat 9.2.1-1)
REM options -cpp -mtune=generic -march=x86-64 -g -O0 -fpre-include=/usr/include/finclude/math-vector-fortran.h
REM seed 1177099869 692383695 127258496 1875321902 -814331672 -1468891415 -867709034 307353465 655100055 245550423 1102493617 -943930339 -49573449 -1058311424 325305713 1370669561 -364339891 1409934584 -1655343540 -1413385892 1404881004 675581157 -74537526 529817052 593847756 482177424 -1065446290 -2088597404 -1892302629 -1521349052 1825503823 1637071977 -1721232126
REM
CELL 1.54180   50.00000   50.00000   50.00000   90.00000   90.00000   90.00000
LATT -1
SFAC C  
C      1  0.5266430000000  0.5563310000000  0.4327060000000 1.0
C      1  0.5619490000000  0.5199900000000  0.4357770000000 1.0
C      1  0.5483120000000  0.4716660000000  0.4328720000000 1.0
C      1  0.5010140000000  0.4391010000000  0.4349070000000 1.0
C      1  0.4504120000000  0.4607320000000  0.4407220000000 1.0
C      1  0.4466460000000  0.5112360000000  0.4382580000000 1.0
C      1  0.4741830000000  0.5594630000000  0.4435850000000 1.0
C      1  0.5090910000000  0.4633170000000  0.5780530000000 1.0
C      1  0.4753070000000  0.4672890000000  0.5819710000000 1.0
C      1  0.4610780000000  0.4980220000000  0.5779630000000 1.0
C      1  0.4714270000000  0.5304820000000  0.5793020000000 1.0
C      1  0.5043660000000  0.5396310000000  0.5797430000000 1.0
C      1  0.5329420000000  0.5208330000000  0.5818810000000 1.0
C      1  0.5336260000000  0.4869500000000  0.5778840000000 1.0
C      1  0.5346570000000  0.5214000000000  0.4539070000000 1.0
C      1  0.5271160000000  0.4882290000000  0.4536690000000 1.0
C      1  0.5130970000000  0.4580280000000  0.4605970000000 1.0
C      1  0.4801050000000  0.4653690000000  0.4564370000000 1.0
C      1  0.4752120000000  0.4984230000000  0.4469640000000 1.0
C      1  0.4756840000000  0.5291080000000  0.4593110000000 1.0
C      1  0.5072480000000  0.5414260000000  0.4563470000000 1.0
C      1  0.4188410000000  0.4727590000000  0.5436330000000 1.0
C      1  0.4390830000000  0.5364220000000  0.5305550000000 1.0
C      1  0.4846390000000  0.5739810000000  0.5383290000000 1.0
C      1  0.5484260000000  0.5542860000000  0.5306440000000 1.0
C      1  0.5755340000000  0.4945220000000  0.5353630000000 1.0
C      1  0.5422620000000  0.4448420000000  0.5333130000000 1.0
C      1  0.4753780000000  0.4275840000000  0.5363700000000 1.0
C      1  0.5525370000000  0.4414020000000  0.4450620000000 1.0
C      1  0.4777490000000  0.4172360000000  0.4468660000000 1.0
C      1  0.4238230000000  0.4684090000000  0.4605060000000 1.0
C      1  0.4299630000000  0.5330580000000  0.4569170000000 1.0
C      1  0.4917490000000  0.5865170000000  0.4562620000000 1.0
C      1  0.5553610000000  0.5691440000000  0.4461860000000 1.0
C      1  0.5816840000000  0.5038470000000  0.4571650000000 1.0
C      1  0.4402020000000  0.5767430000000  0.4961310000000 1.0
C      1  0.5092010000000  0.5921470000000  0.4785850000000 1.0
C      1  0.5710590000000  0.5626600000000  0.4728200000000 1.0
C      1  0.5889160000000  0.4581530000000  0.4996270000000 1.0
C      1  0.5280400000000  0.4143940000000  0.4897860000000 1.0
C      1  0.4591870000000  0.4163090000000  0.4720660000000 1.0
C      1  0.4020930000000  0.4828360000000  0.4793690000000 1.0
C      1  0.4662690000000  0.5775840000000  0.4911070000000 1.0
C      1  0.5344370000000  0.5796590000000  0.4782890000000 1.0
C      1  0.5769280000000  0.5316630000000  0.4855040000000 1.0
C      1  0.5688490000000  0.4403400000000  0.4927930000000 1.0
C      1  0.5017830000000  0.4128070000000  0.4850730000000 1.0
C      1  0.4370910000000  0.4307470000000  0.4929920000000 1.0
C      1  0.4154510000000  0.5073680000000  0.4959230000000 1.0
C      1  0.4655120000000  0.5285250000000  0.4918760000000 1.0
C      1  0.4991990000000  0.5270140000000  0.4963970000000 1.0
C      1  0.5329620000000  0.5231470000000  0.4976780000000 1.0
C      1  0.5367030000000  0.4915510000000  0.4861420000000 1.0
C      1  0.5209600000000  0.4522830000000  0.5004040000000 1.0
C      1  0.4836910000000  0.4689680000000  0.4973180000000 1.0
C      1  0.4555370000000  0.4785190000000  0.5024930000000 1.0
C      1  0.4757610000000  0.5489600000000  0.5170640000000 1.0
C      1  0.5179610000000  0.5459130000000  0.5179970000000 1.0
C      1  0.5493770000000  0.5108790000000  0.5240190000000 1.0
C      1  0.5391850000000  0.4733270000000  0.5147620000000 1.0
C      1  0.4957250000000  0.4483960000000  0.5177740000000 1.0
C      1  0.4464290000000  0.4654490000000  0.5290810000000 1.0
C      1  0.4535020000000  0.5069100000000  0.5143100000000 1.0
C      1  0.4825120000000  0.4402140000000  0.4792130000000 1.0
C      1  0.4321300000000  0.4596500000000  0.4904150000000 1.0
C      1  0.4320110000000  0.5298270000000  0.4861560000000 1.0
C      1  0.4920650000000  0.5567020000000  0.4826900000000 1.0
C      1  0.5413380000000  0.5464430000000  0.4759330000000 1.0
C      1  0.5696960000000  0.5000440000000  0.4858440000000 1.0
C      1  0.5399570000000  0.4421070000000  0.4741010000000 1.0
C      1  0.5355250000000  0.5763560000000  0.5513900000000 1.0
C      1  0.5799900000000  0.5208420000000  0.5540590000000 1.0
C      1  0.5672020000000  0.4471410000000  0.5557560000000 1.0
C      1  0.4996230000000  0.4162520000000  0.5507780000000 1.0
C      1  0.4298550000000  0.4454130000000  0.5594020000000 1.0
C      1  0.4208440000000  0.5236870000000  0.5525650000000 1.0
C      1  0.4600120000000  0.5776950000000  0.5546910000000 1.0
C      1  0.4590020000000  0.4441930000000  0.5611570000000 1.0
C      1  0.4315250000000  0.4971360000000  0.5598000000000 1.0
C      1  0.4500300000000  0.5500350000000  0.5597600000000 1.0
C      1  0.5090220000000  0.5672420000000  0.5592550000000 1.0
C      1  0.5546270000000  0.5346950000000  0.5578790000000 1.0
C      1  0.5598800000000  0.4761540000000  0.5579030000000 1.0
C      1  0.5193700000000  0.4372820000000  0.5573260000000 1.0
C      1  0.4759410000000  0.5330980000000  0.5456920000000 1.0
C      1  0.5073610000000  0.5359450000000  0.5460680000000 1.0
C      1  0.5292460000000  0.5139680000000  0.5487850000000 1.0
C      1  0.5288370000000  0.4807120000000  0.5447860000000 1.0
C      1  0.5014460000000  0.4633760000000  0.5449110000000 1.0
C      1  0.4718200000000  0.4730990000000  0.5486500000000 1.0
C      1  0.4609620000000  0.5049750000000  0.5446630000000 1.0
C      1  0.5010810000000  0.5723300000000  0.4297050000000 1.0
C      1  0.5564740000000  0.5463640000000  0.4236800000000 1.0
C      1  0.5712520000000  0.4893860000000  0.4299160000000 1.0
C      1  0.5288940000000  0.4453330000000  0.4233630000000 1.0
C      1  0.4688480000000  0.4406280000000  0.4271320000000 1.0
C      1  0.4316630000000  0.4860050000000  0.4335130000000 1.0
C      1  0.4491230000000  0.5445820000000  0.4338590000000 1.0
C      1  0.5834180000000  0.4837070000000  0.5071720000000 1.0
C      1  0.5489500000000  0.4252960000000  0.5092100000000 1.0
C      1  0.4675700000000  0.4236860000000  0.5049130000000 1.0
C      1  0.4125240000000  0.4774380000000  0.5117880000000 1.0
C      1  0.4307170000000  0.5534310000000  0.5063550000000 1.0
C      1  0.4949180000000  0.5803950000000  0.5069210000000 1.0
C      1  0.5664340000000  0.5552120000000  0.5057860000000 1.0
C      1  0.5043610000000  0.4876180000000  0.4918940000000 1.0
C      1  0.5021510000000  0.4939670000000  0.4350450000000 1.0
END
