TITL C-2622958-629-264 0.000536793472049639 125000 -227.941866922258 0 0 45 (C1) n - 1
REM
REM in /nfs/bkarasulu/CARBON/AIRSS/Generating-Clusters/AIREBO/with-SteepDescent/Higher-Symm/SD-CG/HFTN-CG
REM
REM
REM
REM
REM
REM ./C.cell (b20cbc046b6831c77cfcea5457e17084)
REM
REM compiler GCC version 9.2.1 20190827 (Red Hat 9.2.1-1)
REM options -cpp -mtune=generic -march=x86-64 -g -O0 -fpre-include=/usr/include/finclude/math-vector-fortran.h
REM seed -1696087477 1795018378 -2113827526 931246834 529809183 922174152 -937183502 1241852654 -911750767 676884850 -429311564 -1029301445 2146876519 -354387820 -241153558 1736279330 -1452108181 -448492937 2092191891 1005291058 537062766 943413277 -6997660 -60809559 2055804723 938827336 1843255093 1095564450 -820221644 2009231557 -1789982965 2005943365 -1720545088
REM
CELL 1.54180   50.00000   50.00000   50.00000   90.00000   90.00000   90.00000
LATT -1
SFAC C  
C      1  0.5043120000000  0.5423160000000  0.4776330000000 1.0
C      1  0.5334940000000  0.4814350000000  0.5323740000000 1.0
C      1  0.5019790000000  0.4649500000000  0.4689330000000 1.0
C      1  0.4492670000000  0.4933380000000  0.5322920000000 1.0
C      1  0.5043840000000  0.5348880000000  0.5456540000000 1.0
C      1  0.5314160000000  0.5332210000000  0.4501140000000 1.0
C      1  0.5059370000000  0.4456300000000  0.5562760000000 1.0
C      1  0.4601440000000  0.4900420000000  0.4501190000000 1.0
C      1  0.5106970000000  0.4864250000000  0.4233010000000 1.0
C      1  0.4894670000000  0.4932330000000  0.5616630000000 1.0
C      1  0.4864630000000  0.5036510000000  0.4334420000000 1.0
C      1  0.4959910000000  0.5191970000000  0.5665090000000 1.0
C      1  0.5117140000000  0.5571540000000  0.5139200000000 1.0
C      1  0.5506640000000  0.5014220000000  0.4877950000000 1.0
C      1  0.4913790000000  0.4463390000000  0.5179670000000 1.0
C      1  0.4284590000000  0.5010340000000  0.4875440000000 1.0
C      1  0.5593870000000  0.5496130000000  0.4892370000000 1.0
C      1  0.5303450000000  0.4485600000000  0.5099400000000 1.0
C      1  0.4585500000000  0.4639130000000  0.4942140000000 1.0
C      1  0.4627180000000  0.5382170000000  0.5123710000000 1.0
C      1  0.4701280000000  0.5304910000000  0.4459090000000 1.0
C      1  0.5519520000000  0.5327560000000  0.5361730000000 1.0
C      1  0.5230330000000  0.4720100000000  0.4431460000000 1.0
C      1  0.4654070000000  0.4770770000000  0.5547550000000 1.0
C      1  0.5242750000000  0.5152400000000  0.4783300000000 1.0
C      1  0.5007700000000  0.4731860000000  0.5366280000000 1.0
C      1  0.4891290000000  0.4963660000000  0.4667050000000 1.0
C      1  0.4934600000000  0.5285100000000  0.5154540000000 1.0
C      1  0.4830240000000  0.5616780000000  0.4962390000000 1.0
C      1  0.5508840000000  0.5027930000000  0.5198410000000 1.0
C      1  0.5040750000000  0.4400370000000  0.4922270000000 1.0
C      1  0.4381390000000  0.4821820000000  0.5052970000000 1.0
C      1  0.5298420000000  0.5495310000000  0.5387610000000 1.0
C      1  0.5390180000000  0.4798150000000  0.4670900000000 1.0
C      1  0.4751750000000  0.4499240000000  0.5567200000000 1.0
C      1  0.4473700000000  0.5125810000000  0.4692540000000 1.0
C      1  0.5324670000000  0.4492750000000  0.5398130000000 1.0
C      1  0.4680840000000  0.4625610000000  0.4677160000000 1.0
C      1  0.4457280000000  0.5244510000000  0.5300990000000 1.0
C      1  0.5363920000000  0.5528730000000  0.4736700000000 1.0
C      1  0.4769220000000  0.4833940000000  0.5146450000000 1.0
C      1  0.4713020000000  0.5343840000000  0.4796720000000 1.0
C      1  0.5662820000000  0.5310990000000  0.5089590000000 1.0
C      1  0.5211770000000  0.4758860000000  0.4947820000000 1.0
C      1  0.4997050000000  0.5024060000000  0.4980420000000 1.0
END
