TITL C-2622964-2985-776 -0.000696962751777552 125000 -322.832394982835 0 0 58 (C1) n - 1
REM
REM in /nfs/bkarasulu/CARBON/AIRSS/Generating-Clusters/AIREBO/with-SteepDescent/Higher-Symm/SD-CG/HFTN-CG
REM
REM
REM
REM
REM
REM ./C.cell (b20cbc046b6831c77cfcea5457e17084)
REM
REM compiler GCC version 9.2.1 20190827 (Red Hat 9.2.1-1)
REM options -cpp -mtune=generic -march=x86-64 -g -O0 -fpre-include=/usr/include/finclude/math-vector-fortran.h
REM seed -1193006868 -648791730 -374233888 -1001980420 -2012990424 604982855 1472900402 1944868704 -22808464 1198587344 2088468275 -650819181 -564139413 373996597 1756876302 298916256 -1563608309 1722715008 1481532666 -78314723 -714383822 597291510 -569395611 240201240 -1722108559 -1838597421 460052345 1282309036 -1033698364 -1850233174 -1827563803 1135652154 -1251606518
REM
CELL 1.54180   50.00000   50.00000   50.00000   90.00000   90.00000   90.00000
LATT -1
SFAC C  
C      1  0.4627490000000  0.4790610000000  0.5174460000000 1.0
C      1  0.5220570000000  0.5115610000000  0.4344770000000 1.0
C      1  0.5322760000000  0.4887370000000  0.5677050000000 1.0
C      1  0.4296150000000  0.4951850000000  0.5329770000000 1.0
C      1  0.4691060000000  0.5250610000000  0.4424540000000 1.0
C      1  0.4861670000000  0.4545590000000  0.5145240000000 1.0
C      1  0.4543500000000  0.5687210000000  0.4812260000000 1.0
C      1  0.4802590000000  0.4786760000000  0.4567160000000 1.0
C      1  0.5263290000000  0.4893270000000  0.5145230000000 1.0
C      1  0.5661580000000  0.4693550000000  0.5180630000000 1.0
C      1  0.4287020000000  0.4340620000000  0.5338960000000 1.0
C      1  0.5443260000000  0.5296820000000  0.4219330000000 1.0
C      1  0.5093660000000  0.4953150000000  0.5850480000000 1.0
C      1  0.5694560000000  0.5247710000000  0.4335820000000 1.0
C      1  0.4864240000000  0.5448850000000  0.4312870000000 1.0
C      1  0.5761330000000  0.5032550000000  0.4496740000000 1.0
C      1  0.5177340000000  0.5692030000000  0.5108360000000 1.0
C      1  0.4262530000000  0.5308490000000  0.4649040000000 1.0
C      1  0.5260140000000  0.4241060000000  0.5449690000000 1.0
C      1  0.5359670000000  0.4479630000000  0.4608580000000 1.0
C      1  0.4397570000000  0.5136120000000  0.4459650000000 1.0
C      1  0.4390700000000  0.5455470000000  0.4864400000000 1.0
C      1  0.4863420000000  0.5690720000000  0.4456150000000 1.0
C      1  0.4592600000000  0.4413360000000  0.5289260000000 1.0
C      1  0.4649850000000  0.5356060000000  0.5339900000000 1.0
C      1  0.4574150000000  0.5018460000000  0.4940490000000 1.0
C      1  0.5425620000000  0.4770060000000  0.5415510000000 1.0
C      1  0.5767650000000  0.4776740000000  0.4952630000000 1.0
C      1  0.5233300000000  0.5056480000000  0.4611430000000 1.0
C      1  0.5043070000000  0.4713180000000  0.4680300000000 1.0
C      1  0.5494680000000  0.5364230000000  0.5186460000000 1.0
C      1  0.4931540000000  0.5503310000000  0.5228750000000 1.0
C      1  0.5244140000000  0.5192810000000  0.5568740000000 1.0
C      1  0.4812370000000  0.5667870000000  0.4729700000000 1.0
C      1  0.5110750000000  0.5368160000000  0.4201450000000 1.0
C      1  0.5355650000000  0.5166930000000  0.5039100000000 1.0
C      1  0.5440250000000  0.5632510000000  0.5115540000000 1.0
C      1  0.4385530000000  0.4664310000000  0.5382320000000 1.0
C      1  0.4846450000000  0.4855330000000  0.5397460000000 1.0
C      1  0.5118220000000  0.4651520000000  0.4985920000000 1.0
C      1  0.5449930000000  0.4460100000000  0.5303880000000 1.0
C      1  0.5204830000000  0.5245700000000  0.4816070000000 1.0
C      1  0.5667270000000  0.4865650000000  0.4702080000000 1.0
C      1  0.4936100000000  0.5326270000000  0.5514150000000 1.0
C      1  0.4715340000000  0.5052650000000  0.4684000000000 1.0
C      1  0.4957450000000  0.4254700000000  0.5293270000000 1.0
C      1  0.4928970000000  0.5176630000000  0.5811640000000 1.0
C      1  0.5005720000000  0.5503290000000  0.4896580000000 1.0
C      1  0.4504860000000  0.5297400000000  0.5063270000000 1.0
C      1  0.4404950000000  0.5170320000000  0.5450500000000 1.0
C      1  0.4268890000000  0.4976440000000  0.5055970000000 1.0
C      1  0.4494260000000  0.4840430000000  0.4433910000000 1.0
C      1  0.5498410000000  0.5321470000000  0.5464100000000 1.0
C      1  0.4766490000000  0.4057930000000  0.5339120000000 1.0
C      1  0.5080910000000  0.4981200000000  0.5376720000000 1.0
C      1  0.5377420000000  0.4772230000000  0.4660600000000 1.0
C      1  0.5332430000000  0.4425520000000  0.4990020000000 1.0
C      1  0.5233860000000  0.4175100000000  0.5127950000000 1.0
END
