TITL C-2622968-4806-466 0.000226095045516018 125000 -411.522688827475 0 0 72 (C1) n - 1
REM
REM in /nfs/bkarasulu/CARBON/AIRSS/Generating-Clusters/AIREBO/with-SteepDescent/Higher-Symm/SD-CG/HFTN-CG
REM
REM
REM
REM
REM
REM ./C.cell (b20cbc046b6831c77cfcea5457e17084)
REM
REM compiler GCC version 9.2.1 20190827 (Red Hat 9.2.1-1)
REM options -cpp -mtune=generic -march=x86-64 -g -O0 -fpre-include=/usr/include/finclude/math-vector-fortran.h
REM seed 279667126 1944900432 -668344576 -2001197980 118267881 -345595141 619436353 230199630 752789495 -1918430996 615708433 1531051140 -1743269496 -1378615844 -1282995984 375893862 -982620062 -716191881 -978240216 -883774631 -15721886 -222627310 -1027020865 -830611300 1135991110 -1681898932 -2057143124 -1019081771 -1104557635 690880140 1880285010 2134571447 2028414465
REM
CELL 1.54180   50.00000   50.00000   50.00000   90.00000   90.00000   90.00000
LATT -1
SFAC C  
C      1  0.4534580000000  0.4620130000000  0.4408770000000 1.0
C      1  0.5145750000000  0.4581550000000  0.4327650000000 1.0
C      1  0.5488160000000  0.4729680000000  0.4823710000000 1.0
C      1  0.5327210000000  0.4708290000000  0.5478760000000 1.0
C      1  0.4890510000000  0.4674390000000  0.5711580000000 1.0
C      1  0.4425020000000  0.4673130000000  0.5030550000000 1.0
C      1  0.4665110000000  0.4630740000000  0.5541490000000 1.0
C      1  0.5133280000000  0.4560350000000  0.5605520000000 1.0
C      1  0.5454520000000  0.4698160000000  0.5161270000000 1.0
C      1  0.5378310000000  0.4638550000000  0.4514660000000 1.0
C      1  0.4800820000000  0.4500850000000  0.4333680000000 1.0
C      1  0.4423470000000  0.4626120000000  0.4709150000000 1.0
C      1  0.5316530000000  0.4265160000000  0.4673490000000 1.0
C      1  0.5452310000000  0.4360140000000  0.5162630000000 1.0
C      1  0.5115210000000  0.4291800000000  0.5510880000000 1.0
C      1  0.4658260000000  0.4394250000000  0.5384550000000 1.0
C      1  0.4507870000000  0.4334240000000  0.4842620000000 1.0
C      1  0.4831430000000  0.4218380000000  0.4481370000000 1.0
C      1  0.5343380000000  0.4210380000000  0.5367200000000 1.0
C      1  0.5423040000000  0.4416370000000  0.4880360000000 1.0
C      1  0.5112510000000  0.4306230000000  0.4489210000000 1.0
C      1  0.4633900000000  0.4156440000000  0.4668030000000 1.0
C      1  0.4521260000000  0.4403250000000  0.5141910000000 1.0
C      1  0.4850850000000  0.4202430000000  0.5463320000000 1.0
C      1  0.4628160000000  0.5153200000000  0.5406040000000 1.0
C      1  0.4432910000000  0.5196050000000  0.4796490000000 1.0
C      1  0.4828640000000  0.5187460000000  0.4399660000000 1.0
C      1  0.5431020000000  0.5198620000000  0.4481660000000 1.0
C      1  0.5549760000000  0.5274280000000  0.5081920000000 1.0
C      1  0.5187600000000  0.5215700000000  0.5744190000000 1.0
C      1  0.4508650000000  0.5169360000000  0.4466050000000 1.0
C      1  0.4495420000000  0.5204770000000  0.5102320000000 1.0
C      1  0.4899580000000  0.5265620000000  0.5568510000000 1.0
C      1  0.5478290000000  0.5145880000000  0.5661530000000 1.0
C      1  0.5583060000000  0.5287300000000  0.4773110000000 1.0
C      1  0.5146020000000  0.5218030000000  0.4342110000000 1.0
C      1  0.5635730000000  0.5383930000000  0.5649350000000 1.0
C      1  0.4705290000000  0.5110180000000  0.5792370000000 1.0
C      1  0.4218480000000  0.5702590000000  0.5191910000000 1.0
C      1  0.4428210000000  0.5484180000000  0.4365940000000 1.0
C      1  0.5206130000000  0.5048500000000  0.4091030000000 1.0
C      1  0.5764610000000  0.5857230000000  0.4883610000000 1.0
C      1  0.5615660000000  0.5461900000000  0.4371170000000 1.0
C      1  0.4710320000000  0.4975870000000  0.4180840000000 1.0
C      1  0.4276290000000  0.5703870000000  0.4925790000000 1.0
C      1  0.4524870000000  0.5348300000000  0.5673400000000 1.0
C      1  0.5248010000000  0.5001450000000  0.6206710000000 1.0
C      1  0.5779490000000  0.5763450000000  0.5140230000000 1.0
C      1  0.4841430000000  0.4742290000000  0.4127120000000 1.0
C      1  0.5533360000000  0.4889170000000  0.4461350000000 1.0
C      1  0.5551890000000  0.5023090000000  0.5191300000000 1.0
C      1  0.5111850000000  0.5026760000000  0.5972740000000 1.0
C      1  0.4530760000000  0.4852340000000  0.5455940000000 1.0
C      1  0.4283320000000  0.4935970000000  0.4695020000000 1.0
C      1  0.4868180000000  0.4898830000000  0.5890700000000 1.0
C      1  0.5493450000000  0.4947440000000  0.5470690000000 1.0
C      1  0.5660610000000  0.4987840000000  0.4730080000000 1.0
C      1  0.5130350000000  0.4786570000000  0.4081640000000 1.0
C      1  0.4390650000000  0.4876520000000  0.4399760000000 1.0
C      1  0.4427870000000  0.4892720000000  0.5183160000000 1.0
C      1  0.5551190000000  0.5611980000000  0.4850850000000 1.0
C      1  0.5473390000000  0.5559690000000  0.5489760000000 1.0
C      1  0.4927130000000  0.5599150000000  0.5516460000000 1.0
C      1  0.4492960000000  0.5521520000000  0.5207230000000 1.0
C      1  0.4628930000000  0.5572180000000  0.4573020000000 1.0
C      1  0.5163110000000  0.5530140000000  0.4532340000000 1.0
C      1  0.5555640000000  0.5553400000000  0.5209620000000 1.0
C      1  0.5427040000000  0.5589590000000  0.4565730000000 1.0
C      1  0.4886540000000  0.5474350000000  0.4506080000000 1.0
C      1  0.4510990000000  0.5509110000000  0.4845710000000 1.0
C      1  0.4635400000000  0.5547150000000  0.5467370000000 1.0
C      1  0.5208430000000  0.5513510000000  0.5568030000000 1.0
END
