TITL C-2622963-3633-273 -0.000294282062759979 125000 -487.039409919236 0 0 86 (C1) n - 1
REM
REM in /nfs/bkarasulu/CARBON/AIRSS/Generating-Clusters/AIREBO/with-SteepDescent/Higher-Symm/SD-CG/HFTN-CG
REM
REM
REM
REM
REM
REM ./C.cell (b20cbc046b6831c77cfcea5457e17084)
REM
REM compiler GCC version 9.2.1 20190827 (Red Hat 9.2.1-1)
REM options -cpp -mtune=generic -march=x86-64 -g -O0 -fpre-include=/usr/include/finclude/math-vector-fortran.h
REM seed 1433579089 1556239165 -1119208129 1188336759 -1913555986 281820196 -790830950 -1877705038 -1065196416 -893700624 377423544 765804662 -1902167767 -1059710635 -1912415400 250444262 1693732229 992183852 105162584 -471846768 506495323 -1297416772 -1053180349 1052924193 1293975225 429691103 -1149544837 -1627270621 824154091 2070501722 -719532795 -694468296 1799800664
REM
CELL 1.54180   50.00000   50.00000   50.00000   90.00000   90.00000   90.00000
LATT -1
SFAC C  
C      1  0.5325350000000  0.5523940000000  0.4793570000000 1.0
C      1  0.5379210000000  0.5622580000000  0.5195510000000 1.0
C      1  0.4944110000000  0.5608680000000  0.5328580000000 1.0
C      1  0.4568430000000  0.5548580000000  0.4990270000000 1.0
C      1  0.4851550000000  0.5571510000000  0.4827240000000 1.0
C      1  0.4348480000000  0.4721690000000  0.5090910000000 1.0
C      1  0.4682790000000  0.4683100000000  0.4496340000000 1.0
C      1  0.5403050000000  0.4723530000000  0.4596530000000 1.0
C      1  0.5508560000000  0.4685580000000  0.5237270000000 1.0
C      1  0.4942400000000  0.4712350000000  0.5581510000000 1.0
C      1  0.5119790000000  0.5734510000000  0.5518580000000 1.0
C      1  0.4482730000000  0.5713560000000  0.5186320000000 1.0
C      1  0.4605630000000  0.5695730000000  0.4627680000000 1.0
C      1  0.5283320000000  0.5755740000000  0.4615770000000 1.0
C      1  0.5585460000000  0.5717170000000  0.5027100000000 1.0
C      1  0.5863260000000  0.5356620000000  0.5125950000000 1.0
C      1  0.5116410000000  0.5311470000000  0.5726220000000 1.0
C      1  0.4281560000000  0.5377150000000  0.5429480000000 1.0
C      1  0.4470940000000  0.5309930000000  0.4405960000000 1.0
C      1  0.5348840000000  0.5347860000000  0.4383470000000 1.0
C      1  0.5550190000000  0.4495250000000  0.4889430000000 1.0
C      1  0.5290500000000  0.4504090000000  0.5518690000000 1.0
C      1  0.4644670000000  0.4545150000000  0.5373790000000 1.0
C      1  0.4496520000000  0.4444180000000  0.4757330000000 1.0
C      1  0.5044950000000  0.4521920000000  0.4453940000000 1.0
C      1  0.5015650000000  0.4997410000000  0.5311540000000 1.0
C      1  0.4707940000000  0.4985090000000  0.5272040000000 1.0
C      1  0.4720690000000  0.5014250000000  0.4715390000000 1.0
C      1  0.5054560000000  0.5037840000000  0.4781970000000 1.0
C      1  0.5147810000000  0.5157340000000  0.5068570000000 1.0
C      1  0.4729000000000  0.4965920000000  0.5609340000000 1.0
C      1  0.4426930000000  0.4984150000000  0.4888010000000 1.0
C      1  0.4847470000000  0.4959820000000  0.4404550000000 1.0
C      1  0.5561520000000  0.4999010000000  0.4719280000000 1.0
C      1  0.5406800000000  0.5010410000000  0.5239810000000 1.0
C      1  0.5459440000000  0.4665850000000  0.5701030000000 1.0
C      1  0.4422700000000  0.4584060000000  0.5526410000000 1.0
C      1  0.4296150000000  0.4539760000000  0.4600800000000 1.0
C      1  0.5188610000000  0.4603270000000  0.4216950000000 1.0
C      1  0.5790200000000  0.4610400000000  0.4938830000000 1.0
C      1  0.5625770000000  0.5240760000000  0.5339920000000 1.0
C      1  0.4832150000000  0.5269070000000  0.5647540000000 1.0
C      1  0.4229380000000  0.5219950000000  0.5152140000000 1.0
C      1  0.4761500000000  0.5266460000000  0.4396600000000 1.0
C      1  0.5636710000000  0.5409430000000  0.4382040000000 1.0
C      1  0.4221750000000  0.4844230000000  0.4656020000000 1.0
C      1  0.5129120000000  0.4901980000000  0.4367180000000 1.0
C      1  0.5796020000000  0.4903840000000  0.4881260000000 1.0
C      1  0.5469240000000  0.4938990000000  0.5566370000000 1.0
C      1  0.4396630000000  0.4890620000000  0.5631010000000 1.0
C      1  0.4913180000000  0.5473100000000  0.4509390000000 1.0
C      1  0.5580090000000  0.5337330000000  0.4708170000000 1.0
C      1  0.5463550000000  0.5477990000000  0.5427200000000 1.0
C      1  0.4735790000000  0.5477940000000  0.5481900000000 1.0
C      1  0.4372100000000  0.5319900000000  0.4893230000000 1.0
C      1  0.5113900000000  0.4682540000000  0.5289340000000 1.0
C      1  0.4678190000000  0.4727860000000  0.5102310000000 1.0
C      1  0.4772460000000  0.4632630000000  0.4820440000000 1.0
C      1  0.5091500000000  0.4711440000000  0.4732400000000 1.0
C      1  0.5265000000000  0.4640930000000  0.5004180000000 1.0
C      1  0.5441590000000  0.4796500000000  0.4266680000000 1.0
C      1  0.5831840000000  0.4725310000000  0.5232430000000 1.0
C      1  0.5179780000000  0.4778820000000  0.5786960000000 1.0
C      1  0.4208040000000  0.4759300000000  0.5372970000000 1.0
C      1  0.4389650000000  0.4719530000000  0.4349000000000 1.0
C      1  0.5341470000000  0.4402380000000  0.4693220000000 1.0
C      1  0.5389430000000  0.4367340000000  0.5265000000000 1.0
C      1  0.4882140000000  0.4402750000000  0.5454140000000 1.0
C      1  0.4456030000000  0.4400690000000  0.5052760000000 1.0
C      1  0.4808620000000  0.4367940000000  0.4523610000000 1.0
C      1  0.5290620000000  0.5103510000000  0.4546020000000 1.0
C      1  0.5839660000000  0.5042320000000  0.5165260000000 1.0
C      1  0.5159010000000  0.5047930000000  0.5582720000000 1.0
C      1  0.4426740000000  0.5090760000000  0.5381790000000 1.0
C      1  0.4463010000000  0.5017930000000  0.4493150000000 1.0
C      1  0.5166970000000  0.5555050000000  0.4427880000000 1.0
C      1  0.5741190000000  0.5505850000000  0.4921000000000 1.0
C      1  0.5280320000000  0.5525630000000  0.5640730000000 1.0
C      1  0.4476300000000  0.5578330000000  0.5433130000000 1.0
C      1  0.4412570000000  0.5487760000000  0.4612790000000 1.0
C      1  0.5192100000000  0.4229660000000  0.5118190000000 1.0
C      1  0.4929570000000  0.4226810000000  0.5239810000000 1.0
C      1  0.4723360000000  0.4244720000000  0.5028200000000 1.0
C      1  0.4864990000000  0.4237640000000  0.4770020000000 1.0
C      1  0.5155540000000  0.4237420000000  0.4828550000000 1.0
C      1  0.5101010000000  0.5494760000000  0.5047470000000 1.0
END
