TITL C-2622955-8511-297 0.00225477185426287 125000 -867.452704694024 0 0 159 (C1) n - 1
REM
REM in /nfs/bkarasulu/CARBON/AIRSS/Generating-Clusters/AIREBO/with-SteepDescent/Higher-Symm/SD-CG/HFTN-CG
REM
REM
REM
REM
REM
REM ./C.cell (b20cbc046b6831c77cfcea5457e17084)
REM
REM compiler GCC version 9.2.1 20190827 (Red Hat 9.2.1-1)
REM options -cpp -mtune=generic -march=x86-64 -g -O0 -fpre-include=/usr/include/finclude/math-vector-fortran.h
REM seed -1723933807 1332583512 -729579935 -1574514143 1584744908 -763668571 1434174 -86062538 171505172 -1148249976 329646595 -1174965630 -1401593756 -884959556 -999962460 904979269 1837939917 106658285 -321135878 687429192 -185885748 1186034315 1163830743 -948457729 -738074252 -1640052472 530483038 -864220647 855444264 1901711828 1805226680 -953741732 1285148458
REM
CELL 1.54180   50.00000   50.00000   50.00000   90.00000   90.00000   90.00000
LATT -1
SFAC C  
C      1  0.4678420000000  0.4308210000000  0.5660910000000 1.0
C      1  0.4700470000000  0.5700200000000  0.4432760000000 1.0
C      1  0.5278880000000  0.4325940000000  0.5637380000000 1.0
C      1  0.5273960000000  0.5747270000000  0.4406620000000 1.0
C      1  0.4744000000000  0.5688470000000  0.5578210000000 1.0
C      1  0.4704400000000  0.4299830000000  0.4374740000000 1.0
C      1  0.5276150000000  0.5679590000000  0.5575040000000 1.0
C      1  0.5297560000000  0.4328700000000  0.4396700000000 1.0
C      1  0.6051990000000  0.5425990000000  0.4886810000000 1.0
C      1  0.6121920000000  0.4495300000000  0.5115040000000 1.0
C      1  0.3930450000000  0.5437550000000  0.4800850000000 1.0
C      1  0.3981040000000  0.4490720000000  0.5140270000000 1.0
C      1  0.6109830000000  0.4543410000000  0.4862750000000 1.0
C      1  0.5974510000000  0.5371830000000  0.5137880000000 1.0
C      1  0.4002250000000  0.4474280000000  0.4855120000000 1.0
C      1  0.3882940000000  0.5424500000000  0.5073340000000 1.0
C      1  0.4361470000000  0.4600140000000  0.4345660000000 1.0
C      1  0.4336960000000  0.5441660000000  0.5645330000000 1.0
C      1  0.5674370000000  0.4454020000000  0.4350860000000 1.0
C      1  0.5657650000000  0.5426770000000  0.5568330000000 1.0
C      1  0.4286810000000  0.5456010000000  0.4314430000000 1.0
C      1  0.4314710000000  0.4603320000000  0.5662240000000 1.0
C      1  0.5619270000000  0.5578670000000  0.4298520000000 1.0
C      1  0.5697790000000  0.4492990000000  0.5740370000000 1.0
C      1  0.5483290000000  0.5571890000000  0.5792840000000 1.0
C      1  0.5441510000000  0.4409320000000  0.4150160000000 1.0
C      1  0.4529600000000  0.5593040000000  0.5781330000000 1.0
C      1  0.4534160000000  0.4435240000000  0.4187110000000 1.0
C      1  0.5435110000000  0.4420320000000  0.5849090000000 1.0
C      1  0.5404220000000  0.5680280000000  0.4119680000000 1.0
C      1  0.4519550000000  0.4470830000000  0.5831520000000 1.0
C      1  0.4541900000000  0.5561780000000  0.4211020000000 1.0
C      1  0.5217030000000  0.5867300000000  0.4710150000000 1.0
C      1  0.5216910000000  0.4102570000000  0.5231870000000 1.0
C      1  0.4700940000000  0.5800370000000  0.4757760000000 1.0
C      1  0.4697920000000  0.4193360000000  0.5167880000000 1.0
C      1  0.5205340000000  0.4112300000000  0.4719980000000 1.0
C      1  0.5239880000000  0.5862430000000  0.5291860000000 1.0
C      1  0.4705190000000  0.4117840000000  0.4851570000000 1.0
C      1  0.4765210000000  0.5835030000000  0.5288080000000 1.0
C      1  0.5515620000000  0.4774910000000  0.5682490000000 1.0
C      1  0.5531150000000  0.5328100000000  0.4386050000000 1.0
C      1  0.4508910000000  0.4836860000000  0.5672080000000 1.0
C      1  0.4483400000000  0.5178220000000  0.4307410000000 1.0
C      1  0.5575730000000  0.5110640000000  0.5664350000000 1.0
C      1  0.5543370000000  0.4722610000000  0.4376700000000 1.0
C      1  0.4432460000000  0.5122970000000  0.5640800000000 1.0
C      1  0.4511450000000  0.4851120000000  0.4374220000000 1.0
C      1  0.4145200000000  0.5259740000000  0.5205490000000 1.0
C      1  0.4192760000000  0.4748620000000  0.4791140000000 1.0
C      1  0.5802730000000  0.5125970000000  0.5156880000000 1.0
C      1  0.5818670000000  0.4685260000000  0.4758970000000 1.0
C      1  0.4173890000000  0.4766400000000  0.5189850000000 1.0
C      1  0.4202570000000  0.5240120000000  0.4749590000000 1.0
C      1  0.5855590000000  0.4609550000000  0.5275820000000 1.0
C      1  0.5838680000000  0.5412930000000  0.4670020000000 1.0
C      1  0.5211570000000  0.4765830000000  0.5249820000000 1.0
C      1  0.5097100000000  0.5291630000000  0.4667930000000 1.0
C      1  0.4826000000000  0.4868200000000  0.5262290000000 1.0
C      1  0.4789030000000  0.5181420000000  0.4693340000000 1.0
C      1  0.5190250000000  0.5259620000000  0.5307150000000 1.0
C      1  0.5169310000000  0.4746800000000  0.4692050000000 1.0
C      1  0.4884600000000  0.5199750000000  0.5318020000000 1.0
C      1  0.4793900000000  0.4874630000000  0.4725180000000 1.0
C      1  0.5096040000000  0.6089010000000  0.4850090000000 1.0
C      1  0.5090720000000  0.3888350000000  0.5119190000000 1.0
C      1  0.4789240000000  0.6075410000000  0.4854050000000 1.0
C      1  0.4795910000000  0.3886440000000  0.5161750000000 1.0
C      1  0.5124120000000  0.3871950000000  0.4820620000000 1.0
C      1  0.5139360000000  0.6098420000000  0.5156870000000 1.0
C      1  0.4816670000000  0.3815090000000  0.4838970000000 1.0
C      1  0.4841180000000  0.6076940000000  0.5153110000000 1.0
C      1  0.4085510000000  0.4851220000000  0.4489060000000 1.0
C      1  0.4143520000000  0.5121360000000  0.5505140000000 1.0
C      1  0.5718940000000  0.4895800000000  0.4524550000000 1.0
C      1  0.5839900000000  0.5093120000000  0.5456890000000 1.0
C      1  0.4209890000000  0.5095960000000  0.4466810000000 1.0
C      1  0.4017570000000  0.4873820000000  0.5472040000000 1.0
C      1  0.5737770000000  0.5161820000000  0.4498650000000 1.0
C      1  0.5799080000000  0.4811540000000  0.5523460000000 1.0
C      1  0.4506490000000  0.4827450000000  0.5153190000000 1.0
C      1  0.4532990000000  0.5264710000000  0.4826040000000 1.0
C      1  0.5495500000000  0.4849030000000  0.5164420000000 1.0
C      1  0.5378160000000  0.5207370000000  0.4815190000000 1.0
C      1  0.4452100000000  0.5144010000000  0.5115910000000 1.0
C      1  0.4530340000000  0.4741660000000  0.4833300000000 1.0
C      1  0.5469050000000  0.5182550000000  0.5123650000000 1.0
C      1  0.5432290000000  0.4901160000000  0.4842450000000 1.0
C      1  0.5261180000000  0.5556380000000  0.5166700000000 1.0
C      1  0.5191100000000  0.4435060000000  0.4826020000000 1.0
C      1  0.4788850000000  0.5506140000000  0.5204870000000 1.0
C      1  0.4883760000000  0.4462740000000  0.4934120000000 1.0
C      1  0.5207490000000  0.4436030000000  0.5165650000000 1.0
C      1  0.5195710000000  0.5559410000000  0.4852870000000 1.0
C      1  0.4890250000000  0.4533610000000  0.5243170000000 1.0
C      1  0.4888570000000  0.5599210000000  0.4921190000000 1.0
C      1  0.4806390000000  0.4837880000000  0.4105700000000 1.0
C      1  0.4836470000000  0.5217260000000  0.5906200000000 1.0
C      1  0.5134870000000  0.4872560000000  0.4100480000000 1.0
C      1  0.5149640000000  0.5155310000000  0.5888510000000 1.0
C      1  0.4852320000000  0.5153300000000  0.4091470000000 1.0
C      1  0.4846020000000  0.4895770000000  0.5896600000000 1.0
C      1  0.5173380000000  0.5192680000000  0.4084790000000 1.0
C      1  0.5167190000000  0.4835310000000  0.5867450000000 1.0
C      1  0.5278400000000  0.5484680000000  0.3968650000000 1.0
C      1  0.5308100000000  0.4605910000000  0.6023400000000 1.0
C      1  0.4677200000000  0.5416570000000  0.4027670000000 1.0
C      1  0.4661100000000  0.4649960000000  0.6005160000000 1.0
C      1  0.5320990000000  0.4619190000000  0.4003800000000 1.0
C      1  0.5363520000000  0.5398450000000  0.5978480000000 1.0
C      1  0.4665560000000  0.4589460000000  0.3984020000000 1.0
C      1  0.4649680000000  0.5462970000000  0.5992810000000 1.0
C      1  0.4420340000000  0.5856930000000  0.4574190000000 1.0
C      1  0.4518740000000  0.4180040000000  0.5442030000000 1.0
C      1  0.5518920000000  0.5871700000000  0.4612300000000 1.0
C      1  0.5414760000000  0.4207040000000  0.5419510000000 1.0
C      1  0.4539280000000  0.4158000000000  0.4574310000000 1.0
C      1  0.4466590000000  0.5795080000000  0.5401650000000 1.0
C      1  0.5465100000000  0.4223300000000  0.4626130000000 1.0
C      1  0.5536630000000  0.5840240000000  0.5413020000000 1.0
C      1  0.5687790000000  0.4238090000000  0.5215760000000 1.0
C      1  0.5718030000000  0.5743520000000  0.4859400000000 1.0
C      1  0.4313950000000  0.4274460000000  0.5177100000000 1.0
C      1  0.4201610000000  0.5774460000000  0.4822150000000 1.0
C      1  0.5746070000000  0.5735510000000  0.5166110000000 1.0
C      1  0.5679730000000  0.4297360000000  0.4879820000000 1.0
C      1  0.4255930000000  0.5715610000000  0.5152660000000 1.0
C      1  0.4330240000000  0.4246260000000  0.4835200000000 1.0
C      1  0.5821760000000  0.4392590000000  0.4585830000000 1.0
C      1  0.5922110000000  0.5541610000000  0.5383060000000 1.0
C      1  0.4238270000000  0.4472300000000  0.4598270000000 1.0
C      1  0.4182620000000  0.5520060000000  0.5421020000000 1.0
C      1  0.5793830000000  0.5714070000000  0.4529200000000 1.0
C      1  0.5807160000000  0.4366580000000  0.5508690000000 1.0
C      1  0.4176440000000  0.5534920000000  0.4582100000000 1.0
C      1  0.4205470000000  0.4503820000000  0.5403560000000 1.0
C      1  0.5519660000000  0.5497990000000  0.4751770000000 1.0
C      1  0.5530910000000  0.4528450000000  0.5215320000000 1.0
C      1  0.4469780000000  0.5575570000000  0.4849600000000 1.0
C      1  0.4563400000000  0.4500360000000  0.5225660000000 1.0
C      1  0.5503710000000  0.4569450000000  0.4820520000000 1.0
C      1  0.5554470000000  0.5475450000000  0.5260160000000 1.0
C      1  0.4601020000000  0.4441180000000  0.4834200000000 1.0
C      1  0.4486000000000  0.5464290000000  0.5167250000000 1.0
C      1  0.5206090000000  0.4710850000000  0.5558610000000 1.0
C      1  0.5225370000000  0.5314540000000  0.4369910000000 1.0
C      1  0.4811210000000  0.4763200000000  0.5585410000000 1.0
C      1  0.4788090000000  0.5297480000000  0.4392650000000 1.0
C      1  0.5287700000000  0.5281140000000  0.5604420000000 1.0
C      1  0.5226640000000  0.4721060000000  0.4378840000000 1.0
C      1  0.4718210000000  0.5291740000000  0.5599610000000 1.0
C      1  0.4833600000000  0.4760230000000  0.4434000000000 1.0
C      1  0.4997230000000  0.5565600000000  0.4395290000000 1.0
C      1  0.5001210000000  0.4466700000000  0.4395260000000 1.0
C      1  0.5006350000000  0.5472260000000  0.5590160000000 1.0
C      1  0.4976600000000  0.4468440000000  0.5625700000000 1.0
C      1  0.4084350000000  0.5015620000000  0.4976430000000 1.0
C      1  0.5872250000000  0.4855110000000  0.5041160000000 1.0
C      1  0.5015230000000  0.4838220000000  0.4981310000000 1.0
END
