TITL C-2622959-7779-281 -0.00254234775177631 125000 -892.376354591378 0 0 167 (C1) n - 1
REM
REM in /nfs/bkarasulu/CARBON/AIRSS/Generating-Clusters/AIREBO/with-SteepDescent/Higher-Symm/SD-CG/HFTN-CG
REM
REM
REM
REM
REM
REM ./C.cell (b20cbc046b6831c77cfcea5457e17084)
REM
REM compiler GCC version 9.2.1 20190827 (Red Hat 9.2.1-1)
REM options -cpp -mtune=generic -march=x86-64 -g -O0 -fpre-include=/usr/include/finclude/math-vector-fortran.h
REM seed -1421542654 88492544 -274965285 -992637144 885104421 -1547565525 -7127648 -1333987482 -961298423 1997679263 789588583 -1882251615 1313583120 -703953410 -955104504 1329185426 -237534793 -1622509475 1478753514 2074074355 347914911 -2016470746 927087444 271295081 1603509972 1162441548 1122712066 1839265526 287396574 1329718674 599829690 -747529285 818422265
REM
CELL 1.54180   50.00000   50.00000   50.00000   90.00000   90.00000   90.00000
LATT -1
SFAC C  
C      1  0.4563880000000  0.4721770000000  0.5203370000000 1.0
C      1  0.4548190000000  0.5275740000000  0.5146570000000 1.0
C      1  0.4531250000000  0.4957330000000  0.4606690000000 1.0
C      1  0.5469980000000  0.4677120000000  0.5150780000000 1.0
C      1  0.5458670000000  0.5362300000000  0.5134000000000 1.0
C      1  0.5451020000000  0.4932290000000  0.4637830000000 1.0
C      1  0.4046350000000  0.5581750000000  0.4528690000000 1.0
C      1  0.4207180000000  0.4318560000000  0.4447850000000 1.0
C      1  0.4240150000000  0.5067270000000  0.5718230000000 1.0
C      1  0.5753110000000  0.5747180000000  0.4694920000000 1.0
C      1  0.5785670000000  0.4356570000000  0.4670100000000 1.0
C      1  0.5765660000000  0.4928630000000  0.5709400000000 1.0
C      1  0.4801600000000  0.5460470000000  0.4587810000000 1.0
C      1  0.4785310000000  0.4325560000000  0.4830100000000 1.0
C      1  0.4868870000000  0.5220190000000  0.5635470000000 1.0
C      1  0.5151070000000  0.5451070000000  0.4543970000000 1.0
C      1  0.5136170000000  0.4300150000000  0.4858760000000 1.0
C      1  0.5179050000000  0.5114250000000  0.5606100000000 1.0
C      1  0.5636970000000  0.4072640000000  0.4681670000000 1.0
C      1  0.5650960000000  0.5105680000000  0.5956770000000 1.0
C      1  0.5644850000000  0.5789730000000  0.4375430000000 1.0
C      1  0.4355380000000  0.4176230000000  0.4697680000000 1.0
C      1  0.4379100000000  0.5223110000000  0.5962040000000 1.0
C      1  0.4302150000000  0.5682730000000  0.4459950000000 1.0
C      1  0.5319250000000  0.4639650000000  0.4005350000000 1.0
C      1  0.5364080000000  0.4294470000000  0.5835960000000 1.0
C      1  0.5364960000000  0.6067370000000  0.5235970000000 1.0
C      1  0.4565930000000  0.4726970000000  0.4011940000000 1.0
C      1  0.4645210000000  0.4291600000000  0.5810060000000 1.0
C      1  0.4614760000000  0.5979230000000  0.5296160000000 1.0
C      1  0.4405750000000  0.4978580000000  0.5270080000000 1.0
C      1  0.4358480000000  0.5303500000000  0.4895550000000 1.0
C      1  0.4364820000000  0.4772390000000  0.4805310000000 1.0
C      1  0.5658170000000  0.4892390000000  0.5295560000000 1.0
C      1  0.5668860000000  0.5266140000000  0.4884570000000 1.0
C      1  0.5606940000000  0.4747650000000  0.4847630000000 1.0
C      1  0.4375400000000  0.5794160000000  0.5210250000000 1.0
C      1  0.4349480000000  0.4809790000000  0.4260820000000 1.0
C      1  0.4310870000000  0.4497090000000  0.5523790000000 1.0
C      1  0.5588550000000  0.5676090000000  0.5173250000000 1.0
C      1  0.5612350000000  0.4823280000000  0.4358950000000 1.0
C      1  0.5727580000000  0.4424260000000  0.5547520000000 1.0
C      1  0.4263930000000  0.4336050000000  0.4958920000000 1.0
C      1  0.4502130000000  0.5368060000000  0.5690460000000 1.0
C      1  0.4485220000000  0.5457070000000  0.4345090000000 1.0
C      1  0.5508110000000  0.4191070000000  0.4954140000000 1.0
C      1  0.5531330000000  0.5264400000000  0.5711470000000 1.0
C      1  0.5665940000000  0.5466810000000  0.4425030000000 1.0
C      1  0.5139930000000  0.4481910000000  0.5831730000000 1.0
C      1  0.5111040000000  0.6001130000000  0.5069280000000 1.0
C      1  0.5095360000000  0.4518680000000  0.4154650000000 1.0
C      1  0.4874470000000  0.4492880000000  0.5831340000000 1.0
C      1  0.4847120000000  0.6052940000000  0.5092780000000 1.0
C      1  0.4819250000000  0.4577190000000  0.4139560000000 1.0
C      1  0.4869620000000  0.4510140000000  0.5062740000000 1.0
C      1  0.4850180000000  0.5412020000000  0.5368050000000 1.0
C      1  0.4852840000000  0.5166900000000  0.4496610000000 1.0
C      1  0.5157340000000  0.4429920000000  0.5150130000000 1.0
C      1  0.5153430000000  0.5351440000000  0.5390480000000 1.0
C      1  0.5145520000000  0.5139280000000  0.4490420000000 1.0
C      1  0.5554840000000  0.5470320000000  0.5441880000000 1.0
C      1  0.5537950000000  0.5153390000000  0.4392890000000 1.0
C      1  0.5570100000000  0.4371850000000  0.5262800000000 1.0
C      1  0.4465100000000  0.5511660000000  0.5377340000000 1.0
C      1  0.4432930000000  0.5120830000000  0.4325160000000 1.0
C      1  0.4433920000000  0.4416550000000  0.5242250000000 1.0
C      1  0.5179820000000  0.4179260000000  0.5574190000000 1.0
C      1  0.5180800000000  0.5896590000000  0.5448390000000 1.0
C      1  0.5151640000000  0.4935520000000  0.4008880000000 1.0
C      1  0.4844530000000  0.4201290000000  0.5559940000000 1.0
C      1  0.4864890000000  0.5807160000000  0.5407550000000 1.0
C      1  0.4819460000000  0.4953440000000  0.4003840000000 1.0
C      1  0.4821770000000  0.4438540000000  0.5365930000000 1.0
C      1  0.4769660000000  0.5644030000000  0.5132900000000 1.0
C      1  0.4786200000000  0.4940050000000  0.4303350000000 1.0
C      1  0.5214190000000  0.4462120000000  0.5434880000000 1.0
C      1  0.5193020000000  0.5629930000000  0.5263380000000 1.0
C      1  0.5228100000000  0.4912780000000  0.4306610000000 1.0
C      1  0.4064840000000  0.5388570000000  0.4999660000000 1.0
C      1  0.4054390000000  0.4560000000000  0.4569630000000 1.0
C      1  0.4090880000000  0.4867450000000  0.5309200000000 1.0
C      1  0.5866250000000  0.5540240000000  0.4923810000000 1.0
C      1  0.5913830000000  0.4810500000000  0.4761440000000 1.0
C      1  0.5972500000000  0.4782010000000  0.5313390000000 1.0
C      1  0.4745910000000  0.4764250000000  0.4922520000000 1.0
C      1  0.4806640000000  0.5089760000000  0.5266100000000 1.0
C      1  0.4750480000000  0.5124970000000  0.4798370000000 1.0
C      1  0.5203810000000  0.4686230000000  0.4931280000000 1.0
C      1  0.5267920000000  0.5093430000000  0.5217500000000 1.0
C      1  0.5277990000000  0.5174860000000  0.4801960000000 1.0
C      1  0.4517920000000  0.4099340000000  0.5151850000000 1.0
C      1  0.4525140000000  0.5750740000000  0.5611920000000 1.0
C      1  0.4458010000000  0.5250720000000  0.4011920000000 1.0
C      1  0.5526790000000  0.4038130000000  0.5312390000000 1.0
C      1  0.5555640000000  0.5657580000000  0.5718230000000 1.0
C      1  0.5484520000000  0.5324510000000  0.4103970000000 1.0
C      1  0.4834500000000  0.5650710000000  0.4323830000000 1.0
C      1  0.4873710000000  0.4019310000000  0.4755910000000 1.0
C      1  0.4819060000000  0.5291660000000  0.5952600000000 1.0
C      1  0.5157940000000  0.5658550000000  0.4279630000000 1.0
C      1  0.5205180000000  0.3987790000000  0.4784410000000 1.0
C      1  0.5149160000000  0.5216770000000  0.5920230000000 1.0
C      1  0.4729710000000  0.5401070000000  0.4115310000000 1.0
C      1  0.4777760000000  0.4016290000000  0.5082230000000 1.0
C      1  0.4757640000000  0.5576090000000  0.5774770000000 1.0
C      1  0.5230610000000  0.5436380000000  0.4073540000000 1.0
C      1  0.5271060000000  0.4010540000000  0.5118020000000 1.0
C      1  0.5279160000000  0.5490730000000  0.5766270000000 1.0
C      1  0.4094650000000  0.4811340000000  0.5010520000000 1.0
C      1  0.4040480000000  0.5336180000000  0.5336030000000 1.0
C      1  0.4031710000000  0.5071670000000  0.4562190000000 1.0
C      1  0.6018750000000  0.4512070000000  0.5109160000000 1.0
C      1  0.5933040000000  0.5303500000000  0.5347200000000 1.0
C      1  0.5905260000000  0.5130680000000  0.4680240000000 1.0
C      1  0.5512730000000  0.4562100000000  0.4241060000000 1.0
C      1  0.5584080000000  0.4486790000000  0.5788910000000 1.0
C      1  0.5478950000000  0.5889420000000  0.4968620000000 1.0
C      1  0.4440130000000  0.4484870000000  0.4218230000000 1.0
C      1  0.4496710000000  0.4597490000000  0.5766210000000 1.0
C      1  0.4366570000000  0.5918820000000  0.4899560000000 1.0
C      1  0.5904310000000  0.5566530000000  0.5236490000000 1.0
C      1  0.5905440000000  0.4893560000000  0.4446340000000 1.0
C      1  0.5981040000000  0.4485070000000  0.5434220000000 1.0
C      1  0.4109460000000  0.5628170000000  0.5236750000000 1.0
C      1  0.4085440000000  0.4813530000000  0.4436800000000 1.0
C      1  0.4067900000000  0.4622760000000  0.5489730000000 1.0
C      1  0.5957560000000  0.5033120000000  0.5519420000000 1.0
C      1  0.5926890000000  0.5446560000000  0.4612270000000 1.0
C      1  0.5930980000000  0.4515010000000  0.4842860000000 1.0
C      1  0.4100980000000  0.5117920000000  0.5486840000000 1.0
C      1  0.3978510000000  0.5355550000000  0.4689490000000 1.0
C      1  0.4045960000000  0.4538450000000  0.4854360000000 1.0
C      1  0.5454130000000  0.5905830000000  0.4628590000000 1.0
C      1  0.5517420000000  0.4297920000000  0.4456760000000 1.0
C      1  0.5521640000000  0.4797280000000  0.5919910000000 1.0
C      1  0.4444300000000  0.5880550000000  0.4597990000000 1.0
C      1  0.4528930000000  0.4216020000000  0.4406890000000 1.0
C      1  0.4505440000000  0.4916660000000  0.5886170000000 1.0
C      1  0.5182490000000  0.5755170000000  0.4870050000000 1.0
C      1  0.5170000000000  0.4476830000000  0.4427450000000 1.0
C      1  0.5241850000000  0.4723280000000  0.5654120000000 1.0
C      1  0.4685190000000  0.5855040000000  0.4911630000000 1.0
C      1  0.4774330000000  0.4517320000000  0.4431670000000 1.0
C      1  0.4784780000000  0.4750730000000  0.5670420000000 1.0
C      1  0.5190070000000  0.4879160000000  0.5927290000000 1.0
C      1  0.5125290000000  0.5846640000000  0.4561290000000 1.0
C      1  0.5204740000000  0.4165820000000  0.4494170000000 1.0
C      1  0.4850460000000  0.4953700000000  0.5928000000000 1.0
C      1  0.4784460000000  0.5853990000000  0.4592090000000 1.0
C      1  0.4863880000000  0.4197360000000  0.4466040000000 1.0
C      1  0.4861280000000  0.4776180000000  0.5359250000000 1.0
C      1  0.4830000000000  0.5361050000000  0.4976050000000 1.0
C      1  0.4823910000000  0.4783920000000  0.4603040000000 1.0
C      1  0.5199880000000  0.4784590000000  0.5327680000000 1.0
C      1  0.5162830000000  0.5438260000000  0.4983970000000 1.0
C      1  0.5162850000000  0.4755310000000  0.4600840000000 1.0
C      1  0.4501490000000  0.5409180000000  0.4670770000000 1.0
C      1  0.4524290000000  0.4507560000000  0.4864340000000 1.0
C      1  0.4577390000000  0.5115120000000  0.5510870000000 1.0
C      1  0.5459240000000  0.5428480000000  0.4671540000000 1.0
C      1  0.5429650000000  0.4465940000000  0.4814230000000 1.0
C      1  0.5464810000000  0.5043350000000  0.5478490000000 1.0
C      1  0.5049440000000  0.5654100000000  0.5648620000000 1.0
C      1  0.5010170000000  0.4033680000000  0.5314780000000 1.0
C      1  0.4999420000000  0.5241320000000  0.3984120000000 1.0
C      1  0.4200230000000  0.5054110000000  0.4826170000000 1.0
C      1  0.5813370000000  0.5115550000000  0.5153000000000 1.0
END
