TITL C-2622959-7779-481 -0.000879973374837205 125000 -553.279788943536 0 0 102 (C1) n - 1
REM
REM in /nfs/bkarasulu/CARBON/AIRSS/Generating-Clusters/AIREBO/with-SteepDescent/Higher-Symm/SD-CG/HFTN-CG
REM
REM
REM
REM
REM
REM ./C.cell (b20cbc046b6831c77cfcea5457e17084)
REM
REM compiler GCC version 9.2.1 20190827 (Red Hat 9.2.1-1)
REM options -cpp -mtune=generic -march=x86-64 -g -O0 -fpre-include=/usr/include/finclude/math-vector-fortran.h
REM seed 1801007394 -1117152120 1853769510 1034984180 360368473 2123220605 2007521667 491375798 -259008051 1154371737 915064971 -1655791520 1070015022 -1634702032 -576280224 -292085849 -301032030 673407715 159998781 -1923934258 1673430187 -1799077683 -2002665790 -587111230 561825913 -908352693 878728314 1376919347 60368271 1280905075 -1011280739 -1340852966 -788983590
REM
CELL 1.54180   50.00000   50.00000   50.00000   90.00000   90.00000   90.00000
LATT -1
SFAC C  
C      1  0.5315460000000  0.4289020000000  0.4579370000000 1.0
C      1  0.5238450000000  0.5651980000000  0.5466260000000 1.0
C      1  0.4823140000000  0.4266260000000  0.5525870000000 1.0
C      1  0.4896540000000  0.5768110000000  0.4497300000000 1.0
C      1  0.5060080000000  0.4406580000000  0.4390870000000 1.0
C      1  0.5043310000000  0.5452540000000  0.5580370000000 1.0
C      1  0.4843580000000  0.5552480000000  0.4245750000000 1.0
C      1  0.4926110000000  0.4478260000000  0.5759770000000 1.0
C      1  0.4809950000000  0.4084780000000  0.4732320000000 1.0
C      1  0.4908550000000  0.5846210000000  0.5273210000000 1.0
C      1  0.5205490000000  0.4187070000000  0.5176570000000 1.0
C      1  0.5259600000000  0.5898260000000  0.4816550000000 1.0
C      1  0.4880890000000  0.4793330000000  0.4182430000000 1.0
C      1  0.4869690000000  0.5297500000000  0.5831490000000 1.0
C      1  0.5230360000000  0.5290590000000  0.4213710000000 1.0
C      1  0.5246510000000  0.4824990000000  0.5863640000000 1.0
C      1  0.4243140000000  0.5314360000000  0.4387470000000 1.0
C      1  0.4250060000000  0.4730420000000  0.5667690000000 1.0
C      1  0.5733100000000  0.5213960000000  0.5642880000000 1.0
C      1  0.5804820000000  0.4789430000000  0.4316590000000 1.0
C      1  0.4381480000000  0.4356870000000  0.5267380000000 1.0
C      1  0.4427400000000  0.5625420000000  0.4923070000000 1.0
C      1  0.5607140000000  0.5629600000000  0.5051730000000 1.0
C      1  0.5771110000000  0.4346010000000  0.4765020000000 1.0
C      1  0.5785920000000  0.5340740000000  0.4591210000000 1.0
C      1  0.5637570000000  0.4778400000000  0.5436170000000 1.0
C      1  0.4188340000000  0.5182260000000  0.5394220000000 1.0
C      1  0.4220010000000  0.4810540000000  0.4613920000000 1.0
C      1  0.5608960000000  0.4558810000000  0.5248490000000 1.0
C      1  0.5822310000000  0.5489390000000  0.4828790000000 1.0
C      1  0.4056480000000  0.5332260000000  0.5198900000000 1.0
C      1  0.4112210000000  0.4655780000000  0.4824960000000 1.0
C      1  0.5764600000000  0.5332110000000  0.5124690000000 1.0
C      1  0.5751440000000  0.4521950000000  0.4986960000000 1.0
C      1  0.4192360000000  0.5377860000000  0.4890600000000 1.0
C      1  0.4225550000000  0.4608750000000  0.5142080000000 1.0
C      1  0.5766420000000  0.5084040000000  0.5359270000000 1.0
C      1  0.5816050000000  0.5023250000000  0.4472910000000 1.0
C      1  0.4180490000000  0.4842420000000  0.5386140000000 1.0
C      1  0.4171370000000  0.5146050000000  0.4641530000000 1.0
C      1  0.4870300000000  0.4654910000000  0.4948530000000 1.0
C      1  0.4817070000000  0.5359720000000  0.5054380000000 1.0
C      1  0.5151070000000  0.4764160000000  0.5044610000000 1.0
C      1  0.5112970000000  0.5339790000000  0.4947020000000 1.0
C      1  0.4769440000000  0.4894100000000  0.4730480000000 1.0
C      1  0.4819760000000  0.5059900000000  0.5342760000000 1.0
C      1  0.5201830000000  0.5033640000000  0.4518690000000 1.0
C      1  0.5125210000000  0.4916820000000  0.5334510000000 1.0
C      1  0.4745070000000  0.4772760000000  0.5431570000000 1.0
C      1  0.4646640000000  0.5178650000000  0.4619270000000 1.0
C      1  0.5249240000000  0.4729630000000  0.4529850000000 1.0
C      1  0.5351070000000  0.5150290000000  0.5374170000000 1.0
C      1  0.4775440000000  0.5410680000000  0.4748530000000 1.0
C      1  0.4683390000000  0.4605570000000  0.5195020000000 1.0
C      1  0.5316580000000  0.4623030000000  0.4796970000000 1.0
C      1  0.5317920000000  0.5387170000000  0.5177360000000 1.0
C      1  0.5241140000000  0.4521990000000  0.5715040000000 1.0
C      1  0.5147480000000  0.5545970000000  0.4281750000000 1.0
C      1  0.4777190000000  0.4601040000000  0.4380810000000 1.0
C      1  0.4710700000000  0.5410090000000  0.5562310000000 1.0
C      1  0.5209490000000  0.5694830000000  0.4568360000000 1.0
C      1  0.5139740000000  0.4354270000000  0.5453400000000 1.0
C      1  0.4789270000000  0.4316080000000  0.4566000000000 1.0
C      1  0.4709730000000  0.5698130000000  0.5401280000000 1.0
C      1  0.5205630000000  0.4316560000000  0.4873430000000 1.0
C      1  0.5292760000000  0.5715910000000  0.5150410000000 1.0
C      1  0.4713410000000  0.4283080000000  0.5204460000000 1.0
C      1  0.4717680000000  0.5736750000000  0.4784890000000 1.0
C      1  0.5343670000000  0.4571910000000  0.4300620000000 1.0
C      1  0.5216150000000  0.5179030000000  0.5684950000000 1.0
C      1  0.4748530000000  0.5247590000000  0.4331740000000 1.0
C      1  0.4774400000000  0.4756850000000  0.5742060000000 1.0
C      1  0.4479800000000  0.4738300000000  0.4957120000000 1.0
C      1  0.4430720000000  0.5261380000000  0.5081390000000 1.0
C      1  0.5568830000000  0.4762390000000  0.4908490000000 1.0
C      1  0.5502910000000  0.5269490000000  0.4916720000000 1.0
C      1  0.4429300000000  0.5060600000000  0.4836940000000 1.0
C      1  0.4456370000000  0.4952160000000  0.5220450000000 1.0
C      1  0.5629600000000  0.5008260000000  0.4739660000000 1.0
C      1  0.5535620000000  0.5005220000000  0.5128140000000 1.0
C      1  0.4519010000000  0.4750530000000  0.4547580000000 1.0
C      1  0.4525410000000  0.5185860000000  0.5457720000000 1.0
C      1  0.5354370000000  0.4795040000000  0.5554350000000 1.0
C      1  0.5474200000000  0.5218060000000  0.4521860000000 1.0
C      1  0.4639930000000  0.4520850000000  0.4747580000000 1.0
C      1  0.4595070000000  0.5508330000000  0.5192710000000 1.0
C      1  0.5285420000000  0.5421270000000  0.4687310000000 1.0
C      1  0.5307230000000  0.4509550000000  0.5207630000000 1.0
C      1  0.4487940000000  0.4603110000000  0.5698310000000 1.0
C      1  0.4481700000000  0.5443710000000  0.4369330000000 1.0
C      1  0.5641030000000  0.4554190000000  0.4313720000000 1.0
C      1  0.5504740000000  0.5347410000000  0.5701530000000 1.0
C      1  0.4557630000000  0.5688330000000  0.4488700000000 1.0
C      1  0.4521120000000  0.4376810000000  0.5539700000000 1.0
C      1  0.5588090000000  0.4359240000000  0.4541560000000 1.0
C      1  0.5463810000000  0.5619030000000  0.5625460000000 1.0
C      1  0.4921950000000  0.4164670000000  0.4994760000000 1.0
C      1  0.5004380000000  0.5734780000000  0.4970670000000 1.0
C      1  0.4990840000000  0.5069120000000  0.4268410000000 1.0
C      1  0.4976020000000  0.4990730000000  0.5836740000000 1.0
C      1  0.4860110000000  0.5045190000000  0.5022670000000 1.0
C      1  0.5132010000000  0.5026890000000  0.4829350000000 1.0
END
