TITL C-2622953-3516-680 -0.00145895985755015 125000 -632.90605976585 0 0 117 (C1) n - 1
REM
REM in /nfs/bkarasulu/CARBON/AIRSS/Generating-Clusters/AIREBO/with-SteepDescent/Higher-Symm/SD-CG/HFTN-CG
REM
REM
REM
REM
REM
REM ./C.cell (b20cbc046b6831c77cfcea5457e17084)
REM
REM compiler GCC version 9.2.1 20190827 (Red Hat 9.2.1-1)
REM options -cpp -mtune=generic -march=x86-64 -g -O0 -fpre-include=/usr/include/finclude/math-vector-fortran.h
REM seed -646678322 -288829278 -17596395 718993311 -190837088 -965800367 -899484427 254277469 -87257961 -1170122362 -660629531 -980411508 322053672 1420667993 1567390925 1414674541 18845073 145042926 1476410424 -1467296412 2145560010 46552459 380989395 1676151630 1565144520 387736137 1911332711 -1062327824 -952527843 -595709599 1604804654 -1386928502 -1355520011
REM
CELL 1.54180   50.00000   50.00000   50.00000   90.00000   90.00000   90.00000
LATT -1
SFAC C  
C      1  0.5245940000000  0.5219170000000  0.5347690000000 1.0
C      1  0.4756930000000  0.5275110000000  0.5355700000000 1.0
C      1  0.4595630000000  0.5382150000000  0.5075350000000 1.0
C      1  0.4666190000000  0.5271260000000  0.4761490000000 1.0
C      1  0.5226870000000  0.5322940000000  0.4711090000000 1.0
C      1  0.5476810000000  0.5342670000000  0.4877620000000 1.0
C      1  0.5396840000000  0.5413140000000  0.5187690000000 1.0
C      1  0.5360680000000  0.4930090000000  0.4430900000000 1.0
C      1  0.5681330000000  0.4917680000000  0.4898150000000 1.0
C      1  0.5537910000000  0.4918890000000  0.5457690000000 1.0
C      1  0.4938340000000  0.4871920000000  0.5743970000000 1.0
C      1  0.4429210000000  0.4919290000000  0.5331660000000 1.0
C      1  0.4316020000000  0.5012380000000  0.4702030000000 1.0
C      1  0.4738970000000  0.4874340000000  0.4316820000000 1.0
C      1  0.4931450000000  0.5507290000000  0.5534240000000 1.0
C      1  0.4502760000000  0.5639660000000  0.5282160000000 1.0
C      1  0.4345390000000  0.5554850000000  0.4925930000000 1.0
C      1  0.4677730000000  0.5575190000000  0.4599420000000 1.0
C      1  0.5191340000000  0.5580700000000  0.4539300000000 1.0
C      1  0.5488270000000  0.5662750000000  0.4966770000000 1.0
C      1  0.5537330000000  0.5648330000000  0.5367310000000 1.0
C      1  0.4200190000000  0.4721950000000  0.5231520000000 1.0
C      1  0.4411880000000  0.4671160000000  0.4421480000000 1.0
C      1  0.5046980000000  0.4733910000000  0.4281910000000 1.0
C      1  0.5571290000000  0.4706740000000  0.4577210000000 1.0
C      1  0.5665460000000  0.4636630000000  0.5180050000000 1.0
C      1  0.5362260000000  0.4740900000000  0.5660570000000 1.0
C      1  0.4671680000000  0.4758770000000  0.5611360000000 1.0
C      1  0.5135620000000  0.5831250000000  0.4644970000000 1.0
C      1  0.5268500000000  0.5899250000000  0.4951380000000 1.0
C      1  0.5250970000000  0.5776160000000  0.5267780000000 1.0
C      1  0.4996650000000  0.5745140000000  0.5375640000000 1.0
C      1  0.4725610000000  0.5862360000000  0.5210730000000 1.0
C      1  0.4562340000000  0.5789300000000  0.4916800000000 1.0
C      1  0.4807310000000  0.5852010000000  0.4689400000000 1.0
C      1  0.5354370000000  0.4599180000000  0.4338170000000 1.0
C      1  0.5745450000000  0.4604040000000  0.4850930000000 1.0
C      1  0.5626240000000  0.4589450000000  0.5514630000000 1.0
C      1  0.5038270000000  0.4553260000000  0.5797010000000 1.0
C      1  0.4376010000000  0.4631510000000  0.5501190000000 1.0
C      1  0.4219950000000  0.4572150000000  0.4863830000000 1.0
C      1  0.4630670000000  0.4554590000000  0.4270700000000 1.0
C      1  0.5496680000000  0.4274850000000  0.5173810000000 1.0
C      1  0.5230480000000  0.4156830000000  0.5561750000000 1.0
C      1  0.4775570000000  0.4309170000000  0.5449800000000 1.0
C      1  0.4424440000000  0.4193460000000  0.5141410000000 1.0
C      1  0.4585620000000  0.4265800000000  0.4696290000000 1.0
C      1  0.5011990000000  0.4206500000000  0.4447600000000 1.0
C      1  0.5399840000000  0.4273160000000  0.4713950000000 1.0
C      1  0.4483550000000  0.5580190000000  0.4405650000000 1.0
C      1  0.5175230000000  0.5562390000000  0.4264240000000 1.0
C      1  0.5706810000000  0.5622080000000  0.4709180000000 1.0
C      1  0.5853220000000  0.5597010000000  0.5342860000000 1.0
C      1  0.5164220000000  0.5508520000000  0.5775560000000 1.0
C      1  0.4494970000000  0.5640860000000  0.5603360000000 1.0
C      1  0.4172690000000  0.5609340000000  0.5206380000000 1.0
C      1  0.4099820000000  0.5292860000000  0.5109230000000 1.0
C      1  0.4317200000000  0.5349100000000  0.4466530000000 1.0
C      1  0.5086450000000  0.5315060000000  0.4174120000000 1.0
C      1  0.5714720000000  0.5415980000000  0.4499720000000 1.0
C      1  0.5920630000000  0.5350340000000  0.5244350000000 1.0
C      1  0.5374620000000  0.5309780000000  0.5715160000000 1.0
C      1  0.4548820000000  0.5405300000000  0.5729270000000 1.0
C      1  0.4330030000000  0.4940480000000  0.4409100000000 1.0
C      1  0.5217250000000  0.4858330000000  0.4066250000000 1.0
C      1  0.5777210000000  0.4964310000000  0.4514350000000 1.0
C      1  0.5890250000000  0.4811230000000  0.5312580000000 1.0
C      1  0.5242500000000  0.4877230000000  0.5895870000000 1.0
C      1  0.4445190000000  0.4925840000000  0.5762440000000 1.0
C      1  0.4059230000000  0.4794310000000  0.4989550000000 1.0
C      1  0.5180790000000  0.4991340000000  0.4677870000000 1.0
C      1  0.5389420000000  0.4864930000000  0.4915000000000 1.0
C      1  0.5280340000000  0.4899600000000  0.5236530000000 1.0
C      1  0.4963370000000  0.5020490000000  0.5264640000000 1.0
C      1  0.4666400000000  0.4887800000000  0.5164660000000 1.0
C      1  0.4622760000000  0.4940740000000  0.4830120000000 1.0
C      1  0.4864540000000  0.4897780000000  0.4594780000000 1.0
C      1  0.4069030000000  0.5097360000000  0.4875000000000 1.0
C      1  0.4593580000000  0.5151310000000  0.4451050000000 1.0
C      1  0.5339700000000  0.5135050000000  0.4182230000000 1.0
C      1  0.5758500000000  0.5200490000000  0.4758380000000 1.0
C      1  0.5786710000000  0.5120680000000  0.5406600000000 1.0
C      1  0.5087890000000  0.5143390000000  0.5639320000000 1.0
C      1  0.4482470000000  0.5165550000000  0.5524170000000 1.0
C      1  0.5607080000000  0.5309990000000  0.4273370000000 1.0
C      1  0.5973270000000  0.5302330000000  0.4980850000000 1.0
C      1  0.5583450000000  0.5356260000000  0.5535300000000 1.0
C      1  0.4831480000000  0.5308920000000  0.5789560000000 1.0
C      1  0.4241170000000  0.5328890000000  0.5387230000000 1.0
C      1  0.4186210000000  0.5382350000000  0.4729780000000 1.0
C      1  0.4824470000000  0.5265250000000  0.4228850000000 1.0
C      1  0.5001340000000  0.4292980000000  0.5665060000000 1.0
C      1  0.4472490000000  0.4351940000000  0.5377790000000 1.0
C      1  0.4341930000000  0.4306480000000  0.4888120000000 1.0
C      1  0.4717850000000  0.4321710000000  0.4399850000000 1.0
C      1  0.5320260000000  0.4306470000000  0.4405180000000 1.0
C      1  0.5642500000000  0.4314730000000  0.4904460000000 1.0
C      1  0.5479620000000  0.4291710000000  0.5496000000000 1.0
C      1  0.4784330000000  0.4524040000000  0.4751100000000 1.0
C      1  0.5023760000000  0.4530300000000  0.4550770000000 1.0
C      1  0.5289790000000  0.4594510000000  0.4731830000000 1.0
C      1  0.5338480000000  0.4564530000000  0.5241240000000 1.0
C      1  0.5111610000000  0.4625280000000  0.5472800000000 1.0
C      1  0.4807280000000  0.4625580000000  0.5329330000000 1.0
C      1  0.4483440000000  0.4650910000000  0.4719140000000 1.0
C      1  0.4855060000000  0.4055850000000  0.5290750000000 1.0
C      1  0.4660890000000  0.4013690000000  0.5091630000000 1.0
C      1  0.4745670000000  0.4033500000000  0.4820020000000 1.0
C      1  0.4997000000000  0.4020840000000  0.4698770000000 1.0
C      1  0.5229460000000  0.4058220000000  0.4843290000000 1.0
C      1  0.5295110000000  0.4047280000000  0.5108820000000 1.0
C      1  0.5130100000000  0.4003300000000  0.5329520000000 1.0
C      1  0.4968330000000  0.5233550000000  0.4913010000000 1.0
C      1  0.4940910000000  0.5534020000000  0.4891120000000 1.0
C      1  0.5000690000000  0.4908350000000  0.4954190000000 1.0
C      1  0.4911260000000  0.4616380000000  0.5005710000000 1.0
C      1  0.4949930000000  0.5814880000000  0.4989160000000 1.0
END
