TITL C-2622956-4641-140 0.000520622625889283 125000 -920.641431732019 0 0 171 (C1) n - 1
REM
REM in /nfs/bkarasulu/CARBON/AIRSS/Generating-Clusters/AIREBO/with-SteepDescent/Higher-Symm/SD-CG/HFTN-CG
REM
REM
REM
REM
REM
REM ./C.cell (b20cbc046b6831c77cfcea5457e17084)
REM
REM compiler GCC version 9.2.1 20190827 (Red Hat 9.2.1-1)
REM options -cpp -mtune=generic -march=x86-64 -g -O0 -fpre-include=/usr/include/finclude/math-vector-fortran.h
REM seed 1783524129 -1228671572 -2076908625 -885914357 -615770048 1327236903 1807845247 63028612 1762825053 921365191 -1409873511 563976015 -436917885 -857674658 962888394 758600544 -1652692908 351220322 1243877180 505796115 -1127441516 -1234706154 -59004079 1746341803 403921165 -1534181125 2114918521 -1919670469 1626031360 1515110179 -1207238856 -837825031 273671741
REM
CELL 1.54180   50.00000   50.00000   50.00000   90.00000   90.00000   90.00000
LATT -1
SFAC C  
C      1  0.4380090000000  0.5042530000000  0.5777540000000 1.0
C      1  0.3995290000000  0.4927270000000  0.5124820000000 1.0
C      1  0.4283930000000  0.5061880000000  0.4388200000000 1.0
C      1  0.4875940000000  0.4938330000000  0.3983920000000 1.0
C      1  0.5623850000000  0.5059370000000  0.4263000000000 1.0
C      1  0.5982440000000  0.4945000000000  0.4894400000000 1.0
C      1  0.5780590000000  0.5079930000000  0.5560540000000 1.0
C      1  0.5127170000000  0.4956270000000  0.6009240000000 1.0
C      1  0.4452770000000  0.4072900000000  0.4573880000000 1.0
C      1  0.4943780000000  0.5890990000000  0.4295190000000 1.0
C      1  0.5421560000000  0.4070350000000  0.4477180000000 1.0
C      1  0.5606390000000  0.6015590000000  0.4939290000000 1.0
C      1  0.5588220000000  0.4058570000000  0.5488790000000 1.0
C      1  0.5061810000000  0.5991040000000  0.5687610000000 1.0
C      1  0.4639370000000  0.3964010000000  0.5490490000000 1.0
C      1  0.4325710000000  0.6032690000000  0.4916690000000 1.0
C      1  0.5108430000000  0.4462330000000  0.5917630000000 1.0
C      1  0.4446450000000  0.5534770000000  0.5746410000000 1.0
C      1  0.4051400000000  0.4416420000000  0.5282010000000 1.0
C      1  0.4300230000000  0.5541190000000  0.4437210000000 1.0
C      1  0.4769420000000  0.4463720000000  0.4025610000000 1.0
C      1  0.5554620000000  0.5544850000000  0.4331680000000 1.0
C      1  0.5927970000000  0.4455020000000  0.4817840000000 1.0
C      1  0.5876650000000  0.5554610000000  0.5477270000000 1.0
C      1  0.4914980000000  0.4870310000000  0.5757010000000 1.0
C      1  0.4472300000000  0.5035430000000  0.5450320000000 1.0
C      1  0.4305050000000  0.4919520000000  0.4987710000000 1.0
C      1  0.4550580000000  0.5100300000000  0.4552170000000 1.0
C      1  0.5012100000000  0.4934430000000  0.4288740000000 1.0
C      1  0.5437640000000  0.5088070000000  0.4516120000000 1.0
C      1  0.5672520000000  0.4903030000000  0.4951120000000 1.0
C      1  0.5452600000000  0.5090690000000  0.5471210000000 1.0
C      1  0.5663920000000  0.4206640000000  0.5232310000000 1.0
C      1  0.5274510000000  0.5734010000000  0.5648220000000 1.0
C      1  0.4763960000000  0.4175560000000  0.5716510000000 1.0
C      1  0.4355870000000  0.5839960000000  0.5195170000000 1.0
C      1  0.4303950000000  0.4184060000000  0.4803470000000 1.0
C      1  0.4671050000000  0.5795570000000  0.4335640000000 1.0
C      1  0.5197520000000  0.4154490000000  0.4289110000000 1.0
C      1  0.5660110000000  0.5803920000000  0.4679180000000 1.0
C      1  0.4912900000000  0.5415130000000  0.4107940000000 1.0
C      1  0.5557910000000  0.4556350000000  0.4344330000000 1.0
C      1  0.5900140000000  0.5446330000000  0.4874290000000 1.0
C      1  0.5694000000000  0.4589750000000  0.5549810000000 1.0
C      1  0.5037670000000  0.5448610000000  0.5914740000000 1.0
C      1  0.4430800000000  0.4539960000000  0.5693150000000 1.0
C      1  0.4120780000000  0.5447890000000  0.5072390000000 1.0
C      1  0.4323670000000  0.4551980000000  0.4424460000000 1.0
C      1  0.4783330000000  0.5258740000000  0.5920610000000 1.0
C      1  0.4276930000000  0.4687520000000  0.5468220000000 1.0
C      1  0.4074250000000  0.5298350000000  0.4781380000000 1.0
C      1  0.4489220000000  0.4762640000000  0.4222680000000 1.0
C      1  0.5223520000000  0.5309510000000  0.4069590000000 1.0
C      1  0.5782490000000  0.4768870000000  0.4485960000000 1.0
C      1  0.5880120000000  0.5247140000000  0.5133670000000 1.0
C      1  0.5466010000000  0.4697320000000  0.5762470000000 1.0
C      1  0.5565300000000  0.4505710000000  0.5258310000000 1.0
C      1  0.5188620000000  0.5406920000000  0.5612940000000 1.0
C      1  0.4742790000000  0.4469650000000  0.5596310000000 1.0
C      1  0.4427480000000  0.5512050000000  0.5161640000000 1.0
C      1  0.4428260000000  0.4446410000000  0.4712800000000 1.0
C      1  0.4769200000000  0.5499180000000  0.4396450000000 1.0
C      1  0.5260110000000  0.4433630000000  0.4445370000000 1.0
C      1  0.5593440000000  0.5498410000000  0.4760140000000 1.0
C      1  0.5917920000000  0.5017520000000  0.4334390000000 1.0
C      1  0.6106820000000  0.4995270000000  0.5171490000000 1.0
C      1  0.5644480000000  0.4940940000000  0.5818440000000 1.0
C      1  0.4835200000000  0.5024470000000  0.6114720000000 1.0
C      1  0.4127940000000  0.4920680000000  0.5617080000000 1.0
C      1  0.3903440000000  0.5057000000000  0.4839590000000 1.0
C      1  0.4346140000000  0.5032710000000  0.4088200000000 1.0
C      1  0.5168100000000  0.5062730000000  0.3900520000000 1.0
C      1  0.4708320000000  0.4793370000000  0.5498120000000 1.0
C      1  0.4469420000000  0.5175300000000  0.5140210000000 1.0
C      1  0.4558400000000  0.4865640000000  0.4772580000000 1.0
C      1  0.4870500000000  0.5183480000000  0.4471950000000 1.0
C      1  0.5242880000000  0.4820010000000  0.4511050000000 1.0
C      1  0.5548540000000  0.5176560000000  0.4825350000000 1.0
C      1  0.5531940000000  0.4844050000000  0.5250670000000 1.0
C      1  0.5143810000000  0.5073820000000  0.5612940000000 1.0
C      1  0.4487520000000  0.5298920000000  0.5883520000000 1.0
C      1  0.3987560000000  0.4701700000000  0.5313290000000 1.0
C      1  0.4143960000000  0.5315160000000  0.4477020000000 1.0
C      1  0.4676750000000  0.4722280000000  0.3973830000000 1.0
C      1  0.5523950000000  0.5329880000000  0.4155940000000 1.0
C      1  0.5994630000000  0.4701360000000  0.4708910000000 1.0
C      1  0.5949470000000  0.5287140000000  0.5438250000000 1.0
C      1  0.5265680000000  0.4682830000000  0.5981360000000 1.0
C      1  0.4449990000000  0.4758930000000  0.5907070000000 1.0
C      1  0.4011750000000  0.5223230000000  0.5243210000000 1.0
C      1  0.4161700000000  0.4804740000000  0.4487350000000 1.0
C      1  0.4747180000000  0.5218260000000  0.3954480000000 1.0
C      1  0.5507880000000  0.4796380000000  0.4158270000000 1.0
C      1  0.6040360000000  0.5203600000000  0.4742100000000 1.0
C      1  0.5904140000000  0.4797110000000  0.5531080000000 1.0
C      1  0.5262430000000  0.5224460000000  0.5963110000000 1.0
C      1  0.5246330000000  0.4818560000000  0.4070150000000 1.0
C      1  0.6084410000000  0.5171770000000  0.4477460000000 1.0
C      1  0.6124350000000  0.4820500000000  0.5374740000000 1.0
C      1  0.5481240000000  0.5204130000000  0.5793190000000 1.0
C      1  0.4711090000000  0.4769920000000  0.6009390000000 1.0
C      1  0.4167540000000  0.5190940000000  0.5475060000000 1.0
C      1  0.4078720000000  0.4819880000000  0.4751420000000 1.0
C      1  0.4478960000000  0.5202100000000  0.3928000000000 1.0
C      1  0.5055270000000  0.4523970000000  0.4701350000000 1.0
C      1  0.5264380000000  0.5457640000000  0.4835750000000 1.0
C      1  0.5284710000000  0.4560470000000  0.5109790000000 1.0
C      1  0.5124600000000  0.5546370000000  0.5328920000000 1.0
C      1  0.4993720000000  0.4466580000000  0.5366850000000 1.0
C      1  0.4735870000000  0.5573260000000  0.5244060000000 1.0
C      1  0.4682700000000  0.4512730000000  0.4899830000000 1.0
C      1  0.4807630000000  0.5479110000000  0.4733790000000 1.0
C      1  0.4411160000000  0.5264880000000  0.4817180000000 1.0
C      1  0.4682600000000  0.4708700000000  0.4497460000000 1.0
C      1  0.5192730000000  0.5270550000000  0.4406640000000 1.0
C      1  0.5516770000000  0.4740070000000  0.4696330000000 1.0
C      1  0.5543480000000  0.5299500000000  0.5142510000000 1.0
C      1  0.5308390000000  0.4720150000000  0.5474930000000 1.0
C      1  0.4840090000000  0.5215660000000  0.5587170000000 1.0
C      1  0.4537380000000  0.4633150000000  0.5251510000000 1.0
C      1  0.5229770000000  0.5231330000000  0.5256010000000 1.0
C      1  0.5012610000000  0.4806230000000  0.5346830000000 1.0
C      1  0.4772780000000  0.5236870000000  0.5281140000000 1.0
C      1  0.4746340000000  0.4811620000000  0.5049380000000 1.0
C      1  0.4852210000000  0.5143260000000  0.4809120000000 1.0
C      1  0.4942960000000  0.4843560000000  0.4669790000000 1.0
C      1  0.5233620000000  0.5117080000000  0.4878690000000 1.0
C      1  0.5286220000000  0.4802010000000  0.4934460000000 1.0
C      1  0.4748920000000  0.5903140000000  0.5162560000000 1.0
C      1  0.4687630000000  0.4184100000000  0.4913100000000 1.0
C      1  0.4843570000000  0.5815130000000  0.4695070000000 1.0
C      1  0.5045980000000  0.4186290000000  0.4740720000000 1.0
C      1  0.5343420000000  0.5777670000000  0.4919440000000 1.0
C      1  0.5268020000000  0.4229750000000  0.5187160000000 1.0
C      1  0.5115610000000  0.5871140000000  0.5309870000000 1.0
C      1  0.4911620000000  0.4137090000000  0.5348650000000 1.0
C      1  0.5338050000000  0.5891810000000  0.4614420000000 1.0
C      1  0.5493520000000  0.4202210000000  0.4948320000000 1.0
C      1  0.5446390000000  0.5776560000000  0.5385480000000 1.0
C      1  0.5060780000000  0.4031640000000  0.5633620000000 1.0
C      1  0.4557270000000  0.5922010000000  0.5434230000000 1.0
C      1  0.4407390000000  0.4124700000000  0.5089240000000 1.0
C      1  0.4527850000000  0.5897900000000  0.4599790000000 1.0
C      1  0.4922030000000  0.4218990000000  0.4430800000000 1.0
C      1  0.4359530000000  0.4339830000000  0.5295460000000 1.0
C      1  0.4478210000000  0.5584350000000  0.4721770000000 1.0
C      1  0.4718230000000  0.4413240000000  0.4328280000000 1.0
C      1  0.5268880000000  0.5574870000000  0.4512540000000 1.0
C      1  0.5619350000000  0.4418660000000  0.4762640000000 1.0
C      1  0.5656160000000  0.5601590000000  0.5258790000000 1.0
C      1  0.5178550000000  0.4350580000000  0.5630130000000 1.0
C      1  0.4681650000000  0.5652800000000  0.5573180000000 1.0
C      1  0.5373560000000  0.6006400000000  0.5164700000000 1.0
C      1  0.5296220000000  0.4046960000000  0.5399940000000 1.0
C      1  0.4874580000000  0.6051330000000  0.5433090000000 1.0
C      1  0.4691140000000  0.3983370000000  0.5168980000000 1.0
C      1  0.4654350000000  0.5980330000000  0.4905210000000 1.0
C      1  0.4757830000000  0.4031320000000  0.4643650000000 1.0
C      1  0.5061310000000  0.5994850000000  0.4545490000000 1.0
C      1  0.5315080000000  0.4057860000000  0.4743220000000 1.0
C      1  0.5096060000000  0.5659630000000  0.4232250000000 1.0
C      1  0.5622760000000  0.4268190000000  0.4477520000000 1.0
C      1  0.5791990000000  0.5743510000000  0.4999790000000 1.0
C      1  0.5486840000000  0.4330190000000  0.5607790000000 1.0
C      1  0.4934620000000  0.5690940000000  0.5730500000000 1.0
C      1  0.4438710000000  0.4214400000000  0.5594570000000 1.0
C      1  0.4217440000000  0.5715210000000  0.4896470000000 1.0
C      1  0.4439620000000  0.4256200000000  0.4355700000000 1.0
C      1  0.4982660000000  0.4457540000000  0.5027030000000 1.0
C      1  0.4986620000000  0.5528340000000  0.5018690000000 1.0
C      1  0.4989540000000  0.5043550000000  0.5104150000000 1.0
END
