TITL C-2622957-9142-552 -0.0011608713972246 125000 -930.584583463948 0 0 170 (C1) n - 1
REM
REM in /nfs/bkarasulu/CARBON/AIRSS/Generating-Clusters/AIREBO/with-SteepDescent/Higher-Symm/SD-CG/HFTN-CG
REM
REM
REM
REM
REM
REM ./C.cell (b20cbc046b6831c77cfcea5457e17084)
REM
REM compiler GCC version 9.2.1 20190827 (Red Hat 9.2.1-1)
REM options -cpp -mtune=generic -march=x86-64 -g -O0 -fpre-include=/usr/include/finclude/math-vector-fortran.h
REM seed -2007406037 -507200471 1636487176 -1469137935 -1117820963 -1381958587 199379308 -712592184 343120418 1797879159 -907115759 63772165 -90562391 -614010740 -608929068 386740017 433694635 2117920118 461362416 704121918 892621755 222203531 1240913781 -1720988883 1621261080 -1154374367 1488583450 -843829608 -1224778526 1883849861 -688618207 -450182903 -1581502228
REM
CELL 1.54180   50.00000   50.00000   50.00000   90.00000   90.00000   90.00000
LATT -1
SFAC C  
C      1  0.5163530000000  0.4578760000000  0.4093860000000 1.0
C      1  0.5162590000000  0.5313060000000  0.5937730000000 1.0
C      1  0.4872230000000  0.4572070000000  0.4103570000000 1.0
C      1  0.4937390000000  0.5461340000000  0.6007370000000 1.0
C      1  0.4836580000000  0.5385050000000  0.5548620000000 1.0
C      1  0.4858100000000  0.4542460000000  0.4583420000000 1.0
C      1  0.5129040000000  0.5331420000000  0.5481830000000 1.0
C      1  0.5157410000000  0.4619320000000  0.4702080000000 1.0
C      1  0.4512560000000  0.4520000000000  0.4803370000000 1.0
C      1  0.4452140000000  0.5421720000000  0.5175980000000 1.0
C      1  0.5609380000000  0.4568430000000  0.4726960000000 1.0
C      1  0.5451190000000  0.5565070000000  0.5206610000000 1.0
C      1  0.4820990000000  0.4970900000000  0.5865100000000 1.0
C      1  0.4752890000000  0.4854570000000  0.4086590000000 1.0
C      1  0.5123860000000  0.5004100000000  0.5891480000000 1.0
C      1  0.5087290000000  0.4907980000000  0.4131390000000 1.0
C      1  0.4854070000000  0.5573880000000  0.4158850000000 1.0
C      1  0.4846790000000  0.4446260000000  0.5746670000000 1.0
C      1  0.5184600000000  0.5568540000000  0.4078590000000 1.0
C      1  0.5175020000000  0.4489730000000  0.5825720000000 1.0
C      1  0.4182880000000  0.4538340000000  0.5125090000000 1.0
C      1  0.4205140000000  0.5516280000000  0.4748020000000 1.0
C      1  0.5859740000000  0.4478180000000  0.5186790000000 1.0
C      1  0.5783630000000  0.5460790000000  0.4755540000000 1.0
C      1  0.5980520000000  0.4878810000000  0.4846350000000 1.0
C      1  0.6032930000000  0.5040680000000  0.5078880000000 1.0
C      1  0.4001840000000  0.5032370000000  0.4883140000000 1.0
C      1  0.3958670000000  0.5104990000000  0.5136820000000 1.0
C      1  0.5142540000000  0.5239680000000  0.4067250000000 1.0
C      1  0.5223000000000  0.4723800000000  0.6000910000000 1.0
C      1  0.4869470000000  0.5483390000000  0.3848690000000 1.0
C      1  0.4834530000000  0.4650810000000  0.5959980000000 1.0
C      1  0.5304460000000  0.4238210000000  0.4218930000000 1.0
C      1  0.5235320000000  0.5812750000000  0.5718080000000 1.0
C      1  0.4662610000000  0.4180780000000  0.4278150000000 1.0
C      1  0.4940600000000  0.5850300000000  0.5790660000000 1.0
C      1  0.4487610000000  0.5699140000000  0.5671140000000 1.0
C      1  0.4380700000000  0.4217260000000  0.4274760000000 1.0
C      1  0.5509150000000  0.5656720000000  0.5590460000000 1.0
C      1  0.5572430000000  0.4281140000000  0.4395810000000 1.0
C      1  0.5630850000000  0.5287350000000  0.5678330000000 1.0
C      1  0.5518260000000  0.4674760000000  0.4440320000000 1.0
C      1  0.4251340000000  0.5241630000000  0.5716520000000 1.0
C      1  0.4522090000000  0.4778630000000  0.4289130000000 1.0
C      1  0.4809140000000  0.4424870000000  0.4898900000000 1.0
C      1  0.4725000000000  0.5601800000000  0.5066630000000 1.0
C      1  0.5198200000000  0.4447450000000  0.4978840000000 1.0
C      1  0.5174310000000  0.5527270000000  0.5073970000000 1.0
C      1  0.4116220000000  0.5313480000000  0.5347550000000 1.0
C      1  0.4036160000000  0.4769740000000  0.4728180000000 1.0
C      1  0.5897790000000  0.5278960000000  0.5274710000000 1.0
C      1  0.5952100000000  0.4686800000000  0.4566220000000 1.0
C      1  0.4434460000000  0.5060390000000  0.5521230000000 1.0
C      1  0.4536390000000  0.4959070000000  0.4548490000000 1.0
C      1  0.5550490000000  0.5046080000000  0.5454860000000 1.0
C      1  0.5453380000000  0.4984530000000  0.4564590000000 1.0
C      1  0.5140850000000  0.5070130000000  0.3772520000000 1.0
C      1  0.5211480000000  0.4894270000000  0.6271990000000 1.0
C      1  0.4856570000000  0.5206680000000  0.3790060000000 1.0
C      1  0.4902580000000  0.4830810000000  0.6229650000000 1.0
C      1  0.5776750000000  0.5291430000000  0.4526970000000 1.0
C      1  0.5852280000000  0.4666450000000  0.5415530000000 1.0
C      1  0.4209900000000  0.5326760000000  0.4525060000000 1.0
C      1  0.4158860000000  0.4675920000000  0.5408900000000 1.0
C      1  0.4860650000000  0.5473300000000  0.4481940000000 1.0
C      1  0.4812330000000  0.4552980000000  0.5438650000000 1.0
C      1  0.5132220000000  0.5378910000000  0.4368060000000 1.0
C      1  0.5154620000000  0.4560390000000  0.5505540000000 1.0
C      1  0.5572440000000  0.4319500000000  0.5234850000000 1.0
C      1  0.5504240000000  0.5632680000000  0.4813290000000 1.0
C      1  0.4468890000000  0.4423610000000  0.5187010000000 1.0
C      1  0.4484380000000  0.5697120000000  0.4735310000000 1.0
C      1  0.5144310000000  0.4014350000000  0.4344310000000 1.0
C      1  0.5086410000000  0.5917410000000  0.5429330000000 1.0
C      1  0.4865030000000  0.3977950000000  0.4377600000000 1.0
C      1  0.4823180000000  0.6061490000000  0.5595470000000 1.0
C      1  0.5217100000000  0.4064820000000  0.5498610000000 1.0
C      1  0.5140150000000  0.5836140000000  0.4563570000000 1.0
C      1  0.4915600000000  0.4086010000000  0.5469970000000 1.0
C      1  0.4863960000000  0.5939760000000  0.4521720000000 1.0
C      1  0.4782550000000  0.4080710000000  0.4645400000000 1.0
C      1  0.4558310000000  0.5929080000000  0.5475850000000 1.0
C      1  0.5338200000000  0.4132670000000  0.4598320000000 1.0
C      1  0.5378580000000  0.5850040000000  0.5351990000000 1.0
C      1  0.4467870000000  0.5791760000000  0.4418580000000 1.0
C      1  0.4431230000000  0.4254870000000  0.5473160000000 1.0
C      1  0.5377290000000  0.5653800000000  0.4523560000000 1.0
C      1  0.5474480000000  0.4217810000000  0.5516880000000 1.0
C      1  0.4142100000000  0.5461720000000  0.5042590000000 1.0
C      1  0.4116800000000  0.4532980000000  0.4847120000000 1.0
C      1  0.5756970000000  0.5488390000000  0.5087170000000 1.0
C      1  0.5977810000000  0.4544870000000  0.4874260000000 1.0
C      1  0.4541540000000  0.4135390000000  0.5021620000000 1.0
C      1  0.4524790000000  0.5935630000000  0.4976290000000 1.0
C      1  0.5432580000000  0.4084150000000  0.5070850000000 1.0
C      1  0.5447640000000  0.5917250000000  0.4963960000000 1.0
C      1  0.5666480000000  0.4649050000000  0.5682630000000 1.0
C      1  0.5656710000000  0.5335750000000  0.4269380000000 1.0
C      1  0.4318060000000  0.4650550000000  0.5713240000000 1.0
C      1  0.4370510000000  0.5337470000000  0.4233950000000 1.0
C      1  0.5697410000000  0.4814640000000  0.5926920000000 1.0
C      1  0.5641940000000  0.5117600000000  0.4096700000000 1.0
C      1  0.4322210000000  0.4851580000000  0.5969650000000 1.0
C      1  0.4373870000000  0.5103290000000  0.4028600000000 1.0
C      1  0.5175520000000  0.4314550000000  0.5271530000000 1.0
C      1  0.5114970000000  0.5719650000000  0.4873000000000 1.0
C      1  0.4848190000000  0.4300880000000  0.5213270000000 1.0
C      1  0.4823670000000  0.5680640000000  0.4750440000000 1.0
C      1  0.5468480000000  0.5233930000000  0.5194190000000 1.0
C      1  0.5471530000000  0.4815000000000  0.4859640000000 1.0
C      1  0.4557790000000  0.5099650000000  0.5206810000000 1.0
C      1  0.4467350000000  0.4812580000000  0.4847490000000 1.0
C      1  0.5122990000000  0.5220750000000  0.4987450000000 1.0
C      1  0.5179610000000  0.4755240000000  0.5124760000000 1.0
C      1  0.4791580000000  0.5240450000000  0.4913580000000 1.0
C      1  0.4865310000000  0.4715120000000  0.5066900000000 1.0
C      1  0.4550760000000  0.4753700000000  0.5172100000000 1.0
C      1  0.4576110000000  0.5369510000000  0.4735760000000 1.0
C      1  0.5498970000000  0.4641340000000  0.5151340000000 1.0
C      1  0.5436610000000  0.5304760000000  0.4875270000000 1.0
C      1  0.4235560000000  0.4813930000000  0.4131360000000 1.0
C      1  0.4178430000000  0.5086290000000  0.5928540000000 1.0
C      1  0.5636740000000  0.4784900000000  0.4141200000000 1.0
C      1  0.5689490000000  0.5136840000000  0.5939150000000 1.0
C      1  0.4641040000000  0.5065410000000  0.3912230000000 1.0
C      1  0.4591460000000  0.4891630000000  0.6093820000000 1.0
C      1  0.5384670000000  0.4937640000000  0.3969150000000 1.0
C      1  0.5503120000000  0.4957800000000  0.6149150000000 1.0
C      1  0.5258510000000  0.4525070000000  0.4391390000000 1.0
C      1  0.5329560000000  0.5421900000000  0.5709720000000 1.0
C      1  0.4784230000000  0.4430800000000  0.4320730000000 1.0
C      1  0.4763010000000  0.5592770000000  0.5767580000000 1.0
C      1  0.5792490000000  0.4990230000000  0.4590250000000 1.0
C      1  0.5858650000000  0.4957010000000  0.5345060000000 1.0
C      1  0.4214240000000  0.5039660000000  0.4622150000000 1.0
C      1  0.4151770000000  0.4975440000000  0.5370020000000 1.0
C      1  0.5728840000000  0.4319710000000  0.4820270000000 1.0
C      1  0.5830820000000  0.5763110000000  0.5245440000000 1.0
C      1  0.4304610000000  0.4364180000000  0.4619310000000 1.0
C      1  0.4185190000000  0.5696790000000  0.5277330000000 1.0
C      1  0.4553390000000  0.4742130000000  0.5507270000000 1.0
C      1  0.4597090000000  0.5263590000000  0.4447500000000 1.0
C      1  0.5431580000000  0.4727450000000  0.5449570000000 1.0
C      1  0.5375550000000  0.5315520000000  0.4558250000000 1.0
C      1  0.5473000000000  0.5546690000000  0.4246750000000 1.0
C      1  0.5464370000000  0.4413000000000  0.5711210000000 1.0
C      1  0.4540490000000  0.5607100000000  0.4221680000000 1.0
C      1  0.4516760000000  0.4393700000000  0.5699590000000 1.0
C      1  0.5125620000000  0.6009990000000  0.4989350000000 1.0
C      1  0.5129880000000  0.4031710000000  0.5087850000000 1.0
C      1  0.4827100000000  0.6085850000000  0.5018050000000 1.0
C      1  0.4812170000000  0.3983070000000  0.5097850000000 1.0
C      1  0.5139500000000  0.4929920000000  0.4444110000000 1.0
C      1  0.5248800000000  0.5042240000000  0.5613910000000 1.0
C      1  0.4863860000000  0.4861600000000  0.4582440000000 1.0
C      1  0.4717800000000  0.5127910000000  0.5645140000000 1.0
C      1  0.5794930000000  0.4524900000000  0.4311420000000 1.0
C      1  0.5791220000000  0.5522200000000  0.5487350000000 1.0
C      1  0.4288500000000  0.4534810000000  0.4325160000000 1.0
C      1  0.4245010000000  0.5531700000000  0.5570740000000 1.0
C      1  0.4388720000000  0.5889280000000  0.5217870000000 1.0
C      1  0.4518350000000  0.4128770000000  0.4740850000000 1.0
C      1  0.5630210000000  0.5962250000000  0.5195070000000 1.0
C      1  0.5551000000000  0.4109480000000  0.4819390000000 1.0
C      1  0.4814910000000  0.5320430000000  0.5235470000000 1.0
C      1  0.4768120000000  0.4946520000000  0.4872780000000 1.0
C      1  0.5191520000000  0.5060040000000  0.5279170000000 1.0
C      1  0.5165330000000  0.4931100000000  0.4834100000000 1.0
C      1  0.5053450000000  0.4237950000000  0.4753460000000 1.0
C      1  0.4800500000000  0.5858480000000  0.5254930000000 1.0
END
