TITL C-2622965-4321-52 -0.00306868249648573 125000 -817.959150296985 0 0 150 (C1) n - 1
REM
REM in /nfs/bkarasulu/CARBON/AIRSS/Generating-Clusters/AIREBO/with-SteepDescent/Higher-Symm/SD-CG/HFTN-CG
REM
REM
REM
REM
REM
REM ./C.cell (b20cbc046b6831c77cfcea5457e17084)
REM
REM compiler GCC version 9.2.1 20190827 (Red Hat 9.2.1-1)
REM options -cpp -mtune=generic -march=x86-64 -g -O0 -fpre-include=/usr/include/finclude/math-vector-fortran.h
REM seed -1465714236 273800907 1186609953 -491011627 -1568144784 704554859 327144937 1058223614 1934797987 -1952890937 -964839633 -963793290 359982024 825576314 -1166655994 1137977849 1780160787 492587978 -736034737 -1534761434 2061919823 -764087359 -1937652448 687449657 697901286 549571488 429612493 362469347 -1454235552 907806985 -1620884744 1936643595 -92353661
REM
CELL 1.54180   50.00000   50.00000   50.00000   90.00000   90.00000   90.00000
LATT -1
SFAC C  
C      1  0.5907680000000  0.4510640000000  0.5169590000000 1.0
C      1  0.4698620000000  0.3983410000000  0.5160760000000 1.0
C      1  0.3888300000000  0.4908440000000  0.5088120000000 1.0
C      1  0.4593960000000  0.5981520000000  0.5146300000000 1.0
C      1  0.5819920000000  0.5672710000000  0.5234160000000 1.0
C      1  0.4229000000000  0.5273630000000  0.5312870000000 1.0
C      1  0.5157440000000  0.5796400000000  0.5153870000000 1.0
C      1  0.5765580000000  0.5214410000000  0.5230780000000 1.0
C      1  0.5350610000000  0.4338110000000  0.5169730000000 1.0
C      1  0.4523860000000  0.4366470000000  0.5278270000000 1.0
C      1  0.4832790000000  0.4775370000000  0.5951600000000 1.0
C      1  0.4790390000000  0.5083550000000  0.5881500000000 1.0
C      1  0.5028180000000  0.5300700000000  0.5979470000000 1.0
C      1  0.5256730000000  0.5049730000000  0.5959220000000 1.0
C      1  0.5132160000000  0.4760340000000  0.5975730000000 1.0
C      1  0.4793520000000  0.5173920000000  0.4886760000000 1.0
C      1  0.5068750000000  0.5282650000000  0.4831820000000 1.0
C      1  0.5246220000000  0.4997150000000  0.4885300000000 1.0
C      1  0.5075330000000  0.4755170000000  0.4809600000000 1.0
C      1  0.4794250000000  0.4856910000000  0.4828280000000 1.0
C      1  0.5077570000000  0.5541500000000  0.5807190000000 1.0
C      1  0.5565890000000  0.5113880000000  0.5833030000000 1.0
C      1  0.5267800000000  0.4548670000000  0.5831310000000 1.0
C      1  0.4637430000000  0.4608440000000  0.5808950000000 1.0
C      1  0.4515550000000  0.5230960000000  0.5824750000000 1.0
C      1  0.4772850000000  0.5240410000000  0.4478320000000 1.0
C      1  0.5109260000000  0.5294450000000  0.4506660000000 1.0
C      1  0.5263590000000  0.4989720000000  0.4485940000000 1.0
C      1  0.5129500000000  0.4677010000000  0.4494790000000 1.0
C      1  0.4679740000000  0.4963470000000  0.4561550000000 1.0
C      1  0.4847780000000  0.4928720000000  0.5584220000000 1.0
C      1  0.4943840000000  0.5253680000000  0.5556140000000 1.0
C      1  0.5220510000000  0.5184530000000  0.5652150000000 1.0
C      1  0.5286320000000  0.4894370000000  0.5565570000000 1.0
C      1  0.4966090000000  0.4615540000000  0.5522120000000 1.0
C      1  0.4310650000000  0.5604290000000  0.5094320000000 1.0
C      1  0.5490930000000  0.5890570000000  0.4956310000000 1.0
C      1  0.5881770000000  0.4885500000000  0.5035640000000 1.0
C      1  0.5111960000000  0.4081410000000  0.4979510000000 1.0
C      1  0.4183430000000  0.4566900000000  0.4956180000000 1.0
C      1  0.5549440000000  0.4868010000000  0.4969010000000 1.0
C      1  0.5111750000000  0.4506750000000  0.4995940000000 1.0
C      1  0.4583640000000  0.4700430000000  0.4957760000000 1.0
C      1  0.4561020000000  0.5393010000000  0.5003350000000 1.0
C      1  0.5058870000000  0.5583200000000  0.4907920000000 1.0
C      1  0.5934470000000  0.4933020000000  0.5319830000000 1.0
C      1  0.5192210000000  0.4069560000000  0.5279020000000 1.0
C      1  0.4215540000000  0.4503350000000  0.5235300000000 1.0
C      1  0.4246890000000  0.5606890000000  0.5380130000000 1.0
C      1  0.5457770000000  0.5879250000000  0.5281920000000 1.0
C      1  0.3985570000000  0.4907160000000  0.5389320000000 1.0
C      1  0.4715080000000  0.5858730000000  0.5439420000000 1.0
C      1  0.5798240000000  0.5526690000000  0.5539460000000 1.0
C      1  0.5771630000000  0.4467530000000  0.5477010000000 1.0
C      1  0.4750190000000  0.4104990000000  0.5474120000000 1.0
C      1  0.4394490000000  0.4824760000000  0.4634400000000 1.0
C      1  0.4613440000000  0.5486680000000  0.4618120000000 1.0
C      1  0.5349860000000  0.5493560000000  0.4641800000000 1.0
C      1  0.5499970000000  0.4766520000000  0.4586950000000 1.0
C      1  0.4976400000000  0.4395710000000  0.4609400000000 1.0
C      1  0.4891140000000  0.4743530000000  0.5229110000000 1.0
C      1  0.4764180000000  0.5050990000000  0.5175760000000 1.0
C      1  0.4975590000000  0.5300380000000  0.5237250000000 1.0
C      1  0.5235540000000  0.5142420000000  0.5164590000000 1.0
C      1  0.5200790000000  0.4854740000000  0.5255910000000 1.0
C      1  0.4170570000000  0.4694410000000  0.5456730000000 1.0
C      1  0.4442910000000  0.5706840000000  0.5569710000000 1.0
C      1  0.5529980000000  0.5733520000000  0.5510030000000 1.0
C      1  0.5877720000000  0.4776950000000  0.5538530000000 1.0
C      1  0.5060140000000  0.4111630000000  0.5527110000000 1.0
C      1  0.5514220000000  0.5340690000000  0.5581600000000 1.0
C      1  0.5509540000000  0.4641890000000  0.5610840000000 1.0
C      1  0.4793740000000  0.4379180000000  0.5654060000000 1.0
C      1  0.4521430000000  0.5019900000000  0.5555820000000 1.0
C      1  0.4817500000000  0.5569710000000  0.5589920000000 1.0
C      1  0.4443330000000  0.4441960000000  0.4395010000000 1.0
C      1  0.4482760000000  0.5277980000000  0.4304170000000 1.0
C      1  0.5084320000000  0.5569590000000  0.4308230000000 1.0
C      1  0.5570230000000  0.5120920000000  0.4419140000000 1.0
C      1  0.5341960000000  0.4473140000000  0.4321380000000 1.0
C      1  0.4429010000000  0.4500150000000  0.4730440000000 1.0
C      1  0.4376340000000  0.5313780000000  0.4735420000000 1.0
C      1  0.5269380000000  0.5797900000000  0.4770400000000 1.0
C      1  0.5623450000000  0.5124280000000  0.4758050000000 1.0
C      1  0.5253890000000  0.4309060000000  0.4782840000000 1.0
C      1  0.4819120000000  0.4428980000000  0.5121410000000 1.0
C      1  0.4438580000000  0.5016780000000  0.5225860000000 1.0
C      1  0.4725300000000  0.5499200000000  0.5270250000000 1.0
C      1  0.5461140000000  0.5365290000000  0.5244220000000 1.0
C      1  0.5528340000000  0.4750820000000  0.5287590000000 1.0
C      1  0.4515260000000  0.5579490000000  0.4145000000000 1.0
C      1  0.5397820000000  0.5561760000000  0.4181820000000 1.0
C      1  0.5730860000000  0.4900840000000  0.4215570000000 1.0
C      1  0.5105520000000  0.4297180000000  0.4166310000000 1.0
C      1  0.4368030000000  0.4660460000000  0.4227140000000 1.0
C      1  0.4078630000000  0.5234220000000  0.4672370000000 1.0
C      1  0.4964560000000  0.5921080000000  0.4688680000000 1.0
C      1  0.5906930000000  0.5306990000000  0.4775890000000 1.0
C      1  0.5705780000000  0.4274450000000  0.4703420000000 1.0
C      1  0.4317630000000  0.4195370000000  0.4832350000000 1.0
C      1  0.4826470000000  0.4760180000000  0.3966240000000 1.0
C      1  0.4646280000000  0.5013910000000  0.3848750000000 1.0
C      1  0.4910080000000  0.5226350000000  0.3888710000000 1.0
C      1  0.5202470000000  0.5059630000000  0.3942990000000 1.0
C      1  0.5093440000000  0.4771970000000  0.3939530000000 1.0
C      1  0.5057030000000  0.6070800000000  0.4979850000000 1.0
C      1  0.5966180000000  0.5358310000000  0.5037130000000 1.0
C      1  0.5570330000000  0.4168050000000  0.4973330000000 1.0
C      1  0.4339190000000  0.4147870000000  0.5094570000000 1.0
C      1  0.3912660000000  0.5256040000000  0.4885570000000 1.0
C      1  0.5706940000000  0.4866440000000  0.5772930000000 1.0
C      1  0.5112330000000  0.4321060000000  0.5759370000000 1.0
C      1  0.4405280000000  0.4738250000000  0.5651760000000 1.0
C      1  0.4548700000000  0.5518950000000  0.5791900000000 1.0
C      1  0.5327590000000  0.5599710000000  0.5698760000000 1.0
C      1  0.5230190000000  0.4550380000000  0.4017240000000 1.0
C      1  0.4515260000000  0.4743690000000  0.4007650000000 1.0
C      1  0.4602780000000  0.5294820000000  0.4001080000000 1.0
C      1  0.5150710000000  0.5379990000000  0.4044490000000 1.0
C      1  0.5477420000000  0.5082640000000  0.4084710000000 1.0
C      1  0.4902570000000  0.5795160000000  0.4406860000000 1.0
C      1  0.5799780000000  0.5361840000000  0.4489170000000 1.0
C      1  0.5644750000000  0.4374730000000  0.4440720000000 1.0
C      1  0.4622080000000  0.4240870000000  0.4313430000000 1.0
C      1  0.4218660000000  0.5150890000000  0.4406810000000 1.0
C      1  0.4425240000000  0.4065890000000  0.5413180000000 1.0
C      1  0.3941440000000  0.5207380000000  0.5220940000000 1.0
C      1  0.4956080000000  0.6024830000000  0.5305360000000 1.0
C      1  0.6056590000000  0.5470820000000  0.5324430000000 1.0
C      1  0.5648740000000  0.4236760000000  0.5298370000000 1.0
C      1  0.4899380000000  0.4258570000000  0.4345690000000 1.0
C      1  0.4229070000000  0.4863730000000  0.4378180000000 1.0
C      1  0.4632280000000  0.5693490000000  0.4389770000000 1.0
C      1  0.5558060000000  0.5519990000000  0.4415650000000 1.0
C      1  0.5680250000000  0.4674760000000  0.4384480000000 1.0
C      1  0.4529140000000  0.5338400000000  0.5440900000000 1.0
C      1  0.5183440000000  0.5541800000000  0.5330250000000 1.0
C      1  0.5569200000000  0.5035940000000  0.5440890000000 1.0
C      1  0.5254150000000  0.4502880000000  0.5434550000000 1.0
C      1  0.4555700000000  0.4704970000000  0.5274330000000 1.0
C      1  0.4084340000000  0.4822940000000  0.4914230000000 1.0
C      1  0.4698150000000  0.5917940000000  0.4901140000000 1.0
C      1  0.5661320000000  0.5659550000000  0.5017860000000 1.0
C      1  0.5785620000000  0.4498650000000  0.4933450000000 1.0
C      1  0.4835500000000  0.4073630000000  0.4941870000000 1.0
C      1  0.4731000000000  0.4362100000000  0.4804550000000 1.0
C      1  0.4327000000000  0.5021930000000  0.4903070000000 1.0
C      1  0.4761580000000  0.5621450000000  0.4855140000000 1.0
C      1  0.5512900000000  0.5401280000000  0.4909970000000 1.0
C      1  0.5469350000000  0.4568330000000  0.4829690000000 1.0
END
