TITL C-2622956-4641-826 -0.00137184165668855 125000 -368.639869962358 0 0 67 (C1) n - 1
REM
REM in /nfs/bkarasulu/CARBON/AIRSS/Generating-Clusters/AIREBO/with-SteepDescent/Higher-Symm/SD-CG/HFTN-CG
REM
REM
REM
REM
REM
REM ./C.cell (b20cbc046b6831c77cfcea5457e17084)
REM
REM compiler GCC version 9.2.1 20190827 (Red Hat 9.2.1-1)
REM options -cpp -mtune=generic -march=x86-64 -g -O0 -fpre-include=/usr/include/finclude/math-vector-fortran.h
REM seed 145590662 -87395493 854807901 -2104999120 -861707381 636823195 750642018 -257518086 -1771533873 1256700416 1050489704 597446804 -569669594 1911622519 400444761 -1514160442 939382344 -1765487362 507665386 -1419079540 -1885278461 -1533820901 -1260126051 938767402 88846107 -1084979164 -571706249 -107569239 299663331 946322915 2037426286 931299944 -826632267
REM
CELL 1.54180   50.00000   50.00000   50.00000   90.00000   90.00000   90.00000
LATT -1
SFAC C  
C      1  0.5521330000000  0.5489740000000  0.4956980000000 1.0
C      1  0.5264520000000  0.5380480000000  0.5372630000000 1.0
C      1  0.4924170000000  0.5408970000000  0.5328080000000 1.0
C      1  0.4558560000000  0.5410850000000  0.5170150000000 1.0
C      1  0.4711000000000  0.5430370000000  0.4699330000000 1.0
C      1  0.5024020000000  0.5445700000000  0.4561270000000 1.0
C      1  0.5363000000000  0.5489190000000  0.4659610000000 1.0
C      1  0.5292810000000  0.4904530000000  0.4757810000000 1.0
C      1  0.5299830000000  0.5020670000000  0.5055940000000 1.0
C      1  0.5094490000000  0.4882260000000  0.5259920000000 1.0
C      1  0.4822010000000  0.5015740000000  0.5283580000000 1.0
C      1  0.4642200000000  0.5014520000000  0.5092200000000 1.0
C      1  0.4723100000000  0.4862220000000  0.4829830000000 1.0
C      1  0.4986900000000  0.4970150000000  0.4644100000000 1.0
C      1  0.4953340000000  0.4340700000000  0.4679160000000 1.0
C      1  0.5221900000000  0.4374110000000  0.4749000000000 1.0
C      1  0.5300060000000  0.4242860000000  0.5000950000000 1.0
C      1  0.5167040000000  0.4279370000000  0.5486120000000 1.0
C      1  0.4855790000000  0.4160270000000  0.5390020000000 1.0
C      1  0.4714390000000  0.4219020000000  0.5086440000000 1.0
C      1  0.4809630000000  0.4150940000000  0.4840500000000 1.0
C      1  0.5755530000000  0.5155670000000  0.4729650000000 1.0
C      1  0.5681420000000  0.5103170000000  0.5416660000000 1.0
C      1  0.5054710000000  0.5159780000000  0.5766640000000 1.0
C      1  0.4459180000000  0.5095510000000  0.5592510000000 1.0
C      1  0.4180610000000  0.5201260000000  0.4897080000000 1.0
C      1  0.4583860000000  0.5174730000000  0.4286350000000 1.0
C      1  0.5337050000000  0.5139220000000  0.4298930000000 1.0
C      1  0.4928620000000  0.5758630000000  0.4654220000000 1.0
C      1  0.5206840000000  0.5778690000000  0.4731110000000 1.0
C      1  0.5321080000000  0.5702240000000  0.4995380000000 1.0
C      1  0.5201820000000  0.5679880000000  0.5247480000000 1.0
C      1  0.4912460000000  0.5748140000000  0.5307130000000 1.0
C      1  0.4676170000000  0.5685730000000  0.5131710000000 1.0
C      1  0.4708890000000  0.5732560000000  0.4854980000000 1.0
C      1  0.5055740000000  0.5173050000000  0.4398300000000 1.0
C      1  0.5542310000000  0.5281140000000  0.4516460000000 1.0
C      1  0.5506350000000  0.5249250000000  0.5167080000000 1.0
C      1  0.5292940000000  0.5209910000000  0.5636130000000 1.0
C      1  0.4772470000000  0.5200400000000  0.5549870000000 1.0
C      1  0.4354900000000  0.5180590000000  0.5140880000000 1.0
C      1  0.4498560000000  0.5270980000000  0.4538340000000 1.0
C      1  0.4787010000000  0.4549440000000  0.4582570000000 1.0
C      1  0.5424820000000  0.4611480000000  0.4716330000000 1.0
C      1  0.5420350000000  0.4544560000000  0.5050680000000 1.0
C      1  0.5204930000000  0.4571450000000  0.5315950000000 1.0
C      1  0.4873900000000  0.4492800000000  0.5320920000000 1.0
C      1  0.4601310000000  0.4531340000000  0.5115830000000 1.0
C      1  0.4544540000000  0.4604730000000  0.4788260000000 1.0
C      1  0.5629200000000  0.4644260000000  0.4459610000000 1.0
C      1  0.5647140000000  0.4780820000000  0.5029580000000 1.0
C      1  0.5396000000000  0.4725100000000  0.5551660000000 1.0
C      1  0.4849280000000  0.4664110000000  0.5591750000000 1.0
C      1  0.4386210000000  0.4707990000000  0.5283590000000 1.0
C      1  0.4340130000000  0.4822100000000  0.4659470000000 1.0
C      1  0.4802590000000  0.4736890000000  0.4371530000000 1.0
C      1  0.5688640000000  0.5042910000000  0.4967520000000 1.0
C      1  0.5480950000000  0.4996610000000  0.5594880000000 1.0
C      1  0.4882160000000  0.4906560000000  0.5681360000000 1.0
C      1  0.4357230000000  0.4967510000000  0.5368310000000 1.0
C      1  0.4308440000000  0.5104460000000  0.4666920000000 1.0
C      1  0.4811280000000  0.5008150000000  0.4288730000000 1.0
C      1  0.5500540000000  0.4942790000000  0.4508090000000 1.0
C      1  0.4991740000000  0.4765580000000  0.4978910000000 1.0
C      1  0.4844640000000  0.5347170000000  0.5002530000000 1.0
C      1  0.5009900000000  0.5112980000000  0.4944650000000 1.0
C      1  0.5105210000000  0.4201100000000  0.5175320000000 1.0
END
