TITL C-2622962-9663-483 0.000150169648620375 125000 -452.685772377323 0 0 75 (C1) n - 1
REM
REM in /nfs/bkarasulu/CARBON/AIRSS/Generating-Clusters/AIREBO/with-SteepDescent/Higher-Symm/SD-CG/HFTN-CG
REM
REM
REM
REM
REM
REM ./C.cell (b20cbc046b6831c77cfcea5457e17084)
REM
REM compiler GCC version 9.2.1 20190827 (Red Hat 9.2.1-1)
REM options -cpp -mtune=generic -march=x86-64 -g -O0 -fpre-include=/usr/include/finclude/math-vector-fortran.h
REM seed -1817240770 488836388 1630989222 445029637 105022666 1230476586 1809908010 -1808957584 -1307348418 2091212914 -1758325921 -650563631 -1160870580 148529565 -2121632903 126707547 600159201 -2054845906 -300166530 1324451845 -959789004 177693542 1359583014 677549214 -1150844250 2075435498 971061573 -1840429636 1376885054 -669186400 31311667 1205133554 -1301578945
REM
CELL 1.54180   50.00000   50.00000   50.00000   90.00000   90.00000   90.00000
LATT -1
SFAC C  
C      1  0.4740020000000  0.4744860000000  0.5597510000000 1.0
C      1  0.5500660000000  0.4698520000000  0.5462350000000 1.0
C      1  0.5596830000000  0.4726560000000  0.4662370000000 1.0
C      1  0.4891010000000  0.4682150000000  0.4308440000000 1.0
C      1  0.4319370000000  0.4705460000000  0.4919000000000 1.0
C      1  0.5256920000000  0.4762230000000  0.5648420000000 1.0
C      1  0.4461750000000  0.4682920000000  0.5495120000000 1.0
C      1  0.4436440000000  0.4777880000000  0.4642530000000 1.0
C      1  0.5199770000000  0.4755830000000  0.4305970000000 1.0
C      1  0.5743110000000  0.4669840000000  0.4922790000000 1.0
C      1  0.5139860000000  0.4908350000000  0.5379090000000 1.0
C      1  0.5419750000000  0.5046380000000  0.4986790000000 1.0
C      1  0.5134850000000  0.4880900000000  0.4600980000000 1.0
C      1  0.4671740000000  0.4953420000000  0.4763800000000 1.0
C      1  0.4674180000000  0.5077430000000  0.5247760000000 1.0
C      1  0.4869800000000  0.4919240000000  0.5370110000000 1.0
C      1  0.4586190000000  0.5087260000000  0.4991480000000 1.0
C      1  0.4891400000000  0.5012470000000  0.4607880000000 1.0
C      1  0.5344510000000  0.4885480000000  0.4770600000000 1.0
C      1  0.5334610000000  0.5051440000000  0.5244380000000 1.0
C      1  0.4419050000000  0.5462700000000  0.4528480000000 1.0
C      1  0.4363910000000  0.5452870000000  0.5374580000000 1.0
C      1  0.5155530000000  0.5442560000000  0.5698250000000 1.0
C      1  0.5712090000000  0.5449740000000  0.5060270000000 1.0
C      1  0.5276420000000  0.5447540000000  0.4379520000000 1.0
C      1  0.5548680000000  0.5416990000000  0.4526920000000 1.0
C      1  0.5583310000000  0.5475680000000  0.5328960000000 1.0
C      1  0.4846620000000  0.5446760000000  0.5668190000000 1.0
C      1  0.4288580000000  0.5477030000000  0.5084170000000 1.0
C      1  0.4703870000000  0.5442980000000  0.4422650000000 1.0
C      1  0.5121400000000  0.5629980000000  0.5446560000000 1.0
C      1  0.5471390000000  0.5636030000000  0.4983250000000 1.0
C      1  0.5130830000000  0.5666860000000  0.4552870000000 1.0
C      1  0.4571490000000  0.5675530000000  0.4716220000000 1.0
C      1  0.4583270000000  0.5654680000000  0.5282810000000 1.0
C      1  0.4810620000000  0.5667860000000  0.5441200000000 1.0
C      1  0.4486920000000  0.5695900000000  0.4981950000000 1.0
C      1  0.4859930000000  0.5642300000000  0.4593320000000 1.0
C      1  0.5393760000000  0.5622480000000  0.4716430000000 1.0
C      1  0.5343220000000  0.5667100000000  0.5280570000000 1.0
C      1  0.4851430000000  0.5195820000000  0.4354720000000 1.0
C      1  0.4302990000000  0.5218500000000  0.4937750000000 1.0
C      1  0.4672870000000  0.5229840000000  0.5699290000000 1.0
C      1  0.5509140000000  0.5216040000000  0.5451170000000 1.0
C      1  0.5703650000000  0.5207790000000  0.4622620000000 1.0
C      1  0.5135180000000  0.5248370000000  0.4245730000000 1.0
C      1  0.5701170000000  0.5181890000000  0.4928680000000 1.0
C      1  0.5347570000000  0.5243900000000  0.5707600000000 1.0
C      1  0.4475550000000  0.5192730000000  0.5465440000000 1.0
C      1  0.4276440000000  0.5247850000000  0.4634370000000 1.0
C      1  0.5215380000000  0.4469010000000  0.4440310000000 1.0
C      1  0.4547960000000  0.4493490000000  0.4609740000000 1.0
C      1  0.4483260000000  0.4464710000000  0.5322520000000 1.0
C      1  0.5167550000000  0.4472570000000  0.5566270000000 1.0
C      1  0.5617410000000  0.4454550000000  0.5047350000000 1.0
C      1  0.4819420000000  0.4484210000000  0.4488000000000 1.0
C      1  0.5420130000000  0.4472090000000  0.4655950000000 1.0
C      1  0.5452550000000  0.4494750000000  0.5286820000000 1.0
C      1  0.4871880000000  0.4479100000000  0.5514840000000 1.0
C      1  0.4466000000000  0.4504050000000  0.5033400000000 1.0
C      1  0.5737200000000  0.4960590000000  0.4504810000000 1.0
C      1  0.4750420000000  0.4908030000000  0.4233310000000 1.0
C      1  0.4190640000000  0.4923720000000  0.5024340000000 1.0
C      1  0.4731840000000  0.4983500000000  0.5809590000000 1.0
C      1  0.5657460000000  0.4922790000000  0.5442260000000 1.0
C      1  0.4262430000000  0.5002740000000  0.4508630000000 1.0
C      1  0.5250950000000  0.5019390000000  0.4143180000000 1.0
C      1  0.5853720000000  0.4904730000000  0.5016290000000 1.0
C      1  0.5311600000000  0.5003650000000  0.5836570000000 1.0
C      1  0.4310700000000  0.4913640000000  0.5499030000000 1.0
C      1  0.5291240000000  0.4368510000000  0.4946020000000 1.0
C      1  0.5140320000000  0.4366850000000  0.5244250000000 1.0
C      1  0.5043480000000  0.4358720000000  0.4712300000000 1.0
C      1  0.4744640000000  0.4398100000000  0.4869730000000 1.0
C      1  0.4802160000000  0.4375520000000  0.5202600000000 1.0
END
