TITL C-2622968-4806-315 0.00133635950490954 125000 -1003.43185477284 0 0 187 (C1) n - 1
REM
REM in /nfs/bkarasulu/CARBON/AIRSS/Generating-Clusters/AIREBO/with-SteepDescent/Higher-Symm/SD-CG/HFTN-CG
REM
REM
REM
REM
REM
REM ./C.cell (b20cbc046b6831c77cfcea5457e17084)
REM
REM compiler GCC version 9.2.1 20190827 (Red Hat 9.2.1-1)
REM options -cpp -mtune=generic -march=x86-64 -g -O0 -fpre-include=/usr/include/finclude/math-vector-fortran.h
REM seed 618654864 625041777 -859898156 2012063173 -2032390970 310786613 794796613 2107131197 2089173172 1402370384 1539466403 1438932629 425135140 -1390022927 -1255198644 -1736389616 -599556279 1878882555 -2029966872 -302168525 52235839 51654274 255802826 -1023916630 1596877302 361409214 1895794000 1321461709 1498451056 -1094463726 1998071298 619141658 2133326195
REM
CELL 1.54180   50.00000   50.00000   50.00000   90.00000   90.00000   90.00000
LATT -1
SFAC C  
C      1  0.4726180000000  0.5587080000000  0.4729110000000 1.0
C      1  0.4707560000000  0.4382810000000  0.4609600000000 1.0
C      1  0.4826610000000  0.5090930000000  0.5668240000000 1.0
C      1  0.4720030000000  0.5764900000000  0.4223650000000 1.0
C      1  0.4834860000000  0.3829530000000  0.4780000000000 1.0
C      1  0.4656290000000  0.5368230000000  0.6098640000000 1.0
C      1  0.5792160000000  0.4650330000000  0.4430880000000 1.0
C      1  0.5850530000000  0.4669750000000  0.5510740000000 1.0
C      1  0.5723530000000  0.5627980000000  0.5004870000000 1.0
C      1  0.4025100000000  0.4881260000000  0.4577920000000 1.0
C      1  0.4409950000000  0.4829950000000  0.5407900000000 1.0
C      1  0.4183250000000  0.5431610000000  0.4840970000000 1.0
C      1  0.5152950000000  0.4678040000000  0.4920930000000 1.0
C      1  0.5243670000000  0.5027210000000  0.5332920000000 1.0
C      1  0.5144410000000  0.5185310000000  0.4803440000000 1.0
C      1  0.5727090000000  0.5490750000000  0.5543680000000 1.0
C      1  0.5687110000000  0.5319670000000  0.4369710000000 1.0
C      1  0.5646060000000  0.4221870000000  0.5106710000000 1.0
C      1  0.4537720000000  0.5934700000000  0.4362270000000 1.0
C      1  0.4614540000000  0.3926210000000  0.4604840000000 1.0
C      1  0.4558790000000  0.5110640000000  0.6165260000000 1.0
C      1  0.5455200000000  0.3849600000000  0.4853270000000 1.0
C      1  0.5571480000000  0.5344040000000  0.5986250000000 1.0
C      1  0.5512810000000  0.5736720000000  0.4234820000000 1.0
C      1  0.5420700000000  0.4418370000000  0.5268610000000 1.0
C      1  0.5466830000000  0.5525750000000  0.5335910000000 1.0
C      1  0.5524300000000  0.5053220000000  0.4504580000000 1.0
C      1  0.5930390000000  0.4533290000000  0.4687310000000 1.0
C      1  0.6039690000000  0.4894850000000  0.5421310000000 1.0
C      1  0.5941690000000  0.5436190000000  0.4872110000000 1.0
C      1  0.5299040000000  0.4898170000000  0.4706630000000 1.0
C      1  0.5376710000000  0.4808310000000  0.5122480000000 1.0
C      1  0.5318480000000  0.5251660000000  0.5087920000000 1.0
C      1  0.5688450000000  0.4817760000000  0.4119140000000 1.0
C      1  0.5737900000000  0.4281470000000  0.5469160000000 1.0
C      1  0.5725590000000  0.5825920000000  0.5368520000000 1.0
C      1  0.5480980000000  0.5761230000000  0.4554600000000 1.0
C      1  0.5464520000000  0.4040220000000  0.4657010000000 1.0
C      1  0.5607670000000  0.5041490000000  0.5852400000000 1.0
C      1  0.4564680000000  0.4250730000000  0.4261120000000 1.0
C      1  0.4636250000000  0.4748870000000  0.6025870000000 1.0
C      1  0.4564450000000  0.6055520000000  0.4827790000000 1.0
C      1  0.4426050000000  0.4409570000000  0.5693610000000 1.0
C      1  0.4219540000000  0.5989980000000  0.5220890000000 1.0
C      1  0.4374870000000  0.4773240000000  0.3859610000000 1.0
C      1  0.5896890000000  0.5073460000000  0.5207820000000 1.0
C      1  0.5858030000000  0.5118970000000  0.4882790000000 1.0
C      1  0.5795950000000  0.4600000000000  0.4940150000000 1.0
C      1  0.4050960000000  0.5432440000000  0.5128140000000 1.0
C      1  0.3988820000000  0.4885680000000  0.4239850000000 1.0
C      1  0.4152050000000  0.4653870000000  0.5286530000000 1.0
C      1  0.3741880000000  0.5080150000000  0.4365780000000 1.0
C      1  0.3983820000000  0.4839820000000  0.5102240000000 1.0
C      1  0.3963320000000  0.5105440000000  0.5190620000000 1.0
C      1  0.6165830000000  0.4403510000000  0.4669960000000 1.0
C      1  0.6288520000000  0.4921210000000  0.5493130000000 1.0
C      1  0.6180860000000  0.5515450000000  0.4803060000000 1.0
C      1  0.4473610000000  0.6058690000000  0.5320520000000 1.0
C      1  0.4639050000000  0.4849820000000  0.3900660000000 1.0
C      1  0.4711330000000  0.4267950000000  0.5677220000000 1.0
C      1  0.4901800000000  0.3891550000000  0.5249570000000 1.0
C      1  0.4684970000000  0.5824810000000  0.5835510000000 1.0
C      1  0.4983140000000  0.5315350000000  0.3955630000000 1.0
C      1  0.4139810000000  0.4753500000000  0.3991080000000 1.0
C      1  0.4240440000000  0.4502400000000  0.5562470000000 1.0
C      1  0.4072340000000  0.5764900000000  0.5212210000000 1.0
C      1  0.4932990000000  0.5266380000000  0.5394800000000 1.0
C      1  0.4649250000000  0.5244360000000  0.4520560000000 1.0
C      1  0.4779530000000  0.4422410000000  0.5102410000000 1.0
C      1  0.5462200000000  0.3958780000000  0.5102280000000 1.0
C      1  0.5545710000000  0.5550230000000  0.5803460000000 1.0
C      1  0.5525860000000  0.5470770000000  0.4147070000000 1.0
C      1  0.5396540000000  0.5841310000000  0.5420720000000 1.0
C      1  0.5501900000000  0.5013430000000  0.4196270000000 1.0
C      1  0.5417600000000  0.4246150000000  0.5548800000000 1.0
C      1  0.5287780000000  0.4777340000000  0.5558010000000 1.0
C      1  0.5163560000000  0.5544480000000  0.5039980000000 1.0
C      1  0.5124440000000  0.4736290000000  0.4476260000000 1.0
C      1  0.4956920000000  0.5983270000000  0.4965270000000 1.0
C      1  0.4923710000000  0.4384990000000  0.4150750000000 1.0
C      1  0.5085380000000  0.4604130000000  0.5886380000000 1.0
C      1  0.4822570000000  0.4901800000000  0.6214840000000 1.0
C      1  0.4690620000000  0.6075920000000  0.4572850000000 1.0
C      1  0.4729170000000  0.4043750000000  0.4367070000000 1.0
C      1  0.4572720000000  0.5950740000000  0.5567730000000 1.0
C      1  0.4723380000000  0.5109210000000  0.3907990000000 1.0
C      1  0.4714780000000  0.4045550000000  0.5486010000000 1.0
C      1  0.4218430000000  0.4360730000000  0.5124570000000 1.0
C      1  0.4139930000000  0.5546080000000  0.5436130000000 1.0
C      1  0.4136450000000  0.5144120000000  0.4075180000000 1.0
C      1  0.4136620000000  0.5153090000000  0.5425530000000 1.0
C      1  0.3957960000000  0.5241300000000  0.4418440000000 1.0
C      1  0.4026250000000  0.4741210000000  0.4830560000000 1.0
C      1  0.5152750000000  0.6191740000000  0.4869130000000 1.0
C      1  0.5147870000000  0.4198150000000  0.4053500000000 1.0
C      1  0.5285910000000  0.4580300000000  0.6111990000000 1.0
C      1  0.4362540000000  0.5658740000000  0.4365200000000 1.0
C      1  0.4430730000000  0.4073300000000  0.4766800000000 1.0
C      1  0.4375330000000  0.5179060000000  0.5887140000000 1.0
C      1  0.4767730000000  0.5707220000000  0.5552440000000 1.0
C      1  0.4758980000000  0.5232990000000  0.4198930000000 1.0
C      1  0.4695520000000  0.4145560000000  0.5189360000000 1.0
C      1  0.5195330000000  0.4348650000000  0.4847730000000 1.0
C      1  0.5312790000000  0.5183590000000  0.5627030000000 1.0
C      1  0.5216510000000  0.5471090000000  0.4608450000000 1.0
C      1  0.4696980000000  0.4695110000000  0.5272670000000 1.0
C      1  0.4685150000000  0.5346040000000  0.4953320000000 1.0
C      1  0.4670960000000  0.4967260000000  0.4716520000000 1.0
C      1  0.4989370000000  0.6094170000000  0.4585980000000 1.0
C      1  0.5025710000000  0.4041330000000  0.4320970000000 1.0
C      1  0.5120080000000  0.4872910000000  0.6172320000000 1.0
C      1  0.4765230000000  0.4585830000000  0.5569320000000 1.0
C      1  0.4612200000000  0.5522620000000  0.5207230000000 1.0
C      1  0.4512840000000  0.4882070000000  0.4427810000000 1.0
C      1  0.4700550000000  0.4790580000000  0.5766560000000 1.0
C      1  0.4611990000000  0.5781730000000  0.4983540000000 1.0
C      1  0.4603380000000  0.4565740000000  0.4341640000000 1.0
C      1  0.5573490000000  0.5282070000000  0.4873110000000 1.0
C      1  0.5544130000000  0.4664560000000  0.4742970000000 1.0
C      1  0.5628530000000  0.4925340000000  0.5303100000000 1.0
C      1  0.5292710000000  0.6077210000000  0.5158850000000 1.0
C      1  0.5292610000000  0.4474480000000  0.4028320000000 1.0
C      1  0.5402300000000  0.4364070000000  0.5872130000000 1.0
C      1  0.5235230000000  0.3905580000000  0.5646070000000 1.0
C      1  0.5151170000000  0.6046210000000  0.5650350000000 1.0
C      1  0.5204950000000  0.4950750000000  0.3903220000000 1.0
C      1  0.5572300000000  0.4780590000000  0.5671700000000 1.0
C      1  0.5416870000000  0.5711570000000  0.4884880000000 1.0
C      1  0.5357930000000  0.4509590000000  0.4419400000000 1.0
C      1  0.5118530000000  0.5340700000000  0.4331160000000 1.0
C      1  0.5079680000000  0.4120550000000  0.5071910000000 1.0
C      1  0.5161260000000  0.5447770000000  0.5763410000000 1.0
C      1  0.4887760000000  0.5362920000000  0.5866930000000 1.0
C      1  0.4874690000000  0.5559100000000  0.4423300000000 1.0
C      1  0.4861660000000  0.4158220000000  0.4813590000000 1.0
C      1  0.4256830000000  0.5424400000000  0.4229380000000 1.0
C      1  0.4248490000000  0.4119120000000  0.5007040000000 1.0
C      1  0.4181630000000  0.5319220000000  0.5689170000000 1.0
C      1  0.4490350000000  0.4783270000000  0.5019870000000 1.0
C      1  0.4443090000000  0.5070910000000  0.5186490000000 1.0
C      1  0.4201660000000  0.5137450000000  0.4713220000000 1.0
C      1  0.5696580000000  0.4600840000000  0.5226810000000 1.0
C      1  0.5699500000000  0.5340160000000  0.5174860000000 1.0
C      1  0.5775660000000  0.4900170000000  0.4662430000000 1.0
C      1  0.5062090000000  0.6063210000000  0.5381390000000 1.0
C      1  0.5126100000000  0.4705010000000  0.3984170000000 1.0
C      1  0.5192870000000  0.4097900000000  0.5841800000000 1.0
C      1  0.5306120000000  0.5753550000000  0.5727740000000 1.0
C      1  0.5295180000000  0.5235940000000  0.4064980000000 1.0
C      1  0.5267260000000  0.4024360000000  0.5339050000000 1.0
C      1  0.4922400000000  0.5204750000000  0.5060330000000 1.0
C      1  0.4865190000000  0.4845020000000  0.4897720000000 1.0
C      1  0.4943570000000  0.4911870000000  0.5221780000000 1.0
C      1  0.5627170000000  0.5164410000000  0.5535950000000 1.0
C      1  0.5536880000000  0.5433560000000  0.4626330000000 1.0
C      1  0.5523530000000  0.4338990000000  0.4808220000000 1.0
C      1  0.4925590000000  0.5642470000000  0.5262530000000 1.0
C      1  0.4851200000000  0.4877420000000  0.4372500000000 1.0
C      1  0.5086090000000  0.4551800000000  0.5494390000000 1.0
C      1  0.5577710000000  0.5925180000000  0.5082130000000 1.0
C      1  0.5577730000000  0.4529890000000  0.4195730000000 1.0
C      1  0.5683260000000  0.4475410000000  0.5735380000000 1.0
C      1  0.5083440000000  0.4895260000000  0.5775040000000 1.0
C      1  0.5002980000000  0.5716220000000  0.4840110000000 1.0
C      1  0.4966820000000  0.4443870000000  0.4453020000000 1.0
C      1  0.4887060000000  0.3686370000000  0.5016350000000 1.0
C      1  0.4755180000000  0.5640130000000  0.6020670000000 1.0
C      1  0.4914690000000  0.5580200000000  0.4085060000000 1.0
C      1  0.6009100000000  0.5551030000000  0.5563950000000 1.0
C      1  0.5977980000000  0.5281770000000  0.4300280000000 1.0
C      1  0.5927660000000  0.4137970000000  0.5155210000000 1.0
C      1  0.4432340000000  0.5472970000000  0.4613150000000 1.0
C      1  0.4531740000000  0.4373290000000  0.4876840000000 1.0
C      1  0.4491490000000  0.5085300000000  0.5610880000000 1.0
C      1  0.4781620000000  0.5948600000000  0.5226720000000 1.0
C      1  0.4805300000000  0.4685560000000  0.4095530000000 1.0
C      1  0.5015140000000  0.4338280000000  0.5752910000000 1.0
C      1  0.5168410000000  0.5503740000000  0.5444240000000 1.0
C      1  0.4971360000000  0.5135510000000  0.4518300000000 1.0
C      1  0.5096360000000  0.4496370000000  0.5202730000000 1.0
C      1  0.5218920000000  0.4226360000000  0.4531010000000 1.0
C      1  0.5284280000000  0.5071330000000  0.5950190000000 1.0
C      1  0.5164020000000  0.5806840000000  0.4590050000000 1.0
C      1  0.4275090000000  0.5122440000000  0.4385100000000 1.0
C      1  0.4283680000000  0.4593740000000  0.4913800000000 1.0
C      1  0.4391000000000  0.5350600000000  0.5316220000000 1.0
C      1  0.4462280000000  0.5146720000000  0.4869180000000 1.0
END
