TITL C-2622964-2985-246 -0.00022811745537272 125000 -821.324874089437 0 0 148 (C1) n - 1
REM
REM in /nfs/bkarasulu/CARBON/AIRSS/Generating-Clusters/AIREBO/with-SteepDescent/Higher-Symm/SD-CG/HFTN-CG
REM
REM
REM
REM
REM
REM ./C.cell (b20cbc046b6831c77cfcea5457e17084)
REM
REM compiler GCC version 9.2.1 20190827 (Red Hat 9.2.1-1)
REM options -cpp -mtune=generic -march=x86-64 -g -O0 -fpre-include=/usr/include/finclude/math-vector-fortran.h
REM seed 15094497 -945537892 2008572807 -585509303 -1511306856 990014082 -25356950 553291520 622057740 -604292240 1169229294 -67982459 -1251083444 -1541160094 -1712799681 157463814 1245096854 -1617948150 855676276 240591739 -304418540 49332862 1878449793 1279142360 -1775657310 -1442226672 334978798 1182357532 -1655457772 -1371239758 2127160136 -1855459636 675854482
REM
CELL 1.54180   50.00000   50.00000   50.00000   90.00000   90.00000   90.00000
LATT -1
SFAC C  
C      1  0.5750550000000  0.5812180000000  0.4794710000000 1.0
C      1  0.5828020000000  0.5176210000000  0.5769270000000 1.0
C      1  0.5777600000000  0.4215180000000  0.5208310000000 1.0
C      1  0.5787030000000  0.4783040000000  0.4200230000000 1.0
C      1  0.5518350000000  0.5150410000000  0.5817940000000 1.0
C      1  0.5492310000000  0.4217110000000  0.5179210000000 1.0
C      1  0.5502620000000  0.4784000000000  0.4138030000000 1.0
C      1  0.5465100000000  0.5855220000000  0.4819670000000 1.0
C      1  0.4617590000000  0.4711710000000  0.5292360000000 1.0
C      1  0.4617510000000  0.4693680000000  0.4763150000000 1.0
C      1  0.4627090000000  0.5217810000000  0.4693040000000 1.0
C      1  0.4603620000000  0.5318660000000  0.5340130000000 1.0
C      1  0.5163180000000  0.4752380000000  0.4928620000000 1.0
C      1  0.5162000000000  0.4994300000000  0.4689400000000 1.0
C      1  0.5204220000000  0.5257470000000  0.5137280000000 1.0
C      1  0.5184740000000  0.4943180000000  0.5209850000000 1.0
C      1  0.4460460000000  0.4194170000000  0.5257500000000 1.0
C      1  0.4487140000000  0.4921110000000  0.4198610000000 1.0
C      1  0.4512560000000  0.5771320000000  0.4736380000000 1.0
C      1  0.4423970000000  0.5104040000000  0.5847620000000 1.0
C      1  0.4855200000000  0.4867080000000  0.5197580000000 1.0
C      1  0.4841930000000  0.4852330000000  0.4879150000000 1.0
C      1  0.4856190000000  0.5191110000000  0.4905480000000 1.0
C      1  0.4885610000000  0.5205290000000  0.5243960000000 1.0
C      1  0.4346640000000  0.5174540000000  0.4259040000000 1.0
C      1  0.4279820000000  0.5667490000000  0.5212630000000 1.0
C      1  0.4320380000000  0.4838100000000  0.5662760000000 1.0
C      1  0.4409750000000  0.4278530000000  0.4932910000000 1.0
C      1  0.4839000000000  0.5204110000000  0.4067740000000 1.0
C      1  0.4828900000000  0.5903600000000  0.5248130000000 1.0
C      1  0.4810520000000  0.4735210000000  0.5910750000000 1.0
C      1  0.4883310000000  0.4098770000000  0.4771530000000 1.0
C      1  0.5769050000000  0.4537380000000  0.5584390000000 1.0
C      1  0.5821090000000  0.4403440000000  0.4618290000000 1.0
C      1  0.5651480000000  0.5355490000000  0.4439030000000 1.0
C      1  0.5851260000000  0.5609700000000  0.5350620000000 1.0
C      1  0.4786530000000  0.4108140000000  0.5237520000000 1.0
C      1  0.4720890000000  0.4702170000000  0.4088570000000 1.0
C      1  0.4760120000000  0.5900980000000  0.4755980000000 1.0
C      1  0.4717330000000  0.5272190000000  0.5810910000000 1.0
C      1  0.4679190000000  0.4369630000000  0.4746610000000 1.0
C      1  0.4662960000000  0.5244030000000  0.4355870000000 1.0
C      1  0.4603660000000  0.5657860000000  0.5315990000000 1.0
C      1  0.4626990000000  0.4693280000000  0.5627620000000 1.0
C      1  0.5844610000000  0.5538330000000  0.4833720000000 1.0
C      1  0.6031040000000  0.5120040000000  0.5499400000000 1.0
C      1  0.5887240000000  0.4460470000000  0.5161730000000 1.0
C      1  0.5864860000000  0.4853710000000  0.4475070000000 1.0
C      1  0.6055680000000  0.5084370000000  0.5158540000000 1.0
C      1  0.6018420000000  0.4768500000000  0.5095560000000 1.0
C      1  0.5990010000000  0.4909240000000  0.4786490000000 1.0
C      1  0.6008070000000  0.5240960000000  0.4859930000000 1.0
C      1  0.3889360000000  0.4767730000000  0.5371190000000 1.0
C      1  0.4026070000000  0.4566780000000  0.4874660000000 1.0
C      1  0.4149570000000  0.5276160000000  0.4425400000000 1.0
C      1  0.4034600000000  0.5512080000000  0.5040450000000 1.0
C      1  0.5636540000000  0.4675660000000  0.5162020000000 1.0
C      1  0.5546900000000  0.4886240000000  0.4522150000000 1.0
C      1  0.5514500000000  0.5462680000000  0.4865920000000 1.0
C      1  0.5693880000000  0.5140440000000  0.5458780000000 1.0
C      1  0.4599780000000  0.4382040000000  0.5666460000000 1.0
C      1  0.4686560000000  0.4320720000000  0.4415930000000 1.0
C      1  0.4631840000000  0.5568780000000  0.4337860000000 1.0
C      1  0.4688260000000  0.5749880000000  0.5632260000000 1.0
C      1  0.5547620000000  0.4859830000000  0.5501870000000 1.0
C      1  0.5493230000000  0.4690450000000  0.4865250000000 1.0
C      1  0.5532090000000  0.5026800000000  0.4832570000000 1.0
C      1  0.5534630000000  0.5232440000000  0.5104670000000 1.0
C      1  0.4159840000000  0.5575320000000  0.4488490000000 1.0
C      1  0.4289000000000  0.5519360000000  0.5519590000000 1.0
C      1  0.4164860000000  0.4607470000000  0.5500300000000 1.0
C      1  0.4230000000000  0.4431840000000  0.4734570000000 1.0
C      1  0.5563320000000  0.4346630000000  0.4516050000000 1.0
C      1  0.5360210000000  0.5506350000000  0.4501600000000 1.0
C      1  0.5584490000000  0.5694950000000  0.5394070000000 1.0
C      1  0.5454880000000  0.4466190000000  0.5626380000000 1.0
C      1  0.5397080000000  0.5885330000000  0.5419070000000 1.0
C      1  0.5283760000000  0.4590480000000  0.5856580000000 1.0
C      1  0.5402250000000  0.4128820000000  0.4517040000000 1.0
C      1  0.5395510000000  0.5359130000000  0.4211550000000 1.0
C      1  0.5286970000000  0.5691640000000  0.5832610000000 1.0
C      1  0.5136140000000  0.4058660000000  0.5660930000000 1.0
C      1  0.5206110000000  0.4312310000000  0.4058030000000 1.0
C      1  0.5125750000000  0.5937590000000  0.4315030000000 1.0
C      1  0.4346910000000  0.4799020000000  0.4875550000000 1.0
C      1  0.4382640000000  0.5267160000000  0.4868760000000 1.0
C      1  0.4383180000000  0.5162250000000  0.5166860000000 1.0
C      1  0.4376960000000  0.4858060000000  0.5186360000000 1.0
C      1  0.5024530000000  0.5416870000000  0.5793640000000 1.0
C      1  0.4995670000000  0.4288350000000  0.5373390000000 1.0
C      1  0.4997330000000  0.4617230000000  0.4193500000000 1.0
C      1  0.4979560000000  0.5736880000000  0.4623030000000 1.0
C      1  0.4893370000000  0.4419360000000  0.5010290000000 1.0
C      1  0.4834280000000  0.4959730000000  0.4430440000000 1.0
C      1  0.4784010000000  0.5566370000000  0.5040220000000 1.0
C      1  0.4829290000000  0.4963100000000  0.5584070000000 1.0
C      1  0.4922630000000  0.5666760000000  0.4305770000000 1.0
C      1  0.4986840000000  0.5724710000000  0.5676230000000 1.0
C      1  0.4902410000000  0.4302460000000  0.5700050000000 1.0
C      1  0.4978510000000  0.4298430000000  0.4310320000000 1.0
C      1  0.4119000000000  0.4655180000000  0.5168980000000 1.0
C      1  0.4357180000000  0.4527030000000  0.4509760000000 1.0
C      1  0.4052680000000  0.5465370000000  0.4763890000000 1.0
C      1  0.4178640000000  0.5306930000000  0.5351360000000 1.0
C      1  0.4556780000000  0.4800830000000  0.4481530000000 1.0
C      1  0.4458910000000  0.5559620000000  0.4957260000000 1.0
C      1  0.4531150000000  0.5066520000000  0.5525540000000 1.0
C      1  0.4620390000000  0.4456060000000  0.5132320000000 1.0
C      1  0.5816960000000  0.4619140000000  0.4789590000000 1.0
C      1  0.5748260000000  0.5200150000000  0.4657190000000 1.0
C      1  0.5844230000000  0.5321630000000  0.5213410000000 1.0
C      1  0.5860420000000  0.4777980000000  0.5396690000000 1.0
C      1  0.5082520000000  0.5560170000000  0.5150120000000 1.0
C      1  0.5154530000000  0.4923680000000  0.5527510000000 1.0
C      1  0.5134420000000  0.4438340000000  0.4801210000000 1.0
C      1  0.5108770000000  0.5151500000000  0.4392560000000 1.0
C      1  0.3923010000000  0.5267660000000  0.5205630000000 1.0
C      1  0.3888180000000  0.4990600000000  0.5142620000000 1.0
C      1  0.4021910000000  0.4900560000000  0.4870180000000 1.0
C      1  0.4127140000000  0.5145610000000  0.4718040000000 1.0
C      1  0.5407330000000  0.4376170000000  0.4962790000000 1.0
C      1  0.5393650000000  0.5036560000000  0.4286380000000 1.0
C      1  0.5366650000000  0.5685120000000  0.5062490000000 1.0
C      1  0.5366130000000  0.4877190000000  0.5764140000000 1.0
C      1  0.5111610000000  0.4210720000000  0.4573020000000 1.0
C      1  0.5060100000000  0.5414230000000  0.4199090000000 1.0
C      1  0.5101860000000  0.5797810000000  0.5390450000000 1.0
C      1  0.5009650000000  0.4533110000000  0.5880770000000 1.0
C      1  0.5302660000000  0.5802460000000  0.4572230000000 1.0
C      1  0.5352120000000  0.5382930000000  0.5705740000000 1.0
C      1  0.5325050000000  0.4231550000000  0.5436160000000 1.0
C      1  0.5312540000000  0.4599270000000  0.4064020000000 1.0
C      1  0.4861090000000  0.3977600000000  0.5010540000000 1.0
C      1  0.4770100000000  0.4981930000000  0.3924070000000 1.0
C      1  0.4812850000000  0.6018680000000  0.5004990000000 1.0
C      1  0.4776420000000  0.4993550000000  0.5996790000000 1.0
C      1  0.5132670000000  0.4545710000000  0.5197810000000 1.0
C      1  0.5111090000000  0.4758830000000  0.4451920000000 1.0
C      1  0.4968910000000  0.5475290000000  0.4777720000000 1.0
C      1  0.5019680000000  0.5221760000000  0.5553610000000 1.0
C      1  0.5239010000000  0.5312870000000  0.4734080000000 1.0
C      1  0.5472060000000  0.5391730000000  0.5401440000000 1.0
C      1  0.5382010000000  0.4616140000000  0.5344130000000 1.0
C      1  0.5393800000000  0.4609010000000  0.4550370000000 1.0
C      1  0.4517550000000  0.4490650000000  0.4235250000000 1.0
C      1  0.4425230000000  0.5684250000000  0.4486680000000 1.0
C      1  0.4515080000000  0.5511180000000  0.5679220000000 1.0
C      1  0.4350850000000  0.4332390000000  0.5516060000000 1.0
END
