TITL C-2622967-6265-826 -0.00388929351485659 125000 -991.492086756779 0 0 184 (C1) n - 1
REM
REM in /nfs/bkarasulu/CARBON/AIRSS/Generating-Clusters/AIREBO/with-SteepDescent/Higher-Symm/SD-CG/HFTN-CG
REM
REM
REM
REM
REM
REM ./C.cell (b20cbc046b6831c77cfcea5457e17084)
REM
REM compiler GCC version 9.2.1 20190827 (Red Hat 9.2.1-1)
REM options -cpp -mtune=generic -march=x86-64 -g -O0 -fpre-include=/usr/include/finclude/math-vector-fortran.h
REM seed 1123664356 -1359279216 -907349222 484713784 -1529279832 -1409626383 -1700108377 62523096 2091561119 29889565 1011003088 -1373016406 -1044884235 1792234783 902107744 -258947103 -1327511889 -281309391 342042580 1256431387 -231729549 478527972 -165796664 1207340345 -1253689406 1877563071 1944094675 -151614344 -1484437013 -1473144116 800803619 2012109087 -2018281010
REM
CELL 1.54180   50.00000   50.00000   50.00000   90.00000   90.00000   90.00000
LATT -1
SFAC C  
C      1  0.5825500000000  0.4415180000000  0.5224330000000 1.0
C      1  0.5833100000000  0.4587940000000  0.4526790000000 1.0
C      1  0.5814980000000  0.5214890000000  0.4517950000000 1.0
C      1  0.5859900000000  0.5680540000000  0.4928960000000 1.0
C      1  0.5889590000000  0.5155960000000  0.5450590000000 1.0
C      1  0.5718120000000  0.4290770000000  0.4431360000000 1.0
C      1  0.5707240000000  0.5289520000000  0.4277930000000 1.0
C      1  0.5715080000000  0.5895920000000  0.5022350000000 1.0
C      1  0.5777190000000  0.5189910000000  0.5709550000000 1.0
C      1  0.5749440000000  0.4234640000000  0.5463170000000 1.0
C      1  0.4153040000000  0.5157370000000  0.5245410000000 1.0
C      1  0.4136640000000  0.4746400000000  0.5102320000000 1.0
C      1  0.4013680000000  0.4785120000000  0.4799530000000 1.0
C      1  0.4260810000000  0.4996520000000  0.4768970000000 1.0
C      1  0.4262330000000  0.5241050000000  0.4963940000000 1.0
C      1  0.4973280000000  0.4271360000000  0.5202020000000 1.0
C      1  0.4823310000000  0.4577690000000  0.4338920000000 1.0
C      1  0.4874090000000  0.5539050000000  0.4327310000000 1.0
C      1  0.4892630000000  0.5728180000000  0.5296190000000 1.0
C      1  0.4916500000000  0.4966620000000  0.5745290000000 1.0
C      1  0.4209070000000  0.4392570000000  0.5272710000000 1.0
C      1  0.4390440000000  0.4506820000000  0.4504730000000 1.0
C      1  0.4326010000000  0.5358410000000  0.4203520000000 1.0
C      1  0.4343160000000  0.5745230000000  0.5085720000000 1.0
C      1  0.4250250000000  0.5117030000000  0.5742000000000 1.0
C      1  0.4978620000000  0.5688390000000  0.4818460000000 1.0
C      1  0.4993640000000  0.5448660000000  0.5615340000000 1.0
C      1  0.4872140000000  0.4661150000000  0.5608690000000 1.0
C      1  0.4912630000000  0.4311880000000  0.4889680000000 1.0
C      1  0.4873180000000  0.4914040000000  0.4335580000000 1.0
C      1  0.5658800000000  0.4710570000000  0.5615390000000 1.0
C      1  0.5721880000000  0.4256650000000  0.4938430000000 1.0
C      1  0.5720570000000  0.4786610000000  0.4272100000000 1.0
C      1  0.5614340000000  0.5691060000000  0.4614990000000 1.0
C      1  0.5764700000000  0.5650470000000  0.5496280000000 1.0
C      1  0.5199610000000  0.5328690000000  0.4424590000000 1.0
C      1  0.5163340000000  0.5754860000000  0.5165890000000 1.0
C      1  0.5176790000000  0.5119370000000  0.5746070000000 1.0
C      1  0.5227160000000  0.4357830000000  0.5315120000000 1.0
C      1  0.5256470000000  0.4527450000000  0.4547610000000 1.0
C      1  0.4726930000000  0.5582480000000  0.3995840000000 1.0
C      1  0.4660250000000  0.6125400000000  0.5361020000000 1.0
C      1  0.4602870000000  0.5023100000000  0.6236440000000 1.0
C      1  0.4601750000000  0.4017180000000  0.5434330000000 1.0
C      1  0.4655790000000  0.4193000000000  0.4118600000000 1.0
C      1  0.4654500000000  0.5837230000000  0.4180740000000 1.0
C      1  0.4688730000000  0.5939440000000  0.5564490000000 1.0
C      1  0.4641060000000  0.4780530000000  0.6089780000000 1.0
C      1  0.4672400000000  0.3917970000000  0.5161460000000 1.0
C      1  0.4637500000000  0.4459260000000  0.4006550000000 1.0
C      1  0.4943160000000  0.3978000000000  0.5103380000000 1.0
C      1  0.4908580000000  0.4611080000000  0.4021740000000 1.0
C      1  0.4921360000000  0.5865750000000  0.4339320000000 1.0
C      1  0.4968520000000  0.5778240000000  0.5624120000000 1.0
C      1  0.4920050000000  0.4755980000000  0.5992110000000 1.0
C      1  0.4178000000000  0.4769270000000  0.4436650000000 1.0
C      1  0.4158380000000  0.5482340000000  0.4480940000000 1.0
C      1  0.4179130000000  0.5674580000000  0.5375040000000 1.0
C      1  0.4037050000000  0.4855620000000  0.5672400000000 1.0
C      1  0.4139470000000  0.4207770000000  0.4995900000000 1.0
C      1  0.4948740000000  0.5284590000000  0.5358030000000 1.0
C      1  0.4892670000000  0.4790020000000  0.5290510000000 1.0
C      1  0.4968750000000  0.4619320000000  0.4937160000000 1.0
C      1  0.4914920000000  0.4978690000000  0.4667400000000 1.0
C      1  0.4917030000000  0.5393770000000  0.4883720000000 1.0
C      1  0.4609020000000  0.4585760000000  0.5810480000000 1.0
C      1  0.4537380000000  0.3944190000000  0.4906430000000 1.0
C      1  0.4544300000000  0.4764360000000  0.4065600000000 1.0
C      1  0.4561350000000  0.5859790000000  0.4507690000000 1.0
C      1  0.4603000000000  0.5637440000000  0.5696930000000 1.0
C      1  0.4640310000000  0.4682520000000  0.4999410000000 1.0
C      1  0.4575650000000  0.4967420000000  0.4643740000000 1.0
C      1  0.4582100000000  0.5350080000000  0.4924070000000 1.0
C      1  0.4476090000000  0.5076350000000  0.5258730000000 1.0
C      1  0.4435310000000  0.4738520000000  0.5264870000000 1.0
C      1  0.5605900000000  0.5585230000000  0.4288040000000 1.0
C      1  0.5629020000000  0.5891590000000  0.5323030000000 1.0
C      1  0.5723670000000  0.4944820000000  0.5837540000000 1.0
C      1  0.5707610000000  0.3976920000000  0.5380060000000 1.0
C      1  0.5674120000000  0.4471000000000  0.4182810000000 1.0
C      1  0.4386070000000  0.4456910000000  0.4987040000000 1.0
C      1  0.4491600000000  0.4793230000000  0.4363940000000 1.0
C      1  0.4459910000000  0.5581830000000  0.4412390000000 1.0
C      1  0.4503130000000  0.5647800000000  0.5372050000000 1.0
C      1  0.4352680000000  0.4856940000000  0.5571300000000 1.0
C      1  0.4711280000000  0.5450460000000  0.5221300000000 1.0
C      1  0.4747800000000  0.5046160000000  0.5460950000000 1.0
C      1  0.4772230000000  0.4471920000000  0.5289210000000 1.0
C      1  0.4976680000000  0.4649540000000  0.4608330000000 1.0
C      1  0.4906080000000  0.5308240000000  0.4574610000000 1.0
C      1  0.5516720000000  0.5041900000000  0.4164540000000 1.0
C      1  0.5486870000000  0.5943480000000  0.4817510000000 1.0
C      1  0.5641360000000  0.5451510000000  0.5709180000000 1.0
C      1  0.5566270000000  0.4414500000000  0.5667990000000 1.0
C      1  0.5531640000000  0.4177760000000  0.4666520000000 1.0
C      1  0.5375900000000  0.4625460000000  0.5882530000000 1.0
C      1  0.5392980000000  0.4033070000000  0.4941490000000 1.0
C      1  0.5345550000000  0.4781800000000  0.4026910000000 1.0
C      1  0.5237990000000  0.5802660000000  0.4675640000000 1.0
C      1  0.5325920000000  0.5536110000000  0.5635340000000 1.0
C      1  0.4911010000000  0.5120430000000  0.4077450000000 1.0
C      1  0.4901680000000  0.6010910000000  0.4893970000000 1.0
C      1  0.4829660000000  0.5336520000000  0.5891360000000 1.0
C      1  0.4982390000000  0.4351550000000  0.5704090000000 1.0
C      1  0.4937170000000  0.4127630000000  0.4605550000000 1.0
C      1  0.4739640000000  0.5320260000000  0.3861940000000 1.0
C      1  0.4687270000000  0.6203110000000  0.5075160000000 1.0
C      1  0.4706920000000  0.5276390000000  0.6202810000000 1.0
C      1  0.4762450000000  0.4094230000000  0.5671780000000 1.0
C      1  0.4749690000000  0.4039440000000  0.4335610000000 1.0
C      1  0.5450960000000  0.4306230000000  0.5135790000000 1.0
C      1  0.5403590000000  0.4710950000000  0.4353330000000 1.0
C      1  0.5335620000000  0.5583220000000  0.4470600000000 1.0
C      1  0.5393840000000  0.5678540000000  0.5353110000000 1.0
C      1  0.5371180000000  0.4885460000000  0.5663260000000 1.0
C      1  0.4505990000000  0.5270100000000  0.4540180000000 1.0
C      1  0.4582920000000  0.5659260000000  0.4782190000000 1.0
C      1  0.4586060000000  0.5320180000000  0.5575510000000 1.0
C      1  0.4524770000000  0.4501700000000  0.5491970000000 1.0
C      1  0.4471590000000  0.4226450000000  0.4775020000000 1.0
C      1  0.5155610000000  0.5676560000000  0.5890580000000 1.0
C      1  0.5093850000000  0.4541440000000  0.5937170000000 1.0
C      1  0.5097690000000  0.3960790000000  0.4854980000000 1.0
C      1  0.5057900000000  0.4837470000000  0.3958850000000 1.0
C      1  0.5011290000000  0.5993110000000  0.4564560000000 1.0
C      1  0.5439730000000  0.4873280000000  0.4621950000000 1.0
C      1  0.5407020000000  0.5276680000000  0.4880040000000 1.0
C      1  0.5459650000000  0.5373160000000  0.5263130000000 1.0
C      1  0.5397360000000  0.4899140000000  0.5322650000000 1.0
C      1  0.5518250000000  0.4589540000000  0.5018490000000 1.0
C      1  0.4243920000000  0.5103530000000  0.4386330000000 1.0
C      1  0.4259500000000  0.5600980000000  0.4790770000000 1.0
C      1  0.4253550000000  0.5387960000000  0.5554220000000 1.0
C      1  0.4055850000000  0.4592340000000  0.5457970000000 1.0
C      1  0.4163510000000  0.4332420000000  0.4680440000000 1.0
C      1  0.5204630000000  0.5458170000000  0.5053620000000 1.0
C      1  0.5254410000000  0.5188670000000  0.5429350000000 1.0
C      1  0.5191020000000  0.4657970000000  0.5344670000000 1.0
C      1  0.5294910000000  0.4667260000000  0.4847630000000 1.0
C      1  0.5233460000000  0.5097210000000  0.4653330000000 1.0
C      1  0.5785350000000  0.5390500000000  0.5303060000000 1.0
C      1  0.5683720000000  0.4719570000000  0.5285640000000 1.0
C      1  0.5803810000000  0.4566600000000  0.4857100000000 1.0
C      1  0.5730170000000  0.4956610000000  0.4633920000000 1.0
C      1  0.5661660000000  0.5429800000000  0.4812830000000 1.0
C      1  0.4035400000000  0.5361900000000  0.4759130000000 1.0
C      1  0.3993370000000  0.5411870000000  0.5347980000000 1.0
C      1  0.3995960000000  0.4906580000000  0.5338760000000 1.0
C      1  0.3994210000000  0.4497520000000  0.4924870000000 1.0
C      1  0.3983580000000  0.5013500000000  0.4571380000000 1.0
C      1  0.4623190000000  0.5568840000000  0.6029480000000 1.0
C      1  0.4629250000000  0.4266790000000  0.5870660000000 1.0
C      1  0.4677820000000  0.3910690000000  0.4643180000000 1.0
C      1  0.4628930000000  0.5000550000000  0.3930050000000 1.0
C      1  0.4592080000000  0.6075520000000  0.4768760000000 1.0
C      1  0.5933750000000  0.4926090000000  0.5274230000000 1.0
C      1  0.6026580000000  0.4654990000000  0.5091200000000 1.0
C      1  0.6031600000000  0.4817650000000  0.4662540000000 1.0
C      1  0.5946370000000  0.5242730000000  0.4826640000000 1.0
C      1  0.5961910000000  0.5444910000000  0.5071360000000 1.0
C      1  0.4492110000000  0.5295650000000  0.5871980000000 1.0
C      1  0.4399700000000  0.4213650000000  0.5442800000000 1.0
C      1  0.4692370000000  0.4360420000000  0.4564150000000 1.0
C      1  0.4665440000000  0.5282360000000  0.4248640000000 1.0
C      1  0.4679120000000  0.5808670000000  0.5053000000000 1.0
C      1  0.5268560000000  0.4252110000000  0.4167520000000 1.0
C      1  0.5308030000000  0.5460670000000  0.3934660000000 1.0
C      1  0.5313170000000  0.6237670000000  0.5217260000000 1.0
C      1  0.5351930000000  0.5109670000000  0.6105290000000 1.0
C      1  0.5257720000000  0.3978650000000  0.5439090000000 1.0
C      1  0.5422980000000  0.4450050000000  0.4053520000000 1.0
C      1  0.5487750000000  0.5627960000000  0.4003380000000 1.0
C      1  0.5505060000000  0.6172480000000  0.5372810000000 1.0
C      1  0.5511660000000  0.4899310000000  0.6035380000000 1.0
C      1  0.5457020000000  0.3926200000000  0.5256680000000 1.0
C      1  0.5243570000000  0.4224110000000  0.4491370000000 1.0
C      1  0.5229820000000  0.5224910000000  0.4135340000000 1.0
C      1  0.5221430000000  0.6022400000000  0.5009100000000 1.0
C      1  0.5155550000000  0.5350550000000  0.5987670000000 1.0
C      1  0.5270840000000  0.4260120000000  0.5607790000000 1.0
C      1  0.5298380000000  0.5018030000000  0.5038950000000 1.0
C      1  0.5969340000000  0.4962710000000  0.4951180000000 1.0
C      1  0.5002160000000  0.4940090000000  0.5004450000000 1.0
C      1  0.4616070000000  0.5015960000000  0.4977830000000 1.0
END
