TITL C-2622962-9663-695 3.19926333179327e-08 125000 -62.7460958588741 0 0 11 (Cs) n - 1
REM
REM in /nfs/bkarasulu/CARBON/AIRSS/Generating-Clusters/AIREBO/with-SteepDescent/Higher-Symm/SD-CG/HFTN-CG
REM
REM
REM
REM
REM
REM ./C.cell (b20cbc046b6831c77cfcea5457e17084)
REM
REM compiler GCC version 9.2.1 20190827 (Red Hat 9.2.1-1)
REM options -cpp -mtune=generic -march=x86-64 -g -O0 -fpre-include=/usr/include/finclude/math-vector-fortran.h
REM seed 459828034 2032423520 -1208196903 1151167527 -1102386559 1893252630 -1484395558 -201138198 73076581 -2074323401 1578742722 -1060213263 1390934163 764605985 -1477827208 965997129 -1425393003 890870951 -1865438550 -501201168 -288856540 1419648006 -825884268 1232259284 1279442343 -274602738 -251185970 -135510367 -363028117 55996546 -1739343116 -663804348 -1028940424
REM
CELL 1.54180   50.00000   50.00000   50.00000   90.00000   90.00000   90.00000
LATT -1
SFAC C  
C      1  0.5000000000000  0.4786350000000  0.4571740000000 1.0
C      1  0.5000000000000  0.5051800000000  0.4524220000000 1.0
C      1  0.5000000000000  0.5300800000000  0.4627760000000 1.0
C      1  0.5000000000000  0.5454300000000  0.4849470000000 1.0
C      1  0.5000000000000  0.5463560000000  0.5118980000000 1.0
C      1  0.5000000000000  0.5325650000000  0.5350720000000 1.0
C      1  0.5000000000000  0.5084340000000  0.5471100000000 1.0
C      1  0.5000000000000  0.4816260000000  0.5441910000000 1.0
C      1  0.5000000000000  0.4606510000000  0.5272420000000 1.0
C      1  0.5000000000000  0.4521690000000  0.5016440000000 1.0
C      1  0.5000000000000  0.4588740000000  0.4755230000000 1.0
END
