TITL C-2622958-629-801 0.000474298991926257 125000 -513.923794235234 0 0 101 (C1) n - 1
REM
REM in /nfs/bkarasulu/CARBON/AIRSS/Generating-Clusters/AIREBO/with-SteepDescent/Higher-Symm/SD-CG/HFTN-CG
REM
REM
REM
REM
REM
REM ./C.cell (b20cbc046b6831c77cfcea5457e17084)
REM
REM compiler GCC version 9.2.1 20190827 (Red Hat 9.2.1-1)
REM options -cpp -mtune=generic -march=x86-64 -g -O0 -fpre-include=/usr/include/finclude/math-vector-fortran.h
REM seed 105942168 129660697 360974875 1889477052 83917068 1305172070 -703286082 727134802 -244373982 190153505 1446555357 35629868 719391789 -947583426 -906186656 -1956008650 -1752625315 -161443116 1629415055 -2132601703 274026767 -1178674815 1541904820 1968096401 482864470 458992457 -1028502568 -536316535 -1338969308 -1314491489 -1884336471 218273466 1594317806
REM
CELL 1.54180   50.00000   50.00000   50.00000   90.00000   90.00000   90.00000
LATT -1
SFAC C  
C      1  0.5378090000000  0.4453110000000  0.4601750000000 1.0
C      1  0.4287970000000  0.5008130000000  0.4748830000000 1.0
C      1  0.4907150000000  0.4978660000000  0.4687560000000 1.0
C      1  0.5327900000000  0.4892520000000  0.4412550000000 1.0
C      1  0.5785250000000  0.4683270000000  0.5217760000000 1.0
C      1  0.5369390000000  0.5425060000000  0.5174190000000 1.0
C      1  0.4545470000000  0.5004600000000  0.5806050000000 1.0
C      1  0.4796680000000  0.4931300000000  0.4970340000000 1.0
C      1  0.5595710000000  0.5065700000000  0.4884760000000 1.0
C      1  0.5490570000000  0.5780100000000  0.5352230000000 1.0
C      1  0.4095380000000  0.5012640000000  0.5255470000000 1.0
C      1  0.4747630000000  0.5856800000000  0.4823310000000 1.0
C      1  0.5019440000000  0.4693770000000  0.4051860000000 1.0
C      1  0.5185600000000  0.5524850000000  0.5394500000000 1.0
C      1  0.5390100000000  0.4873740000000  0.5588420000000 1.0
C      1  0.4484180000000  0.4530960000000  0.4652240000000 1.0
C      1  0.5577300000000  0.5555830000000  0.4724250000000 1.0
C      1  0.4957520000000  0.5455320000000  0.5073440000000 1.0
C      1  0.5447800000000  0.4560440000000  0.5692100000000 1.0
C      1  0.5299850000000  0.5813980000000  0.5144050000000 1.0
C      1  0.4606000000000  0.4748180000000  0.5625750000000 1.0
C      1  0.5338440000000  0.5562460000000  0.4498740000000 1.0
C      1  0.5870050000000  0.5166320000000  0.5615490000000 1.0
C      1  0.5170740000000  0.5119450000000  0.5810650000000 1.0
C      1  0.4950780000000  0.5133470000000  0.5163130000000 1.0
C      1  0.5749620000000  0.5342520000000  0.4805470000000 1.0
C      1  0.4948140000000  0.5409150000000  0.5691510000000 1.0
C      1  0.5084880000000  0.4682360000000  0.4362960000000 1.0
C      1  0.4959770000000  0.4583630000000  0.5676660000000 1.0
C      1  0.5217130000000  0.4954210000000  0.4825280000000 1.0
C      1  0.4552150000000  0.4219200000000  0.4811690000000 1.0
C      1  0.4485720000000  0.5394130000000  0.4299810000000 1.0
C      1  0.4083190000000  0.5498550000000  0.4956780000000 1.0
C      1  0.4325360000000  0.4538560000000  0.5338150000000 1.0
C      1  0.4857560000000  0.4964720000000  0.5565040000000 1.0
C      1  0.5448780000000  0.4893760000000  0.5195210000000 1.0
C      1  0.4893810000000  0.4305620000000  0.5483340000000 1.0
C      1  0.5552200000000  0.5571630000000  0.5543240000000 1.0
C      1  0.4128310000000  0.4854000000000  0.4998040000000 1.0
C      1  0.5267840000000  0.5160340000000  0.5090880000000 1.0
C      1  0.5653950000000  0.4845090000000  0.4464580000000 1.0
C      1  0.4479240000000  0.4507440000000  0.4970570000000 1.0
C      1  0.4694540000000  0.5796190000000  0.5321580000000 1.0
C      1  0.5416580000000  0.4351480000000  0.5555810000000 1.0
C      1  0.4264610000000  0.5227610000000  0.4964320000000 1.0
C      1  0.4624760000000  0.4917790000000  0.5246670000000 1.0
C      1  0.5905730000000  0.4857340000000  0.5025460000000 1.0
C      1  0.4564700000000  0.4900040000000  0.4312330000000 1.0
C      1  0.5282240000000  0.4937320000000  0.4096170000000 1.0
C      1  0.5625610000000  0.5015900000000  0.5435450000000 1.0
C      1  0.4407540000000  0.5521490000000  0.4980850000000 1.0
C      1  0.4197110000000  0.4588320000000  0.5055470000000 1.0
C      1  0.4227470000000  0.5185050000000  0.5485470000000 1.0
C      1  0.5118380000000  0.4961380000000  0.5403860000000 1.0
C      1  0.5179680000000  0.5161780000000  0.4558270000000 1.0
C      1  0.4832510000000  0.4280770000000  0.4629820000000 1.0
C      1  0.4339440000000  0.4832600000000  0.5336550000000 1.0
C      1  0.4724990000000  0.5397550000000  0.4614850000000 1.0
C      1  0.5061290000000  0.4381510000000  0.4105630000000 1.0
C      1  0.5831980000000  0.4741940000000  0.4739830000000 1.0
C      1  0.5287990000000  0.5419180000000  0.5693820000000 1.0
C      1  0.4928090000000  0.4303300000000  0.5143950000000 1.0
C      1  0.5634970000000  0.4496350000000  0.4900750000000 1.0
C      1  0.5185360000000  0.4240780000000  0.5357380000000 1.0
C      1  0.5138780000000  0.4787850000000  0.5112060000000 1.0
C      1  0.5038980000000  0.5406460000000  0.4748220000000 1.0
C      1  0.4811660000000  0.5463840000000  0.4303610000000 1.0
C      1  0.4833340000000  0.4682500000000  0.5376670000000 1.0
C      1  0.4654510000000  0.4963370000000  0.4028230000000 1.0
C      1  0.4792310000000  0.4599910000000  0.5046660000000 1.0
C      1  0.5292180000000  0.5580900000000  0.4895350000000 1.0
C      1  0.4878150000000  0.4576560000000  0.4718450000000 1.0
C      1  0.4933330000000  0.4142800000000  0.4900060000000 1.0
C      1  0.4556050000000  0.4162340000000  0.5146890000000 1.0
C      1  0.4612270000000  0.4424330000000  0.5356500000000 1.0
C      1  0.5750620000000  0.5394590000000  0.5459250000000 1.0
C      1  0.4553220000000  0.5615250000000  0.4741820000000 1.0
C      1  0.4309470000000  0.5144640000000  0.5747410000000 1.0
C      1  0.5098420000000  0.4351690000000  0.4436930000000 1.0
C      1  0.5570850000000  0.4251010000000  0.4729470000000 1.0
C      1  0.5465090000000  0.4571820000000  0.5185530000000 1.0
C      1  0.4833870000000  0.5147830000000  0.5847020000000 1.0
C      1  0.5651450000000  0.5235140000000  0.5175800000000 1.0
C      1  0.4800570000000  0.4781990000000  0.4481720000000 1.0
C      1  0.4409480000000  0.4771370000000  0.4561080000000 1.0
C      1  0.5476430000000  0.5287080000000  0.4449030000000 1.0
C      1  0.4852290000000  0.5439250000000  0.5396400000000 1.0
C      1  0.4966390000000  0.5027400000000  0.4012790000000 1.0
C      1  0.4932110000000  0.5781350000000  0.5000160000000 1.0
C      1  0.4551620000000  0.5924010000000  0.4592010000000 1.0
C      1  0.5152010000000  0.4571560000000  0.5329640000000 1.0
C      1  0.5039790000000  0.5236210000000  0.4257170000000 1.0
C      1  0.4444410000000  0.5207670000000  0.5245650000000 1.0
C      1  0.5493270000000  0.4768690000000  0.4754420000000 1.0
C      1  0.4573480000000  0.5523260000000  0.5244570000000 1.0
C      1  0.5018620000000  0.5803540000000  0.5310610000000 1.0
C      1  0.4494850000000  0.5158480000000  0.4522040000000 1.0
C      1  0.5133390000000  0.4782240000000  0.5787860000000 1.0
C      1  0.5947980000000  0.5171080000000  0.5022140000000 1.0
C      1  0.5128830000000  0.5563660000000  0.4313520000000 1.0
C      1  0.5161720000000  0.4627130000000  0.4750390000000 1.0
END
