TITL C-2622961-1971-724 -0.00436607155753324 125000 -1011.98941632636 0 0 184 (C1) n - 1
REM
REM in /nfs/bkarasulu/CARBON/AIRSS/Generating-Clusters/AIREBO/with-SteepDescent/Higher-Symm/SD-CG/HFTN-CG
REM
REM
REM
REM
REM
REM ./C.cell (b20cbc046b6831c77cfcea5457e17084)
REM
REM compiler GCC version 9.2.1 20190827 (Red Hat 9.2.1-1)
REM options -cpp -mtune=generic -march=x86-64 -g -O0 -fpre-include=/usr/include/finclude/math-vector-fortran.h
REM seed 1659685653 692653096 -1077175839 -879144771 -1223011818 1903268484 -261718168 1918810413 -456489519 788829360 -274937383 602311997 1258118006 939557534 -1429445840 1278424855 1559635177 -1033946986 1407871900 596859210 1618101277 -1144654535 -1062902533 -175223303 1856398483 -63106561 172605486 713286838 1535969255 -339357195 1430509902 -1388250437 156567923
REM
CELL 1.54180   50.00000   50.00000   50.00000   90.00000   90.00000   90.00000
LATT -1
SFAC C  
C      1  0.4955960000000  0.3876160000000  0.5215870000000 1.0
C      1  0.5211630000000  0.4941030000000  0.3889260000000 1.0
C      1  0.3957280000000  0.5279690000000  0.4967470000000 1.0
C      1  0.4930590000000  0.6178960000000  0.4829470000000 1.0
C      1  0.5132120000000  0.5990450000000  0.5208410000000 1.0
C      1  0.4959740000000  0.3713950000000  0.4810790000000 1.0
C      1  0.5252600000000  0.5082250000000  0.5968910000000 1.0
C      1  0.4802060000000  0.4996600000000  0.3873540000000 1.0
C      1  0.4807850000000  0.4873010000000  0.6151860000000 1.0
C      1  0.3933850000000  0.4785790000000  0.5042280000000 1.0
C      1  0.5995990000000  0.4801720000000  0.4961820000000 1.0
C      1  0.6069180000000  0.5238770000000  0.5016480000000 1.0
C      1  0.4912390000000  0.5223090000000  0.3741510000000 1.0
C      1  0.5216380000000  0.3813540000000  0.5006400000000 1.0
C      1  0.3967310000000  0.4998390000000  0.5251510000000 1.0
C      1  0.5003060000000  0.4665830000000  0.6287320000000 1.0
C      1  0.4987720000000  0.5141090000000  0.6097780000000 1.0
C      1  0.4991230000000  0.4716460000000  0.3910220000000 1.0
C      1  0.5175700000000  0.6077090000000  0.4946090000000 1.0
C      1  0.4715350000000  0.3912070000000  0.5075450000000 1.0
C      1  0.4703440000000  0.6135740000000  0.4993590000000 1.0
C      1  0.3956520000000  0.5030790000000  0.4818790000000 1.0
C      1  0.5974560000000  0.5048160000000  0.4763770000000 1.0
C      1  0.6069670000000  0.5089420000000  0.5256750000000 1.0
C      1  0.5115490000000  0.4663450000000  0.5758940000000 1.0
C      1  0.5692430000000  0.5217680000000  0.4669230000000 1.0
C      1  0.4662670000000  0.5819610000000  0.5065130000000 1.0
C      1  0.5055660000000  0.5282160000000  0.4250660000000 1.0
C      1  0.4921250000000  0.5174130000000  0.5764650000000 1.0
C      1  0.4908360000000  0.4648940000000  0.4230770000000 1.0
C      1  0.5771380000000  0.4939640000000  0.5326700000000 1.0
C      1  0.4230630000000  0.4913470000000  0.4650590000000 1.0
C      1  0.4261060000000  0.5149030000000  0.5265350000000 1.0
C      1  0.4715960000000  0.4186550000000  0.4935010000000 1.0
C      1  0.5140440000000  0.4137240000000  0.4991210000000 1.0
C      1  0.5377710000000  0.5942540000000  0.4787460000000 1.0
C      1  0.5270000000000  0.5753720000000  0.4602310000000 1.0
C      1  0.5719750000000  0.4717320000000  0.5111040000000 1.0
C      1  0.4885590000000  0.4866230000000  0.5832850000000 1.0
C      1  0.5077890000000  0.4175900000000  0.5323190000000 1.0
C      1  0.4891640000000  0.5777640000000  0.5249700000000 1.0
C      1  0.4946180000000  0.4206660000000  0.4749000000000 1.0
C      1  0.5764870000000  0.5351480000000  0.4932070000000 1.0
C      1  0.4214370000000  0.4732500000000  0.4891230000000 1.0
C      1  0.4241040000000  0.5413420000000  0.5098650000000 1.0
C      1  0.4902740000000  0.4987590000000  0.4185300000000 1.0
C      1  0.5290770000000  0.5082140000000  0.4173230000000 1.0
C      1  0.5337880000000  0.4873580000000  0.5729310000000 1.0
C      1  0.4690220000000  0.4579190000000  0.4867680000000 1.0
C      1  0.4983720000000  0.4732990000000  0.4529280000000 1.0
C      1  0.4502440000000  0.5029620000000  0.4645390000000 1.0
C      1  0.4648160000000  0.5581140000000  0.4884280000000 1.0
C      1  0.5277670000000  0.5448990000000  0.5044140000000 1.0
C      1  0.5296040000000  0.4503280000000  0.5031200000000 1.0
C      1  0.4991460000000  0.5212890000000  0.5456860000000 1.0
C      1  0.4996220000000  0.5205740000000  0.4572880000000 1.0
C      1  0.4920470000000  0.4630660000000  0.5513330000000 1.0
C      1  0.4533060000000  0.5014370000000  0.5174040000000 1.0
C      1  0.5456890000000  0.5044680000000  0.4706630000000 1.0
C      1  0.5500920000000  0.5035190000000  0.5200980000000 1.0
C      1  0.4699370000000  0.5007720000000  0.4396260000000 1.0
C      1  0.5010610000000  0.4519520000000  0.4753160000000 1.0
C      1  0.4472850000000  0.4745360000000  0.5048170000000 1.0
C      1  0.4693940000000  0.5058130000000  0.5457830000000 1.0
C      1  0.5318610000000  0.4985220000000  0.5427770000000 1.0
C      1  0.5250030000000  0.5024430000000  0.4483220000000 1.0
C      1  0.4964240000000  0.5468460000000  0.5286630000000 1.0
C      1  0.5026500000000  0.4467530000000  0.5228470000000 1.0
C      1  0.5123670000000  0.5539000000000  0.4750630000000 1.0
C      1  0.4493160000000  0.5280210000000  0.4967510000000 1.0
C      1  0.5424680000000  0.4776460000000  0.4999480000000 1.0
C      1  0.5548960000000  0.5323170000000  0.5138100000000 1.0
C      1  0.4634940000000  0.4139210000000  0.5581910000000 1.0
C      1  0.5559990000000  0.4718420000000  0.4199530000000 1.0
C      1  0.4175860000000  0.5566680000000  0.4641230000000 1.0
C      1  0.4643230000000  0.5720170000000  0.4420520000000 1.0
C      1  0.5335430000000  0.5738760000000  0.5562660000000 1.0
C      1  0.5391850000000  0.4241310000000  0.4451640000000 1.0
C      1  0.5545030000000  0.5298630000000  0.5803350000000 1.0
C      1  0.4438720000000  0.5276880000000  0.4255650000000 1.0
C      1  0.4460270000000  0.4598170000000  0.5727970000000 1.0
C      1  0.4208350000000  0.4402370000000  0.5337490000000 1.0
C      1  0.5789730000000  0.4498670000000  0.4701590000000 1.0
C      1  0.5885460000000  0.5641100000000  0.5510050000000 1.0
C      1  0.4601290000000  0.5551170000000  0.4156540000000 1.0
C      1  0.5607370000000  0.4229310000000  0.4717790000000 1.0
C      1  0.4179660000000  0.4673390000000  0.5550460000000 1.0
C      1  0.4598170000000  0.4323450000000  0.5793630000000 1.0
C      1  0.5334180000000  0.5563490000000  0.5839370000000 1.0
C      1  0.5343220000000  0.4454530000000  0.4207350000000 1.0
C      1  0.5607590000000  0.5833500000000  0.5471570000000 1.0
C      1  0.4507630000000  0.4241920000000  0.5316280000000 1.0
C      1  0.4373460000000  0.5797270000000  0.4588930000000 1.0
C      1  0.4142480000000  0.5308000000000  0.4419830000000 1.0
C      1  0.5769530000000  0.4713520000000  0.4438770000000 1.0
C      1  0.5834100000000  0.5332040000000  0.5647950000000 1.0
C      1  0.3860250000000  0.4786120000000  0.4603000000000 1.0
C      1  0.4470000000000  0.3884210000000  0.4863200000000 1.0
C      1  0.4771440000000  0.4452440000000  0.3917650000000 1.0
C      1  0.3939120000000  0.5258290000000  0.5468320000000 1.0
C      1  0.6037120000000  0.5211460000000  0.4472140000000 1.0
C      1  0.6125750000000  0.4789870000000  0.5414360000000 1.0
C      1  0.4581820000000  0.6132590000000  0.5295920000000 1.0
C      1  0.5686750000000  0.6173110000000  0.4671660000000 1.0
C      1  0.5411070000000  0.3974280000000  0.5234180000000 1.0
C      1  0.4772820000000  0.5392870000000  0.6059140000000 1.0
C      1  0.5147190000000  0.5362570000000  0.3870930000000 1.0
C      1  0.5216960000000  0.4571580000000  0.6133630000000 1.0
C      1  0.3878140000000  0.4527950000000  0.4826930000000 1.0
C      1  0.4595470000000  0.4740490000000  0.3959260000000 1.0
C      1  0.4757370000000  0.3860650000000  0.4682950000000 1.0
C      1  0.3876460000000  0.5489140000000  0.5222920000000 1.0
C      1  0.6069940000000  0.4547930000000  0.5180120000000 1.0
C      1  0.6100670000000  0.5423270000000  0.4732530000000 1.0
C      1  0.4605380000000  0.5098400000000  0.5996840000000 1.0
C      1  0.5446020000000  0.4724400000000  0.6082790000000 1.0
C      1  0.5436330000000  0.5189060000000  0.3823120000000 1.0
C      1  0.4762880000000  0.6059670000000  0.5500090000000 1.0
C      1  0.5240100000000  0.3880090000000  0.5513670000000 1.0
C      1  0.4894020000000  0.6151770000000  0.4550460000000 1.0
C      1  0.5760670000000  0.4421520000000  0.5243560000000 1.0
C      1  0.5137340000000  0.5789940000000  0.4351450000000 1.0
C      1  0.4498940000000  0.5144450000000  0.5679450000000 1.0
C      1  0.5903780000000  0.5641650000000  0.4910880000000 1.0
C      1  0.4138550000000  0.5713800000000  0.5171880000000 1.0
C      1  0.4195120000000  0.4431760000000  0.4805680000000 1.0
C      1  0.5161680000000  0.4180210000000  0.5652950000000 1.0
C      1  0.4874090000000  0.4094880000000  0.4467030000000 1.0
C      1  0.4831700000000  0.5736940000000  0.5582070000000 1.0
C      1  0.4301350000000  0.4763610000000  0.4136020000000 1.0
C      1  0.5649360000000  0.4769090000000  0.5813960000000 1.0
C      1  0.5565590000000  0.5259240000000  0.4129670000000 1.0
C      1  0.5736180000000  0.5326100000000  0.4365650000000 1.0
C      1  0.5109080000000  0.4375340000000  0.5882490000000 1.0
C      1  0.4352910000000  0.5937210000000  0.5130020000000 1.0
C      1  0.5858920000000  0.4801510000000  0.5624820000000 1.0
C      1  0.4260940000000  0.5313980000000  0.5562920000000 1.0
C      1  0.4104670000000  0.4778620000000  0.4366600000000 1.0
C      1  0.5136580000000  0.5574720000000  0.4136720000000 1.0
C      1  0.4803830000000  0.4325470000000  0.4238450000000 1.0
C      1  0.4820060000000  0.5497970000000  0.5739230000000 1.0
C      1  0.4469420000000  0.4315340000000  0.4780720000000 1.0
C      1  0.5665930000000  0.5887170000000  0.4901010000000 1.0
C      1  0.5466810000000  0.4305230000000  0.5209010000000 1.0
C      1  0.4037460000000  0.4327400000000  0.5067660000000 1.0
C      1  0.5141110000000  0.4121340000000  0.4281200000000 1.0
C      1  0.4455330000000  0.5025550000000  0.4080860000000 1.0
C      1  0.3959500000000  0.5609100000000  0.4899400000000 1.0
C      1  0.6030110000000  0.5727460000000  0.5214720000000 1.0
C      1  0.5905210000000  0.4344100000000  0.4956970000000 1.0
C      1  0.5089770000000  0.5955030000000  0.5543910000000 1.0
C      1  0.4888350000000  0.5920780000000  0.4390430000000 1.0
C      1  0.4914000000000  0.3952920000000  0.5601940000000 1.0
C      1  0.4361120000000  0.4898370000000  0.5854600000000 1.0
C      1  0.5631430000000  0.4962110000000  0.4002170000000 1.0
C      1  0.5571410000000  0.5036710000000  0.6008670000000 1.0
C      1  0.3945040000000  0.5070670000000  0.4421750000000 1.0
C      1  0.5073260000000  0.4345040000000  0.4031960000000 1.0
C      1  0.4333570000000  0.4143360000000  0.5040850000000 1.0
C      1  0.4130380000000  0.5004230000000  0.5614030000000 1.0
C      1  0.6032640000000  0.5088730000000  0.5585910000000 1.0
C      1  0.5824560000000  0.5005500000000  0.4294510000000 1.0
C      1  0.5083710000000  0.5490850000000  0.5939240000000 1.0
C      1  0.4805260000000  0.4319680000000  0.5972320000000 1.0
C      1  0.4840790000000  0.5514210000000  0.4006040000000 1.0
C      1  0.4372040000000  0.5980180000000  0.4799340000000 1.0
C      1  0.5663510000000  0.4098890000000  0.5028860000000 1.0
C      1  0.5743400000000  0.5856630000000  0.5205710000000 1.0
C      1  0.5273440000000  0.4731570000000  0.4361550000000 1.0
C      1  0.4666340000000  0.4751110000000  0.5509060000000 1.0
C      1  0.4700850000000  0.5325530000000  0.4466980000000 1.0
C      1  0.5308190000000  0.4371840000000  0.4740240000000 1.0
C      1  0.5659880000000  0.5435480000000  0.5383220000000 1.0
C      1  0.5608480000000  0.4767840000000  0.4730870000000 1.0
C      1  0.4436780000000  0.4639390000000  0.5331620000000 1.0
C      1  0.4351100000000  0.5293700000000  0.4676040000000 1.0
C      1  0.4729540000000  0.4409870000000  0.5150340000000 1.0
C      1  0.4823430000000  0.5555460000000  0.4657210000000 1.0
C      1  0.5265220000000  0.5493120000000  0.5381230000000 1.0
C      1  0.5300480000000  0.5248530000000  0.5595370000000 1.0
C      1  0.4660950000000  0.4754830000000  0.4604960000000 1.0
C      1  0.5204200000000  0.5217650000000  0.4827110000000 1.0
C      1  0.5200500000000  0.4721600000000  0.5372730000000 1.0
C      1  0.4688110000000  0.5440400000000  0.5188420000000 1.0
END
