TITL C-2622965-4321-629 0.00300612751073936 125000 -504.472864051466 0 0 94 (C1) n - 1
REM
REM in /nfs/bkarasulu/CARBON/AIRSS/Generating-Clusters/AIREBO/with-SteepDescent/Higher-Symm/SD-CG/HFTN-CG
REM
REM
REM
REM
REM
REM ./C.cell (b20cbc046b6831c77cfcea5457e17084)
REM
REM compiler GCC version 9.2.1 20190827 (Red Hat 9.2.1-1)
REM options -cpp -mtune=generic -march=x86-64 -g -O0 -fpre-include=/usr/include/finclude/math-vector-fortran.h
REM seed -1388523755 -373874674 1219780449 1236869166 951778357 1257232215 -1439781832 1141009554 1641762248 415308157 -14831624 2118155574 -1959376656 -364738289 -895911539 1350382212 2040679138 1277213068 -727008485 -1496088984 194335069 -541614350 -1159106335 -442241444 2009342290 -677939191 -1518200080 -656676926 -230977154 -860444171 -37214510 -1288403728 1458718169
REM
CELL 1.54180   50.00000   50.00000   50.00000   90.00000   90.00000   90.00000
LATT -1
SFAC C  
C      1  0.5184510000000  0.4493530000000  0.5018980000000 1.0
C      1  0.5103330000000  0.5062490000000  0.5233830000000 1.0
C      1  0.5148130000000  0.5323660000000  0.5068550000000 1.0
C      1  0.5087230000000  0.5265650000000  0.4739060000000 1.0
C      1  0.5128930000000  0.4928580000000  0.4717370000000 1.0
C      1  0.4850210000000  0.4528520000000  0.4937000000000 1.0
C      1  0.4829970000000  0.4947740000000  0.5383450000000 1.0
C      1  0.4694320000000  0.5501630000000  0.5229350000000 1.0
C      1  0.4757360000000  0.5312030000000  0.4761730000000 1.0
C      1  0.4910830000000  0.4685950000000  0.4641230000000 1.0
C      1  0.5150020000000  0.5315510000000  0.4404280000000 1.0
C      1  0.5205070000000  0.4318320000000  0.4459760000000 1.0
C      1  0.5184420000000  0.4405110000000  0.5340600000000 1.0
C      1  0.5125690000000  0.5098570000000  0.5569220000000 1.0
C      1  0.5154180000000  0.5664550000000  0.5050980000000 1.0
C      1  0.4816990000000  0.5302800000000  0.4447130000000 1.0
C      1  0.4924160000000  0.4421580000000  0.4432290000000 1.0
C      1  0.4876090000000  0.4334850000000  0.5215550000000 1.0
C      1  0.4814840000000  0.5082840000000  0.5695160000000 1.0
C      1  0.4876470000000  0.5742770000000  0.5120010000000 1.0
C      1  0.4607510000000  0.5563160000000  0.5594410000000 1.0
C      1  0.4520320000000  0.5799820000000  0.4733350000000 1.0
C      1  0.4524010000000  0.4838050000000  0.4320050000000 1.0
C      1  0.4508860000000  0.4364840000000  0.4818030000000 1.0
C      1  0.4541470000000  0.4715540000000  0.5534090000000 1.0
C      1  0.5421420000000  0.5508050000000  0.5459960000000 1.0
C      1  0.5453440000000  0.5706670000000  0.4631840000000 1.0
C      1  0.5461540000000  0.4952260000000  0.4477600000000 1.0
C      1  0.5460290000000  0.4254570000000  0.4858620000000 1.0
C      1  0.5387960000000  0.4689510000000  0.5568050000000 1.0
C      1  0.5121430000000  0.4300960000000  0.4755990000000 1.0
C      1  0.5170480000000  0.4746100000000  0.5327950000000 1.0
C      1  0.5116040000000  0.5436120000000  0.5371760000000 1.0
C      1  0.5188880000000  0.5573950000000  0.4760770000000 1.0
C      1  0.4983270000000  0.5023310000000  0.4439800000000 1.0
C      1  0.4807500000000  0.4204250000000  0.4843780000000 1.0
C      1  0.4864110000000  0.4635280000000  0.5320340000000 1.0
C      1  0.4838000000000  0.5336290000000  0.5489470000000 1.0
C      1  0.4748840000000  0.5592050000000  0.4862370000000 1.0
C      1  0.4813480000000  0.4787720000000  0.4330950000000 1.0
C      1  0.5752010000000  0.5214980000000  0.5149210000000 1.0
C      1  0.5833410000000  0.5481920000000  0.4951260000000 1.0
C      1  0.5850680000000  0.4973790000000  0.4561520000000 1.0
C      1  0.5810670000000  0.4794550000000  0.4769950000000 1.0
C      1  0.5859660000000  0.4734270000000  0.5333020000000 1.0
C      1  0.4161720000000  0.5375540000000  0.5432440000000 1.0
C      1  0.4288490000000  0.5330270000000  0.4969010000000 1.0
C      1  0.4173240000000  0.4896790000000  0.4661140000000 1.0
C      1  0.3929950000000  0.5039240000000  0.5157160000000 1.0
C      1  0.3954350000000  0.5236070000000  0.5346980000000 1.0
C      1  0.4475020000000  0.4519190000000  0.5328540000000 1.0
C      1  0.4441860000000  0.5268620000000  0.5553620000000 1.0
C      1  0.4373770000000  0.5629140000000  0.4992320000000 1.0
C      1  0.4390830000000  0.5085220000000  0.4493070000000 1.0
C      1  0.4447980000000  0.4429230000000  0.4553640000000 1.0
C      1  0.5636500000000  0.4519980000000  0.5409590000000 1.0
C      1  0.5605050000000  0.5220880000000  0.5456070000000 1.0
C      1  0.5605490000000  0.5739940000000  0.4935180000000 1.0
C      1  0.5657300000000  0.5227310000000  0.4487760000000 1.0
C      1  0.5584860000000  0.4543770000000  0.4728230000000 1.0
C      1  0.5406800000000  0.5304410000000  0.4297700000000 1.0
C      1  0.5471190000000  0.4388790000000  0.4453330000000 1.0
C      1  0.5415230000000  0.4287460000000  0.5461350000000 1.0
C      1  0.5387520000000  0.5119310000000  0.5658880000000 1.0
C      1  0.5375210000000  0.5838150000000  0.5107570000000 1.0
C      1  0.4556800000000  0.5298880000000  0.4322880000000 1.0
C      1  0.4656450000000  0.4341380000000  0.4372590000000 1.0
C      1  0.4594400000000  0.4262720000000  0.5347770000000 1.0
C      1  0.4541720000000  0.5100990000000  0.5824340000000 1.0
C      1  0.4583770000000  0.5864580000000  0.5119130000000 1.0
C      1  0.5146290000000  0.5646050000000  0.5615970000000 1.0
C      1  0.5135670000000  0.5817470000000  0.4552030000000 1.0
C      1  0.5339890000000  0.4830850000000  0.4269920000000 1.0
C      1  0.5280770000000  0.3973290000000  0.4915710000000 1.0
C      1  0.5109180000000  0.4604620000000  0.5744760000000 1.0
C      1  0.4894900000000  0.5681860000000  0.5734070000000 1.0
C      1  0.4846290000000  0.5812330000000  0.4634300000000 1.0
C      1  0.5097830000000  0.4772970000000  0.4151730000000 1.0
C      1  0.5026120000000  0.3964350000000  0.4945360000000 1.0
C      1  0.4849380000000  0.4651100000000  0.5650070000000 1.0
C      1  0.4344110000000  0.4689390000000  0.4507190000000 1.0
C      1  0.4537100000000  0.4625290000000  0.5034900000000 1.0
C      1  0.4514240000000  0.5012410000000  0.5371960000000 1.0
C      1  0.4383100000000  0.5593610000000  0.5330770000000 1.0
C      1  0.4506040000000  0.5145220000000  0.4802640000000 1.0
C      1  0.5413100000000  0.4832620000000  0.4772030000000 1.0
C      1  0.5507480000000  0.4452520000000  0.5109790000000 1.0
C      1  0.5558540000000  0.4905360000000  0.5368070000000 1.0
C      1  0.5589710000000  0.5511400000000  0.5186500000000 1.0
C      1  0.5697170000000  0.5477740000000  0.4652260000000 1.0
C      1  0.4154050000000  0.5018780000000  0.4940940000000 1.0
C      1  0.5820920000000  0.4934960000000  0.5069220000000 1.0
C      1  0.5537270000000  0.4763900000000  0.5058510000000 1.0
C      1  0.4453360000000  0.4931310000000  0.5062690000000 1.0
END
