TITL C-2622956-4641-90 0.000326196412839364 125000 -555.078170526252 0 0 106 (C1) n - 1
REM
REM in /nfs/bkarasulu/CARBON/AIRSS/Generating-Clusters/AIREBO/with-SteepDescent/Higher-Symm/SD-CG/HFTN-CG
REM
REM
REM
REM
REM
REM ./C.cell (b20cbc046b6831c77cfcea5457e17084)
REM
REM compiler GCC version 9.2.1 20190827 (Red Hat 9.2.1-1)
REM options -cpp -mtune=generic -march=x86-64 -g -O0 -fpre-include=/usr/include/finclude/math-vector-fortran.h
REM seed -2035561256 -2081291037 1700675662 -159219508 -1394016373 1129233422 1200199327 1632856527 -1203798513 -100493297 389035250 460988952 1443557516 1774010925 -1837464692 2042883998 1138007016 1265146292 -1527581083 85374504 -2135944363 1236494050 -452947897 -132322980 964102887 808621365 2051603580 -1952949773 1240107477 927511129 399298002 -1264200012 -74782902
REM
CELL 1.54180   50.00000   50.00000   50.00000   90.00000   90.00000   90.00000
LATT -1
SFAC C  
C      1  0.4263100000000  0.4540350000000  0.4853310000000 1.0
C      1  0.4876360000000  0.5774350000000  0.4854280000000 1.0
C      1  0.5854350000000  0.4567600000000  0.4807280000000 1.0
C      1  0.5644100000000  0.4073160000000  0.4787990000000 1.0
C      1  0.4221450000000  0.4878170000000  0.4227990000000 1.0
C      1  0.5142430000000  0.6185270000000  0.4803980000000 1.0
C      1  0.4828430000000  0.5410990000000  0.5840530000000 1.0
C      1  0.5338060000000  0.4947350000000  0.5821820000000 1.0
C      1  0.4690630000000  0.4741820000000  0.5855890000000 1.0
C      1  0.4625420000000  0.4360950000000  0.4345400000000 1.0
C      1  0.4510240000000  0.5668000000000  0.4427460000000 1.0
C      1  0.5720060000000  0.5079170000000  0.4400020000000 1.0
C      1  0.4642750000000  0.4997660000000  0.5637090000000 1.0
C      1  0.5044270000000  0.5327950000000  0.5630920000000 1.0
C      1  0.5151700000000  0.4726540000000  0.5642380000000 1.0
C      1  0.4496760000000  0.4293660000000  0.4840450000000 1.0
C      1  0.4600840000000  0.5828690000000  0.4964710000000 1.0
C      1  0.5925670000000  0.4901130000000  0.4821640000000 1.0
C      1  0.5611930000000  0.5429660000000  0.5395690000000 1.0
C      1  0.5156610000000  0.4239900000000  0.5437160000000 1.0
C      1  0.4207100000000  0.5294580000000  0.5433180000000 1.0
C      1  0.4903680000000  0.5500300000000  0.4792670000000 1.0
C      1  0.5646660000000  0.4700750000000  0.5011540000000 1.0
C      1  0.4463830000000  0.4603610000000  0.5080780000000 1.0
C      1  0.5812830000000  0.5248410000000  0.5214590000000 1.0
C      1  0.4909820000000  0.4184160000000  0.5220580000000 1.0
C      1  0.4348350000000  0.5525240000000  0.5240290000000 1.0
C      1  0.4505750000000  0.5171620000000  0.4833340000000 1.0
C      1  0.5522840000000  0.5238090000000  0.4846470000000 1.0
C      1  0.5123230000000  0.4590460000000  0.4887710000000 1.0
C      1  0.5431000000000  0.4205310000000  0.5369690000000 1.0
C      1  0.4141490000000  0.4973510000000  0.5386780000000 1.0
C      1  0.5478470000000  0.5716640000000  0.5417000000000 1.0
C      1  0.5384600000000  0.4668120000000  0.4529750000000 1.0
C      1  0.4571800000000  0.4884660000000  0.4683900000000 1.0
C      1  0.5207090000000  0.5447370000000  0.4518680000000 1.0
C      1  0.4672900000000  0.4330640000000  0.4622790000000 1.0
C      1  0.4507110000000  0.5702630000000  0.4718540000000 1.0
C      1  0.5766920000000  0.5079740000000  0.4670210000000 1.0
C      1  0.4575830000000  0.5146920000000  0.5135590000000 1.0
C      1  0.5439660000000  0.5023520000000  0.5096850000000 1.0
C      1  0.4950320000000  0.4576600000000  0.5158170000000 1.0
C      1  0.4762020000000  0.4924170000000  0.5174810000000 1.0
C      1  0.5192360000000  0.5475580000000  0.5141230000000 1.0
C      1  0.5312070000000  0.4734290000000  0.5222630000000 1.0
C      1  0.5047160000000  0.4507940000000  0.5414790000000 1.0
C      1  0.4489540000000  0.5188070000000  0.5400470000000 1.0
C      1  0.5417130000000  0.5292280000000  0.5228060000000 1.0
C      1  0.4751100000000  0.4592220000000  0.4241040000000 1.0
C      1  0.4675610000000  0.5395790000000  0.4358930000000 1.0
C      1  0.5412040000000  0.5072130000000  0.4281120000000 1.0
C      1  0.4017610000000  0.5089390000000  0.5147470000000 1.0
C      1  0.5584820000000  0.5701890000000  0.5105940000000 1.0
C      1  0.5452530000000  0.3967720000000  0.5201240000000 1.0
C      1  0.5463960000000  0.4739400000000  0.5508340000000 1.0
C      1  0.4615200000000  0.4769980000000  0.5409490000000 1.0
C      1  0.5012840000000  0.5490010000000  0.5396800000000 1.0
C      1  0.4307260000000  0.4826640000000  0.4477090000000 1.0
C      1  0.5372550000000  0.5638130000000  0.4444970000000 1.0
C      1  0.5513780000000  0.4487110000000  0.4389700000000 1.0
C      1  0.4546780000000  0.5140810000000  0.4234550000000 1.0
C      1  0.5258620000000  0.5305590000000  0.4148780000000 1.0
C      1  0.5021550000000  0.4590640000000  0.4182820000000 1.0
C      1  0.5102480000000  0.5931180000000  0.4894010000000 1.0
C      1  0.5619580000000  0.4331370000000  0.4875860000000 1.0
C      1  0.4188620000000  0.4786030000000  0.4740540000000 1.0
C      1  0.4491390000000  0.4454100000000  0.5432510000000 1.0
C      1  0.4803320000000  0.5735920000000  0.5380250000000 1.0
C      1  0.5752630000000  0.4748670000000  0.5391100000000 1.0
C      1  0.4563480000000  0.5709750000000  0.5224500000000 1.0
C      1  0.5832850000000  0.4952200000000  0.5144920000000 1.0
C      1  0.4629800000000  0.4314210000000  0.5152860000000 1.0
C      1  0.4974860000000  0.5348790000000  0.4317500000000 1.0
C      1  0.5171250000000  0.4840150000000  0.4342970000000 1.0
C      1  0.4684390000000  0.4872640000000  0.4363040000000 1.0
C      1  0.5376150000000  0.4812390000000  0.4837820000000 1.0
C      1  0.4744420000000  0.4713570000000  0.4923360000000 1.0
C      1  0.5196130000000  0.5332950000000  0.4838740000000 1.0
C      1  0.5352300000000  0.4439960000000  0.5056250000000 1.0
C      1  0.4198590000000  0.5061580000000  0.4877830000000 1.0
C      1  0.5278300000000  0.5796580000000  0.5082820000000 1.0
C      1  0.4924090000000  0.4639050000000  0.5871980000000 1.0
C      1  0.4626710000000  0.5256370000000  0.5846820000000 1.0
C      1  0.5307020000000  0.5192670000000  0.5765280000000 1.0
C      1  0.5931220000000  0.5546320000000  0.4805490000000 1.0
C      1  0.5148050000000  0.4027330000000  0.4796160000000 1.0
C      1  0.3969000000000  0.5541400000000  0.4885720000000 1.0
C      1  0.4139730000000  0.5368010000000  0.5023780000000 1.0
C      1  0.5721680000000  0.5469540000000  0.4978060000000 1.0
C      1  0.5197430000000  0.4137140000000  0.5053130000000 1.0
C      1  0.4633580000000  0.5390610000000  0.4684870000000 1.0
C      1  0.5374370000000  0.5067340000000  0.4598930000000 1.0
C      1  0.4888220000000  0.4531960000000  0.4682720000000 1.0
C      1  0.5145600000000  0.5787370000000  0.5386360000000 1.0
C      1  0.5616660000000  0.4464120000000  0.5268770000000 1.0
C      1  0.4297780000000  0.4726350000000  0.5351130000000 1.0
C      1  0.4973500000000  0.5003540000000  0.5557410000000 1.0
C      1  0.4918460000000  0.5035530000000  0.3908130000000 1.0
C      1  0.4984440000000  0.4853300000000  0.4626770000000 1.0
C      1  0.5103170000000  0.5009500000000  0.4888380000000 1.0
C      1  0.4956950000000  0.5036800000000  0.5895510000000 1.0
C      1  0.4931840000000  0.5039210000000  0.6158930000000 1.0
C      1  0.4883580000000  0.5038710000000  0.3655320000000 1.0
C      1  0.4899750000000  0.5066090000000  0.6417690000000 1.0
C      1  0.5066250000000  0.4969550000000  0.5226400000000 1.0
C      1  0.4934770000000  0.5047120000000  0.4213150000000 1.0
END
