TITL C-2622956-4641-767 0.00168576718968057 125000 -642.662488519595 0 0 127 (C1) n - 1
REM
REM in /nfs/bkarasulu/CARBON/AIRSS/Generating-Clusters/AIREBO/with-SteepDescent/Higher-Symm/SD-CG/HFTN-CG
REM
REM
REM
REM
REM
REM ./C.cell (b20cbc046b6831c77cfcea5457e17084)
REM
REM compiler GCC version 9.2.1 20190827 (Red Hat 9.2.1-1)
REM options -cpp -mtune=generic -march=x86-64 -g -O0 -fpre-include=/usr/include/finclude/math-vector-fortran.h
REM seed 1474022270 712281458 312129769 -1959383199 330584235 1156457239 -737829498 1075766622 -1774176406 1422935346 1022089053 -1089820513 -467433266 -1191925289 1480200851 -1416278799 -1466205698 -263459801 -1335896155 1354772475 -2006433585 -506129441 2121203237 415141604 1753092446 -1226408683 418126807 -1536952668 -1541202845 -319711369 1912291325 486118115 -109111964
REM
CELL 1.54180   50.00000   50.00000   50.00000   90.00000   90.00000   90.00000
LATT -1
SFAC C  
C      1  0.5874600000000  0.4833660000000  0.4716950000000 1.0
C      1  0.5293330000000  0.4878210000000  0.5901900000000 1.0
C      1  0.4153510000000  0.4857560000000  0.5297050000000 1.0
C      1  0.4671080000000  0.4858090000000  0.4146760000000 1.0
C      1  0.4162250000000  0.5085020000000  0.4706540000000 1.0
C      1  0.4686860000000  0.5175840000000  0.5807400000000 1.0
C      1  0.5854560000000  0.5037770000000  0.5338250000000 1.0
C      1  0.5311900000000  0.5086420000000  0.4160960000000 1.0
C      1  0.5152970000000  0.5069630000000  0.4527270000000 1.0
C      1  0.5488990000000  0.5123710000000  0.5098980000000 1.0
C      1  0.4870080000000  0.5181650000000  0.5424950000000 1.0
C      1  0.4544340000000  0.5131790000000  0.4868500000000 1.0
C      1  0.4760230000000  0.5006490000000  0.4534700000000 1.0
C      1  0.4619870000000  0.4857950000000  0.5055330000000 1.0
C      1  0.5183600000000  0.4960260000000  0.5349840000000 1.0
C      1  0.5492100000000  0.4837110000000  0.4831310000000 1.0
C      1  0.5283030000000  0.5424980000000  0.4745800000000 1.0
C      1  0.5311550000000  0.5492940000000  0.5350470000000 1.0
C      1  0.4618080000000  0.5640870000000  0.5468860000000 1.0
C      1  0.4652390000000  0.5468400000000  0.4681570000000 1.0
C      1  0.4605770000000  0.4404740000000  0.4528490000000 1.0
C      1  0.4758970000000  0.4532000000000  0.5313680000000 1.0
C      1  0.5331160000000  0.4552660000000  0.5287100000000 1.0
C      1  0.5413420000000  0.4473490000000  0.4648400000000 1.0
C      1  0.4464460000000  0.5857370000000  0.4992010000000 1.0
C      1  0.5133030000000  0.5872600000000  0.4661780000000 1.0
C      1  0.5207130000000  0.5810910000000  0.4989870000000 1.0
C      1  0.4912460000000  0.5808970000000  0.5441800000000 1.0
C      1  0.5283150000000  0.4215450000000  0.4931040000000 1.0
C      1  0.4912130000000  0.4179810000000  0.4644400000000 1.0
C      1  0.4670870000000  0.4123950000000  0.5058110000000 1.0
C      1  0.5026960000000  0.4237880000000  0.5329140000000 1.0
C      1  0.4847840000000  0.4021450000000  0.5471820000000 1.0
C      1  0.4555030000000  0.3950640000000  0.4833850000000 1.0
C      1  0.5112920000000  0.3957130000000  0.4580140000000 1.0
C      1  0.5344540000000  0.3963970000000  0.5119750000000 1.0
C      1  0.5193480000000  0.6000800000000  0.5433680000000 1.0
C      1  0.5353360000000  0.6097770000000  0.4904200000000 1.0
C      1  0.4847860000000  0.6001580000000  0.4667430000000 1.0
C      1  0.4497870000000  0.6027140000000  0.5242910000000 1.0
C      1  0.4877980000000  0.4716060000000  0.4612640000000 1.0
C      1  0.5249390000000  0.4733610000000  0.5011090000000 1.0
C      1  0.4979350000000  0.4724500000000  0.5226390000000 1.0
C      1  0.4865320000000  0.4655370000000  0.4934620000000 1.0
C      1  0.4923380000000  0.5263060000000  0.4686870000000 1.0
C      1  0.4831350000000  0.5211790000000  0.4977870000000 1.0
C      1  0.5029850000000  0.5375450000000  0.5200560000000 1.0
C      1  0.5228240000000  0.5215360000000  0.4989350000000 1.0
C      1  0.5374760000000  0.5265910000000  0.5860290000000 1.0
C      1  0.4182410000000  0.5366300000000  0.5365450000000 1.0
C      1  0.4391750000000  0.5271640000000  0.4259690000000 1.0
C      1  0.5755510000000  0.5295940000000  0.4688270000000 1.0
C      1  0.4574230000000  0.4702620000000  0.5769280000000 1.0
C      1  0.5813790000000  0.4644040000000  0.5378770000000 1.0
C      1  0.5450000000000  0.4711370000000  0.4155850000000 1.0
C      1  0.4147700000000  0.4690080000000  0.4646270000000 1.0
C      1  0.4221740000000  0.5075270000000  0.5523430000000 1.0
C      1  0.4365560000000  0.4989630000000  0.4218560000000 1.0
C      1  0.5779340000000  0.5040730000000  0.4464500000000 1.0
C      1  0.5582690000000  0.5036400000000  0.5817860000000 1.0
C      1  0.5796490000000  0.4880300000000  0.5604230000000 1.0
C      1  0.5613990000000  0.4946630000000  0.4232680000000 1.0
C      1  0.4192500000000  0.4888150000000  0.4427670000000 1.0
C      1  0.4407020000000  0.4996710000000  0.5734950000000 1.0
C      1  0.5321620000000  0.3980660000000  0.4722270000000 1.0
C      1  0.5223910000000  0.3992170000000  0.5341460000000 1.0
C      1  0.4654460000000  0.3962310000000  0.5319070000000 1.0
C      1  0.4658460000000  0.4011690000000  0.4610440000000 1.0
C      1  0.4619130000000  0.5975540000000  0.4757410000000 1.0
C      1  0.4696520000000  0.6061570000000  0.5393730000000 1.0
C      1  0.5423840000000  0.5938800000000  0.5345670000000 1.0
C      1  0.5370300000000  0.6113700000000  0.4626930000000 1.0
C      1  0.4403880000000  0.5585950000000  0.5229920000000 1.0
C      1  0.4852090000000  0.5630990000000  0.4517080000000 1.0
C      1  0.5562550000000  0.5541760000000  0.4830750000000 1.0
C      1  0.5253930000000  0.5640950000000  0.5594840000000 1.0
C      1  0.5622770000000  0.4430830000000  0.5267390000000 1.0
C      1  0.5242550000000  0.4319310000000  0.4472600000000 1.0
C      1  0.4500190000000  0.4341280000000  0.4771860000000 1.0
C      1  0.4768570000000  0.4500860000000  0.5615750000000 1.0
C      1  0.5037770000000  0.4827660000000  0.5601960000000 1.0
C      1  0.4317620000000  0.4759510000000  0.4932570000000 1.0
C      1  0.5146290000000  0.4660090000000  0.4287190000000 1.0
C      1  0.5716920000000  0.4766080000000  0.5076410000000 1.0
C      1  0.5105610000000  0.5274030000000  0.5652350000000 1.0
C      1  0.5758030000000  0.5244930000000  0.5010760000000 1.0
C      1  0.4972190000000  0.5241550000000  0.4294910000000 1.0
C      1  0.4306040000000  0.5228160000000  0.5080440000000 1.0
C      1  0.4971310000000  0.5584480000000  0.5690480000000 1.0
C      1  0.4455030000000  0.5548710000000  0.4895780000000 1.0
C      1  0.5150490000000  0.5580110000000  0.4510850000000 1.0
C      1  0.5488780000000  0.5683030000000  0.5131160000000 1.0
C      1  0.5098650000000  0.4500180000000  0.5533320000000 1.0
C      1  0.5545610000000  0.4400430000000  0.4953390000000 1.0
C      1  0.4927560000000  0.4437940000000  0.4423420000000 1.0
C      1  0.4549810000000  0.4425950000000  0.5096350000000 1.0
C      1  0.5696710000000  0.5272390000000  0.5403930000000 1.0
C      1  0.4530130000000  0.5324130000000  0.5543720000000 1.0
C      1  0.4284760000000  0.5338730000000  0.4520560000000 1.0
C      1  0.5485880000000  0.5293030000000  0.4367540000000 1.0
C      1  0.4457780000000  0.4774540000000  0.5408340000000 1.0
C      1  0.5426890000000  0.4739460000000  0.5622450000000 1.0
C      1  0.5658800000000  0.4665920000000  0.4512750000000 1.0
C      1  0.4537190000000  0.4686170000000  0.4408000000000 1.0
C      1  0.5453460000000  0.5140660000000  0.4669810000000 1.0
C      1  0.5383540000000  0.5207230000000  0.5468020000000 1.0
C      1  0.4572850000000  0.5129800000000  0.5267220000000 1.0
C      1  0.4670360000000  0.5299680000000  0.4386800000000 1.0
C      1  0.4509210000000  0.4858290000000  0.4669590000000 1.0
C      1  0.4733940000000  0.4889410000000  0.5534280000000 1.0
C      1  0.5484710000000  0.4855520000000  0.5308100000000 1.0
C      1  0.5338480000000  0.4784340000000  0.4532550000000 1.0
C      1  0.4670560000000  0.5513960000000  0.5788380000000 1.0
C      1  0.4172200000000  0.5409890000000  0.4825910000000 1.0
C      1  0.5225580000000  0.5425140000000  0.4230080000000 1.0
C      1  0.5755230000000  0.5503160000000  0.5218840000000 1.0
C      1  0.5266340000000  0.4542870000000  0.5826100000000 1.0
C      1  0.5788450000000  0.4510320000000  0.4777310000000 1.0
C      1  0.4714920000000  0.4525080000000  0.4166960000000 1.0
C      1  0.4289160000000  0.4559320000000  0.5206200000000 1.0
C      1  0.4077270000000  0.4984920000000  0.5016390000000 1.0
C      1  0.5000500000000  0.4938520000000  0.4181720000000 1.0
C      1  0.5947120000000  0.4982290000000  0.5014380000000 1.0
C      1  0.4990860000000  0.5029040000000  0.5858370000000 1.0
C      1  0.4980150000000  0.5686140000000  0.5148520000000 1.0
C      1  0.4942540000000  0.4317960000000  0.4982860000000 1.0
C      1  0.5032750000000  0.4950050000000  0.4905660000000 1.0
END
