TITL C-2622962-9663-345 -0.000315786681970833 125000 -279.606496255094 0 0 54 (C1) n - 1
REM
REM in /nfs/bkarasulu/CARBON/AIRSS/Generating-Clusters/AIREBO/with-SteepDescent/Higher-Symm/SD-CG/HFTN-CG
REM
REM
REM
REM
REM
REM ./C.cell (b20cbc046b6831c77cfcea5457e17084)
REM
REM compiler GCC version 9.2.1 20190827 (Red Hat 9.2.1-1)
REM options -cpp -mtune=generic -march=x86-64 -g -O0 -fpre-include=/usr/include/finclude/math-vector-fortran.h
REM seed 231750522 -326086442 442972159 -441926996 778726927 -457108439 1575954327 -1266117029 -1249577869 367765822 77506217 -1938398252 645561517 -1342877273 -85808355 -134211251 1265899041 975326256 -1943545073 -888252929 365110353 -549616178 -1005484250 -1243615625 -963147851 -458828134 1509034555 -577385643 -409427648 1974039398 -676733195 -34482782 1533259675
REM
CELL 1.54180   50.00000   50.00000   50.00000   90.00000   90.00000   90.00000
LATT -1
SFAC C  
C      1  0.4640470000000  0.4879530000000  0.5667280000000 1.0
C      1  0.5523630000000  0.4624660000000  0.5597220000000 1.0
C      1  0.5647450000000  0.4789370000000  0.4688440000000 1.0
C      1  0.5105480000000  0.5133280000000  0.4045190000000 1.0
C      1  0.4270240000000  0.4819940000000  0.4762420000000 1.0
C      1  0.4899490000000  0.4198270000000  0.4848560000000 1.0
C      1  0.4348580000000  0.4620180000000  0.4963360000000 1.0
C      1  0.4790510000000  0.4618490000000  0.5597340000000 1.0
C      1  0.5529950000000  0.4458220000000  0.5335560000000 1.0
C      1  0.5486660000000  0.4561010000000  0.4586100000000 1.0
C      1  0.5532500000000  0.4965050000000  0.4859780000000 1.0
C      1  0.5098140000000  0.5050240000000  0.4305270000000 1.0
C      1  0.4480280000000  0.4988090000000  0.4708080000000 1.0
C      1  0.4659910000000  0.5079470000000  0.5470410000000 1.0
C      1  0.5356310000000  0.4841070000000  0.5595280000000 1.0
C      1  0.5264430000000  0.4882700000000  0.5283330000000 1.0
C      1  0.5207970000000  0.5018540000000  0.4801550000000 1.0
C      1  0.4906680000000  0.4886890000000  0.4420790000000 1.0
C      1  0.4662500000000  0.5013500000000  0.4971330000000 1.0
C      1  0.4938970000000  0.4989080000000  0.5298430000000 1.0
C      1  0.5307530000000  0.5491990000000  0.5040550000000 1.0
C      1  0.5114180000000  0.5578620000000  0.4691830000000 1.0
C      1  0.4742950000000  0.5438580000000  0.4739260000000 1.0
C      1  0.4678500000000  0.5595590000000  0.5119060000000 1.0
C      1  0.5024110000000  0.5498930000000  0.5322260000000 1.0
C      1  0.5355200000000  0.4561700000000  0.5062700000000 1.0
C      1  0.5224580000000  0.4498930000000  0.4454280000000 1.0
C      1  0.4783810000000  0.4439610000000  0.4847600000000 1.0
C      1  0.4468040000000  0.4628070000000  0.5240620000000 1.0
C      1  0.5031920000000  0.4476660000000  0.5592400000000 1.0
C      1  0.4654910000000  0.4680730000000  0.4893560000000 1.0
C      1  0.4732410000000  0.4719110000000  0.5313370000000 1.0
C      1  0.5209430000000  0.4555810000000  0.5359490000000 1.0
C      1  0.5257510000000  0.4681590000000  0.4806490000000 1.0
C      1  0.5008220000000  0.4679540000000  0.4570490000000 1.0
C      1  0.5268970000000  0.5451660000000  0.4546990000000 1.0
C      1  0.4662940000000  0.5305860000000  0.4550720000000 1.0
C      1  0.4484020000000  0.5454520000000  0.5177700000000 1.0
C      1  0.5105180000000  0.5314810000000  0.5462070000000 1.0
C      1  0.5458710000000  0.5333940000000  0.5153490000000 1.0
C      1  0.4630880000000  0.5009120000000  0.4432650000000 1.0
C      1  0.4482170000000  0.5151700000000  0.5222370000000 1.0
C      1  0.5082450000000  0.5036200000000  0.5603260000000 1.0
C      1  0.5514890000000  0.5029280000000  0.5160980000000 1.0
C      1  0.5298590000000  0.5149220000000  0.4506440000000 1.0
C      1  0.5566180000000  0.5087930000000  0.4435280000000 1.0
C      1  0.4474740000000  0.4979740000000  0.4202870000000 1.0
C      1  0.4215080000000  0.5062160000000  0.5251880000000 1.0
C      1  0.4970260000000  0.5058130000000  0.5859310000000 1.0
C      1  0.5756850000000  0.4978530000000  0.5300040000000 1.0
C      1  0.4971800000000  0.5485670000000  0.4986470000000 1.0
C      1  0.4968970000000  0.5823930000000  0.4951420000000 1.0
C      1  0.5033750000000  0.3973330000000  0.4840420000000 1.0
C      1  0.4965720000000  0.5145560000000  0.4995000000000 1.0
END
