TITL C-2622961-1971-257 -1943.38745331136 125000 -744.013745647592 0 0 138 (C1) n - 1
REM
REM in /nfs/bkarasulu/CARBON/AIRSS/Generating-Clusters/AIREBO/with-SteepDescent/Higher-Symm/SD-CG/HFTN-CG
REM
REM
REM
REM
REM
REM ./C.cell (b20cbc046b6831c77cfcea5457e17084)
REM
REM compiler GCC version 9.2.1 20190827 (Red Hat 9.2.1-1)
REM options -cpp -mtune=generic -march=x86-64 -g -O0 -fpre-include=/usr/include/finclude/math-vector-fortran.h
REM seed -1547405057 -1109934731 1677634371 -1773965277 -1908254285 104975131 1436477421 276057796 1963481992 2017704064 2071283779 885111301 384005796 -820931056 -1259474890 1965996293 1093215600 91594047 2086115297 2001991245 1583726156 -1297299227 410921347 94412785 -1749702159 -1548665066 1110817537 2107051091 -2058111709 -283179976 -1013933655 -2129552362 1317736680
REM
CELL 1.54180   50.00000   50.00000   50.00000   90.00000   90.00000   90.00000
LATT -1
SFAC C  
C      1  0.4912990000000  0.5716340000000  0.5668230000000 1.0
C      1  0.5766550000000  0.4967420000000  0.4473750000000 1.0
C      1  0.4351780000000  0.4538440000000  0.4713280000000 1.0
C      1  0.5801160000000  0.5085260000000  0.5551790000000 1.0
C      1  0.4895870000000  0.5009900000000  0.4942600000000 1.0
C      1  0.5502640000000  0.5239200000000  0.5071110000000 1.0
C      1  0.5853180000000  0.4814800000000  0.5658120000000 1.0
C      1  0.4818200000000  0.5797970000000  0.4383800000000 1.0
C      1  0.4674070000000  0.5050910000000  0.6229880000000 1.0
C      1  0.4776110000000  0.5267550000000  0.5123860000000 1.0
C      1  0.5631840000000  0.5756640000000  0.5154680000000 1.0
C      1  0.4780170000000  0.5055580000000  0.5973750000000 1.0
C      1  0.4932690000000  0.4792780000000  0.5828590000000 1.0
C      1  0.5413700000000  0.5942400000000  0.4882890000000 1.0
C      1  0.4959020000000  0.4598220000000  0.4113010000000 1.0
C      1  0.4580140000000  0.5415340000000  0.4121290000000 1.0
C      1  0.6103740000000  0.5605670000000  0.4802130000000 1.0
C      1  0.4071650000000  0.4719960000000  0.4648210000000 1.0
C      1  0.4386620000000  0.4278790000000  0.5330700000000 1.0
C      1  0.5445470000000  0.5606260000000  0.4923190000000 1.0
C      1  0.5073160000000  0.4639930000000  0.5578590000000 1.0
C      1  0.5494670000000  0.5518710000000  0.4402610000000 1.0
C      1  0.4994950000000  0.5416150000000  0.5544330000000 1.0
C      1  0.4719470000000  0.5246500000000  0.5437700000000 1.0
C      1  0.5047650000000  0.5055150000000  0.4436960000000 1.0
C      1  0.5583930000000  0.5243840000000  0.4550940000000 1.0
C      1  0.4954570000000  0.6000760000000  0.4699760000000 1.0
C      1  0.5258500000000  0.4284210000000  0.4394670000000 1.0
C      1  0.4866590000000  0.4301130000000  0.5624780000000 1.0
C      1  0.5589670000000  0.4717890000000  0.4310290000000 1.0
C      1  0.4389130000000  0.4938930000000  0.5210520000000 1.0
C      1  0.4053450000000  0.4903460000000  0.5169040000000 1.0
C      1  0.5514650000000  0.5050550000000  0.5602320000000 1.0
C      1  0.5176420000000  0.5276690000000  0.5123890000000 1.0
C      1  0.5278410000000  0.4831450000000  0.5268710000000 1.0
C      1  0.4695090000000  0.5535920000000  0.4736980000000 1.0
C      1  0.5462670000000  0.5773390000000  0.5418950000000 1.0
C      1  0.4236740000000  0.5247410000000  0.5204970000000 1.0
C      1  0.3976720000000  0.5156240000000  0.5005760000000 1.0
C      1  0.4955570000000  0.3984160000000  0.4746700000000 1.0
C      1  0.4100100000000  0.4548050000000  0.4942090000000 1.0
C      1  0.4462040000000  0.4207580000000  0.4273530000000 1.0
C      1  0.4956160000000  0.4633300000000  0.4593820000000 1.0
C      1  0.5591210000000  0.4020960000000  0.5038080000000 1.0
C      1  0.4695730000000  0.4083740000000  0.4919750000000 1.0
C      1  0.5121750000000  0.4461190000000  0.4913610000000 1.0
C      1  0.4897660000000  0.4887400000000  0.4180940000000 1.0
C      1  0.5930240000000  0.5431040000000  0.4919170000000 1.0
C      1  0.4692370000000  0.5780080000000  0.5217640000000 1.0
C      1  0.4304560000000  0.4294040000000  0.4506670000000 1.0
C      1  0.5199380000000  0.4342330000000  0.5684240000000 1.0
C      1  0.4800580000000  0.4914300000000  0.4623310000000 1.0
C      1  0.4862160000000  0.6022370000000  0.4233880000000 1.0
C      1  0.5505620000000  0.4416460000000  0.4230220000000 1.0
C      1  0.5427760000000  0.5490840000000  0.5697530000000 1.0
C      1  0.5137950000000  0.5074530000000  0.4049920000000 1.0
C      1  0.5194620000000  0.5250260000000  0.5735300000000 1.0
C      1  0.6019810000000  0.4995250000000  0.5033850000000 1.0
C      1  0.4820220000000  0.4435520000000  0.4787930000000 1.0
C      1  0.5590660000000  0.4718880000000  0.5285800000000 1.0
C      1  0.5374620000000  0.4122440000000  0.5540510000000 1.0
C      1  0.5646240000000  0.4276650000000  0.4059190000000 1.0
C      1  0.4662570000000  0.5790410000000  0.5527540000000 1.0
C      1  0.5808230000000  0.4868110000000  0.4796590000000 1.0
C      1  0.5121020000000  0.5153420000000  0.4752280000000 1.0
C      1  0.4529690000000  0.5958890000000  0.5011950000000 1.0
C      1  0.5610160000000  0.4663590000000  0.4645430000000 1.0
C      1  0.5255250000000  0.5888210000000  0.5178960000000 1.0
C      1  0.5036150000000  0.5847440000000  0.4966420000000 1.0
C      1  0.5372060000000  0.4990710000000  0.4494890000000 1.0
C      1  0.5013410000000  0.4463270000000  0.4341670000000 1.0
C      1  0.4774810000000  0.4354240000000  0.5111600000000 1.0
C      1  0.4524230000000  0.5229970000000  0.4928300000000 1.0
C      1  0.5857600000000  0.4739940000000  0.5105500000000 1.0
C      1  0.5348750000000  0.4366980000000  0.4688820000000 1.0
C      1  0.5459550000000  0.4390180000000  0.5113680000000 1.0
C      1  0.5135710000000  0.5477950000000  0.4852760000000 1.0
C      1  0.5707800000000  0.5556970000000  0.5506070000000 1.0
C      1  0.5652070000000  0.4642960000000  0.5575380000000 1.0
C      1  0.5208710000000  0.5663440000000  0.5828080000000 1.0
C      1  0.5234120000000  0.5120260000000  0.5423080000000 1.0
C      1  0.5164660000000  0.3952100000000  0.4918240000000 1.0
C      1  0.5542360000000  0.4152450000000  0.4804070000000 1.0
C      1  0.4640460000000  0.5221870000000  0.5773210000000 1.0
C      1  0.4482600000000  0.4085420000000  0.5158130000000 1.0
C      1  0.4677350000000  0.5185120000000  0.4330100000000 1.0
C      1  0.4591280000000  0.4897160000000  0.4263440000000 1.0
C      1  0.5109950000000  0.5053920000000  0.5938600000000 1.0
C      1  0.5461670000000  0.4898910000000  0.5815310000000 1.0
C      1  0.5146730000000  0.5703450000000  0.5437310000000 1.0
C      1  0.5287830000000  0.5991450000000  0.4632830000000 1.0
C      1  0.5401640000000  0.4566760000000  0.5792570000000 1.0
C      1  0.4339340000000  0.5034200000000  0.4723270000000 1.0
C      1  0.5984760000000  0.5255120000000  0.5136140000000 1.0
C      1  0.5251660000000  0.4510820000000  0.5327030000000 1.0
C      1  0.4415760000000  0.4792200000000  0.4930410000000 1.0
C      1  0.5514530000000  0.4119230000000  0.5310840000000 1.0
C      1  0.4183730000000  0.5105470000000  0.5506550000000 1.0
C      1  0.4181220000000  0.4530660000000  0.5230840000000 1.0
C      1  0.5453970000000  0.5375900000000  0.5378600000000 1.0
C      1  0.4388080000000  0.5505750000000  0.4677620000000 1.0
C      1  0.5273390000000  0.4692820000000  0.4626660000000 1.0
C      1  0.4048830000000  0.5166420000000  0.4739770000000 1.0
C      1  0.4597780000000  0.5634460000000  0.4364030000000 1.0
C      1  0.5039990000000  0.5685870000000  0.4600770000000 1.0
C      1  0.4249680000000  0.4487160000000  0.5561840000000 1.0
C      1  0.5650160000000  0.5380750000000  0.4826730000000 1.0
C      1  0.4330840000000  0.5724790000000  0.5155780000000 1.0
C      1  0.4016920000000  0.4900010000000  0.4445570000000 1.0
C      1  0.4331180000000  0.5422880000000  0.4352880000000 1.0
C      1  0.4579410000000  0.4399440000000  0.5583470000000 1.0
C      1  0.4664630000000  0.6090230000000  0.4815910000000 1.0
C      1  0.4993920000000  0.4090570000000  0.4485500000000 1.0
C      1  0.4403090000000  0.5643620000000  0.5455560000000 1.0
C      1  0.5057490000000  0.4733440000000  0.5057120000000 1.0
C      1  0.4493230000000  0.4795400000000  0.4539580000000 1.0
C      1  0.4711710000000  0.4743760000000  0.5046800000000 1.0
C      1  0.5490140000000  0.4692920000000  0.4961830000000 1.0
C      1  0.4735850000000  0.4113260000000  0.4354220000000 1.0
C      1  0.5273760000000  0.4771850000000  0.6034790000000 1.0
C      1  0.4998760000000  0.4302380000000  0.5340680000000 1.0
C      1  0.5833430000000  0.5921430000000  0.5122490000000 1.0
C      1  0.5385500000000  0.4955900000000  0.4167840000000 1.0
C      1  0.4611190000000  0.4242680000000  0.4641640000000 1.0
C      1  0.4639930000000  0.4918600000000  0.5395600000000 1.0
C      1  0.5361650000000  0.4993160000000  0.4913580000000 1.0
C      1  0.4958750000000  0.4931840000000  0.5489270000000 1.0
C      1  0.5336290000000  0.5726510000000  0.4462170000000 1.0
C      1  0.4128140000000  0.4775920000000  0.5463490000000 1.0
C      1  0.4124020000000  0.5190140000000  0.4424960000000 1.0
C      1  0.4893300000000  0.5276100000000  0.4098330000000 1.0
C      1  0.4854540000000  0.5567420000000  0.5021880000000 1.0
C      1  0.4299990000000  0.5477570000000  0.4992660000000 1.0
C      1  0.5189810000000  0.4195840000000  0.5092300000000 1.0
C      1  0.4413580000000  0.5343080000000  0.5550580000000 1.0
C      1  0.4673260000000  0.5229490000000  0.4631150000000 1.0
C      1  0.5869850000000  0.5303190000000  0.5394130000000 1.0
C      1  0.4643480000000  0.4585060000000  0.5324080000000 1.0
END
