TITL C-2622968-4806-683 -0.104190791785123 125000 -1033.24860309181 0 0 186 (C1) n - 1
REM
REM in /nfs/bkarasulu/CARBON/AIRSS/Generating-Clusters/AIREBO/with-SteepDescent/Higher-Symm/SD-CG/HFTN-CG
REM
REM
REM
REM
REM
REM ./C.cell (b20cbc046b6831c77cfcea5457e17084)
REM
REM compiler GCC version 9.2.1 20190827 (Red Hat 9.2.1-1)
REM options -cpp -mtune=generic -march=x86-64 -g -O0 -fpre-include=/usr/include/finclude/math-vector-fortran.h
REM seed -1681787934 1769970108 1818295131 -1842959521 78643405 -862266656 1704336617 -1085946007 2041347736 -1695218291 -35815790 1597033531 588211178 -478062169 877197752 -1229468852 -1698969774 2085012497 -343959014 -879560018 724274832 -578083732 -814110741 556908487 1919796431 -1721294195 -1269729164 -1474191924 449943460 -1073709550 404302780 -1782125139 735137266
REM
CELL 1.54180   50.00000   50.00000   50.00000   90.00000   90.00000   90.00000
LATT -1
SFAC C  
C      1  0.4855430000000  0.6025530000000  0.4469600000000 1.0
C      1  0.4855660000000  0.4910270000000  0.6096020000000 1.0
C      1  0.4868470000000  0.4018280000000  0.4419690000000 1.0
C      1  0.5133340000000  0.3957390000000  0.4506140000000 1.0
C      1  0.5110330000000  0.5020330000000  0.6126360000000 1.0
C      1  0.5110840000000  0.5975180000000  0.4370050000000 1.0
C      1  0.5155860000000  0.4323420000000  0.4161750000000 1.0
C      1  0.5150160000000  0.6115140000000  0.4837140000000 1.0
C      1  0.5164050000000  0.4528590000000  0.5988840000000 1.0
C      1  0.4809270000000  0.5688360000000  0.4082160000000 1.0
C      1  0.4851330000000  0.3864280000000  0.4906740000000 1.0
C      1  0.4834450000000  0.5375530000000  0.6049100000000 1.0
C      1  0.4601490000000  0.4359020000000  0.4133440000000 1.0
C      1  0.4568210000000  0.6032990000000  0.4914830000000 1.0
C      1  0.4574220000000  0.4568600000000  0.5914430000000 1.0
C      1  0.5380950000000  0.5666500000000  0.4087250000000 1.0
C      1  0.5419770000000  0.3901620000000  0.4933890000000 1.0
C      1  0.5396480000000  0.5454100000000  0.5976330000000 1.0
C      1  0.4872150000000  0.4279700000000  0.4279980000000 1.0
C      1  0.4856520000000  0.6016780000000  0.4767760000000 1.0
C      1  0.4875010000000  0.4645510000000  0.5945580000000 1.0
C      1  0.5097290000000  0.5727140000000  0.4210770000000 1.0
C      1  0.5133140000000  0.3930000000000  0.4801010000000 1.0
C      1  0.5119870000000  0.5288150000000  0.5992180000000 1.0
C      1  0.4573080000000  0.4652340000000  0.4116860000000 1.0
C      1  0.4598600000000  0.5953250000000  0.5244160000000 1.0
C      1  0.4527590000000  0.4361410000000  0.5697340000000 1.0
C      1  0.5374410000000  0.5340740000000  0.3990270000000 1.0
C      1  0.5417260000000  0.4042470000000  0.5170710000000 1.0
C      1  0.5417300000000  0.5595360000000  0.5727190000000 1.0
C      1  0.4691370000000  0.5390090000000  0.5214260000000 1.0
C      1  0.4675930000000  0.4620310000000  0.5195520000000 1.0
C      1  0.4707470000000  0.5035110000000  0.4504770000000 1.0
C      1  0.5311250000000  0.4653550000000  0.5296670000000 1.0
C      1  0.5352850000000  0.5378150000000  0.5214320000000 1.0
C      1  0.5292100000000  0.5075220000000  0.4464910000000 1.0
C      1  0.5595100000000  0.4998970000000  0.4405790000000 1.0
C      1  0.5634530000000  0.5539610000000  0.5316980000000 1.0
C      1  0.5587630000000  0.4497130000000  0.5418910000000 1.0
C      1  0.4457070000000  0.5035110000000  0.4273980000000 1.0
C      1  0.4372490000000  0.4467710000000  0.5212860000000 1.0
C      1  0.4439870000000  0.5524120000000  0.5400040000000 1.0
C      1  0.4219690000000  0.5660710000000  0.5247400000000 1.0
C      1  0.4192630000000  0.4552910000000  0.5412040000000 1.0
C      1  0.4249080000000  0.4808770000000  0.4337070000000 1.0
C      1  0.5780900000000  0.4400830000000  0.5155020000000 1.0
C      1  0.5819040000000  0.5392770000000  0.5538650000000 1.0
C      1  0.5780990000000  0.5205050000000  0.4425100000000 1.0
C      1  0.5974450000000  0.4909630000000  0.5615820000000 1.0
C      1  0.5884570000000  0.4436630000000  0.4421560000000 1.0
C      1  0.5946550000000  0.5800380000000  0.4825950000000 1.0
C      1  0.4071110000000  0.5075340000000  0.5637680000000 1.0
C      1  0.4053350000000  0.5579610000000  0.4630520000000 1.0
C      1  0.4053370000000  0.4389030000000  0.4817360000000 1.0
C      1  0.4989030000000  0.4091550000000  0.5703620000000 1.0
C      1  0.4939770000000  0.4746880000000  0.3989720000000 1.0
C      1  0.4996360000000  0.6181030000000  0.5303240000000 1.0
C      1  0.4978650000000  0.5940050000000  0.5426170000000 1.0
C      1  0.5059530000000  0.5306770000000  0.3943960000000 1.0
C      1  0.5047440000000  0.3894750000000  0.5422130000000 1.0
C      1  0.5431660000000  0.5765350000000  0.5432940000000 1.0
C      1  0.5303230000000  0.4111260000000  0.5461900000000 1.0
C      1  0.5364690000000  0.5004470000000  0.4027580000000 1.0
C      1  0.4701530000000  0.4171330000000  0.5543090000000 1.0
C      1  0.4644620000000  0.5741430000000  0.5505830000000 1.0
C      1  0.4675230000000  0.4876860000000  0.3953560000000 1.0
C      1  0.5952580000000  0.4351960000000  0.4674340000000 1.0
C      1  0.5931290000000  0.5591800000000  0.4641740000000 1.0
C      1  0.5951440000000  0.5160440000000  0.5754020000000 1.0
C      1  0.4071630000000  0.5831110000000  0.4815680000000 1.0
C      1  0.4070340000000  0.4503270000000  0.4523380000000 1.0
C      1  0.4007680000000  0.4803900000000  0.5805130000000 1.0
C      1  0.4589400000000  0.5201970000000  0.4006020000000 1.0
C      1  0.4561250000000  0.5663900000000  0.5796370000000 1.0
C      1  0.4617480000000  0.3985740000000  0.5306170000000 1.0
C      1  0.5414640000000  0.4707650000000  0.4041340000000 1.0
C      1  0.5508790000000  0.4265020000000  0.5654890000000 1.0
C      1  0.5429930000000  0.6032140000000  0.5222100000000 1.0
C      1  0.4393790000000  0.5351080000000  0.4240770000000 1.0
C      1  0.4373250000000  0.5433870000000  0.5783680000000 1.0
C      1  0.4498550000000  0.4116810000000  0.5100570000000 1.0
C      1  0.5523830000000  0.4628020000000  0.4279740000000 1.0
C      1  0.5550630000000  0.4550190000000  0.5806930000000 1.0
C      1  0.5521440000000  0.5816700000000  0.5047540000000 1.0
C      1  0.5323810000000  0.4192320000000  0.4427450000000 1.0
C      1  0.5334980000000  0.5966490000000  0.4592750000000 1.0
C      1  0.5326710000000  0.4826260000000  0.6022240000000 1.0
C      1  0.4639370000000  0.5829430000000  0.4341050000000 1.0
C      1  0.4678910000000  0.4038050000000  0.4668220000000 1.0
C      1  0.4633500000000  0.5109070000000  0.5983320000000 1.0
C      1  0.5326430000000  0.5280500000000  0.4889340000000 1.0
C      1  0.5396290000000  0.4977690000000  0.5237490000000 1.0
C      1  0.5433530000000  0.4706420000000  0.4916250000000 1.0
C      1  0.4623200000000  0.4778250000000  0.4898630000000 1.0
C      1  0.4610090000000  0.5059910000000  0.5204480000000 1.0
C      1  0.4648470000000  0.5178390000000  0.4807720000000 1.0
C      1  0.5146700000000  0.5714210000000  0.5257180000000 1.0
C      1  0.5055550000000  0.4343080000000  0.5484650000000 1.0
C      1  0.5119980000000  0.4893810000000  0.4236460000000 1.0
C      1  0.4831670000000  0.4327210000000  0.5269490000000 1.0
C      1  0.4926600000000  0.5605120000000  0.5465050000000 1.0
C      1  0.4957510000000  0.5161810000000  0.4183110000000 1.0
C      1  0.5649640000000  0.5513640000000  0.4481180000000 1.0
C      1  0.5635950000000  0.5220730000000  0.5762640000000 1.0
C      1  0.5706740000000  0.4277880000000  0.4845120000000 1.0
C      1  0.4362680000000  0.4498470000000  0.4417520000000 1.0
C      1  0.4305790000000  0.4725530000000  0.5664360000000 1.0
C      1  0.4306330000000  0.5839690000000  0.5003350000000 1.0
C      1  0.4599320000000  0.5023710000000  0.5536030000000 1.0
C      1  0.4569810000000  0.4492210000000  0.4757650000000 1.0
C      1  0.4577450000000  0.5490410000000  0.4703820000000 1.0
C      1  0.5460940000000  0.5015880000000  0.5569150000000 1.0
C      1  0.5368120000000  0.5496990000000  0.4679300000000 1.0
C      1  0.5430260000000  0.4434340000000  0.4764540000000 1.0
C      1  0.5207220000000  0.4233630000000  0.4873730000000 1.0
C      1  0.5150960000000  0.5501260000000  0.4426840000000 1.0
C      1  0.5184250000000  0.5173600000000  0.5688640000000 1.0
C      1  0.4800660000000  0.5707850000000  0.4839940000000 1.0
C      1  0.4815430000000  0.4481070000000  0.4522560000000 1.0
C      1  0.4811780000000  0.4778310000000  0.5638630000000 1.0
C      1  0.5327740000000  0.5757220000000  0.4834980000000 1.0
C      1  0.5318980000000  0.4760990000000  0.5706250000000 1.0
C      1  0.5323770000000  0.4508550000000  0.4473960000000 1.0
C      1  0.4704740000000  0.4246860000000  0.4899030000000 1.0
C      1  0.4668550000000  0.5289230000000  0.5696950000000 1.0
C      1  0.4631680000000  0.5516280000000  0.4394460000000 1.0
C      1  0.3863240000000  0.4865200000000  0.5512370000000 1.0
C      1  0.3979530000000  0.4713130000000  0.4782470000000 1.0
C      1  0.3891670000000  0.5575730000000  0.4910940000000 1.0
C      1  0.6041040000000  0.4978070000000  0.5349550000000 1.0
C      1  0.6002540000000  0.5348640000000  0.4778860000000 1.0
C      1  0.6088480000000  0.4562280000000  0.4804800000000 1.0
C      1  0.5670270000000  0.4913090000000  0.4786150000000 1.0
C      1  0.5579910000000  0.5135140000000  0.4998100000000 1.0
C      1  0.5663010000000  0.4782480000000  0.5157500000000 1.0
C      1  0.4394990000000  0.4965500000000  0.4729530000000 1.0
C      1  0.4362000000000  0.4849840000000  0.5104520000000 1.0
C      1  0.4387170000000  0.5236350000000  0.5017770000000 1.0
C      1  0.4948020000000  0.5288700000000  0.5501370000000 1.0
C      1  0.4972220000000  0.4393100000000  0.4990350000000 1.0
C      1  0.4895400000000  0.5310910000000  0.4465060000000 1.0
C      1  0.5086050000000  0.4646380000000  0.5551380000000 1.0
C      1  0.5066910000000  0.5596070000000  0.4958460000000 1.0
C      1  0.5062650000000  0.4681970000000  0.4497340000000 1.0
C      1  0.4013560000000  0.4897460000000  0.4516370000000 1.0
C      1  0.3998040000000  0.5484470000000  0.5162690000000 1.0
C      1  0.3967000000000  0.4697660000000  0.5304930000000 1.0
C      1  0.5986330000000  0.5137030000000  0.4604260000000 1.0
C      1  0.6048110000000  0.4544050000000  0.5083030000000 1.0
C      1  0.5969540000000  0.5244140000000  0.5297450000000 1.0
C      1  0.5701630000000  0.4770370000000  0.5596380000000 1.0
C      1  0.5746230000000  0.4726530000000  0.4461380000000 1.0
C      1  0.5786090000000  0.5661750000000  0.5057960000000 1.0
C      1  0.4315960000000  0.5230050000000  0.5517620000000 1.0
C      1  0.4280140000000  0.5410650000000  0.4549300000000 1.0
C      1  0.4317350000000  0.4334550000000  0.4930120000000 1.0
C      1  0.4896620000000  0.4878490000000  0.5214230000000 1.0
C      1  0.4938550000000  0.4841820000000  0.4771000000000 1.0
C      1  0.4918730000000  0.5289800000000  0.4982020000000 1.0
C      1  0.5102190000000  0.5148820000000  0.5231320000000 1.0
C      1  0.5068380000000  0.5150340000000  0.4710140000000 1.0
C      1  0.5111270000000  0.4695200000000  0.5024530000000 1.0
C      1  0.5337540000000  0.4349690000000  0.5146350000000 1.0
C      1  0.5409730000000  0.5340260000000  0.4313790000000 1.0
C      1  0.5332360000000  0.5392310000000  0.5528420000000 1.0
C      1  0.4595590000000  0.5665610000000  0.5062850000000 1.0
C      1  0.4625180000000  0.4714180000000  0.4431500000000 1.0
C      1  0.4572050000000  0.4627950000000  0.5519230000000 1.0
C      1  0.4477520000000  0.5999610000000  0.4587370000000 1.0
C      1  0.4430700000000  0.4846830000000  0.5951230000000 1.0
C      1  0.4507530000000  0.4189000000000  0.4412790000000 1.0
C      1  0.5514790000000  0.4055060000000  0.4674440000000 1.0
C      1  0.5482980000000  0.5130940000000  0.6038190000000 1.0
C      1  0.5513730000000  0.5798720000000  0.4355120000000 1.0
C      1  0.5210940000000  0.6176490000000  0.5110250000000 1.0
C      1  0.5225870000000  0.4293790000000  0.5841300000000 1.0
C      1  0.5175410000000  0.4556870000000  0.3999980000000 1.0
C      1  0.4851560000000  0.3859550000000  0.5209390000000 1.0
C      1  0.4736930000000  0.5626080000000  0.6011830000000 1.0
C      1  0.4793600000000  0.5435840000000  0.3943820000000 1.0
C      1  0.5981770000000  0.4828860000000  0.4678770000000 1.0
C      1  0.5832250000000  0.5324170000000  0.5044500000000 1.0
C      1  0.5931420000000  0.4786240000000  0.5181140000000 1.0
C      1  0.4200940000000  0.5111000000000  0.4593410000000 1.0
C      1  0.4082320000000  0.4803650000000  0.5065110000000 1.0
C      1  0.4178800000000  0.5257190000000  0.5207600000000 1.0
END
