TITL C-2622967-6265-401 -0.00221285206061699 125000 -1043.1901861666 0 0 195 (C1) n - 1
REM
REM in /nfs/bkarasulu/CARBON/AIRSS/Generating-Clusters/AIREBO/with-SteepDescent/Higher-Symm/SD-CG/HFTN-CG
REM
REM
REM
REM
REM
REM ./C.cell (b20cbc046b6831c77cfcea5457e17084)
REM
REM compiler GCC version 9.2.1 20190827 (Red Hat 9.2.1-1)
REM options -cpp -mtune=generic -march=x86-64 -g -O0 -fpre-include=/usr/include/finclude/math-vector-fortran.h
REM seed -1698084480 1886093510 1867645850 -691860848 -285406063 271890870 -605714927 1255963712 720099680 -1470128631 611344760 1664552018 406720690 1960309721 -1581804089 989585498 773145838 -956156527 -1018062567 -243593443 1402769384 -268984791 1483030728 180101519 404300977 -19032378 904796888 -1128135450 1342198235 43707287 -418208926 -286897656 156481511
REM
CELL 1.54180   50.00000   50.00000   50.00000   90.00000   90.00000   90.00000
LATT -1
SFAC C  
C      1  0.4911150000000  0.4372590000000  0.5214510000000 1.0
C      1  0.4855360000000  0.5646810000000  0.4874030000000 1.0
C      1  0.4532740000000  0.5501520000000  0.4515100000000 1.0
C      1  0.4625280000000  0.4464680000000  0.5374200000000 1.0
C      1  0.4896610000000  0.5571000000000  0.5641900000000 1.0
C      1  0.4714610000000  0.4399800000000  0.4490690000000 1.0
C      1  0.5747920000000  0.5102660000000  0.5812530000000 1.0
C      1  0.5960940000000  0.4887590000000  0.4280730000000 1.0
C      1  0.4831520000000  0.5240930000000  0.6032850000000 1.0
C      1  0.4896380000000  0.4669500000000  0.4039330000000 1.0
C      1  0.5255060000000  0.5269300000000  0.5017590000000 1.0
C      1  0.5162550000000  0.4736980000000  0.4931680000000 1.0
C      1  0.4680840000000  0.4329690000000  0.5861770000000 1.0
C      1  0.4600220000000  0.5658020000000  0.4153230000000 1.0
C      1  0.4686510000000  0.4213420000000  0.3998230000000 1.0
C      1  0.4853720000000  0.5803190000000  0.5886720000000 1.0
C      1  0.3878810000000  0.4344760000000  0.4720940000000 1.0
C      1  0.3877520000000  0.5407000000000  0.5195930000000 1.0
C      1  0.5420280000000  0.5297380000000  0.6188090000000 1.0
C      1  0.5570150000000  0.4607340000000  0.4055670000000 1.0
C      1  0.5229180000000  0.4099880000000  0.5366610000000 1.0
C      1  0.5224100000000  0.5946590000000  0.4579280000000 1.0
C      1  0.5237300000000  0.5023280000000  0.5647100000000 1.0
C      1  0.5175530000000  0.5046480000000  0.4410830000000 1.0
C      1  0.5293230000000  0.5289990000000  0.4286240000000 1.0
C      1  0.5370520000000  0.4801920000000  0.5852040000000 1.0
C      1  0.4148840000000  0.5908490000000  0.5125820000000 1.0
C      1  0.4223580000000  0.4073820000000  0.4886700000000 1.0
C      1  0.4416190000000  0.4837230000000  0.4923350000000 1.0
C      1  0.4558550000000  0.5145990000000  0.4932910000000 1.0
C      1  0.4654780000000  0.5571340000000  0.5138200000000 1.0
C      1  0.4651970000000  0.4353700000000  0.4995180000000 1.0
C      1  0.5487690000000  0.4295530000000  0.5775020000000 1.0
C      1  0.5402260000000  0.5598490000000  0.4208520000000 1.0
C      1  0.5488140000000  0.4833190000000  0.4912880000000 1.0
C      1  0.5439800000000  0.5223400000000  0.5367430000000 1.0
C      1  0.4840240000000  0.4626970000000  0.4920940000000 1.0
C      1  0.4893290000000  0.5276820000000  0.5187500000000 1.0
C      1  0.5116360000000  0.4009280000000  0.4775970000000 1.0
C      1  0.5108500000000  0.6020130000000  0.5132140000000 1.0
C      1  0.4341910000000  0.4562860000000  0.4172810000000 1.0
C      1  0.4425620000000  0.5446550000000  0.5855560000000 1.0
C      1  0.4463160000000  0.5828790000000  0.5022830000000 1.0
C      1  0.4652340000000  0.4075620000000  0.5153650000000 1.0
C      1  0.5153260000000  0.5284510000000  0.6031290000000 1.0
C      1  0.5186420000000  0.4750340000000  0.3895880000000 1.0
C      1  0.5772010000000  0.4801270000000  0.5969390000000 1.0
C      1  0.5729880000000  0.5110590000000  0.4168440000000 1.0
C      1  0.4700730000000  0.5026440000000  0.5815000000000 1.0
C      1  0.4644160000000  0.4918310000000  0.4198400000000 1.0
C      1  0.4711450000000  0.5400330000000  0.5426790000000 1.0
C      1  0.4573330000000  0.4619140000000  0.4708840000000 1.0
C      1  0.4946370000000  0.5004900000000  0.4068770000000 1.0
C      1  0.4970550000000  0.4932460000000  0.5983760000000 1.0
C      1  0.4582810000000  0.5292710000000  0.4314780000000 1.0
C      1  0.4634550000000  0.4698440000000  0.5596880000000 1.0
C      1  0.5456110000000  0.4031580000000  0.4765950000000 1.0
C      1  0.5429950000000  0.5960980000000  0.5226890000000 1.0
C      1  0.5661210000000  0.4300860000000  0.4732330000000 1.0
C      1  0.5623260000000  0.5682540000000  0.5256410000000 1.0
C      1  0.5908370000000  0.5768060000000  0.4989950000000 1.0
C      1  0.5975880000000  0.4286820000000  0.5052710000000 1.0
C      1  0.4133150000000  0.4492120000000  0.5443280000000 1.0
C      1  0.4052350000000  0.5499280000000  0.4579140000000 1.0
C      1  0.4705600000000  0.4037340000000  0.5443360000000 1.0
C      1  0.4710250000000  0.5914610000000  0.4722600000000 1.0
C      1  0.4417580000000  0.4652830000000  0.5209030000000 1.0
C      1  0.4700300000000  0.5392440000000  0.4745140000000 1.0
C      1  0.4432480000000  0.5480930000000  0.3999970000000 1.0
C      1  0.4506550000000  0.4536000000000  0.5965430000000 1.0
C      1  0.5907280000000  0.4529150000000  0.4824230000000 1.0
C      1  0.5858160000000  0.5466480000000  0.5138840000000 1.0
C      1  0.5131970000000  0.5725470000000  0.5023010000000 1.0
C      1  0.5055970000000  0.4295170000000  0.4932400000000 1.0
C      1  0.4235500000000  0.4889070000000  0.4136970000000 1.0
C      1  0.4328300000000  0.5141730000000  0.5740460000000 1.0
C      1  0.3919750000000  0.5068550000000  0.5212090000000 1.0
C      1  0.4042570000000  0.5089520000000  0.4712320000000 1.0
C      1  0.4737190000000  0.5070780000000  0.5506070000000 1.0
C      1  0.4811630000000  0.4908550000000  0.4494450000000 1.0
C      1  0.5407340000000  0.5842400000000  0.5545690000000 1.0
C      1  0.5355440000000  0.4223240000000  0.4503700000000 1.0
C      1  0.4029100000000  0.4283150000000  0.4948070000000 1.0
C      1  0.3961670000000  0.5709090000000  0.5064170000000 1.0
C      1  0.5251600000000  0.5088600000000  0.3943960000000 1.0
C      1  0.5253190000000  0.4947500000000  0.6108060000000 1.0
C      1  0.4648570000000  0.3866610000000  0.4941470000000 1.0
C      1  0.4610020000000  0.6113500000000  0.4984400000000 1.0
C      1  0.5506930000000  0.4916590000000  0.4062250000000 1.0
C      1  0.5574900000000  0.5054400000000  0.6082000000000 1.0
C      1  0.4883670000000  0.4042160000000  0.4527510000000 1.0
C      1  0.4859990000000  0.5992840000000  0.5363100000000 1.0
C      1  0.5104630000000  0.5728570000000  0.4267240000000 1.0
C      1  0.5182390000000  0.4251980000000  0.5731180000000 1.0
C      1  0.4982780000000  0.3905990000000  0.5300950000000 1.0
C      1  0.4955530000000  0.6113790000000  0.4630770000000 1.0
C      1  0.5514140000000  0.4078100000000  0.5342240000000 1.0
C      1  0.5506180000000  0.5909560000000  0.4614110000000 1.0
C      1  0.5772850000000  0.5685020000000  0.5526350000000 1.0
C      1  0.5836240000000  0.4334870000000  0.4483650000000 1.0
C      1  0.4914930000000  0.6182450000000  0.4935380000000 1.0
C      1  0.4940480000000  0.3843460000000  0.5002580000000 1.0
C      1  0.6161990000000  0.5168540000000  0.4508550000000 1.0
C      1  0.6068030000000  0.4659220000000  0.5394410000000 1.0
C      1  0.5056170000000  0.5662350000000  0.4599980000000 1.0
C      1  0.5127530000000  0.4402370000000  0.5431130000000 1.0
C      1  0.4040800000000  0.4974040000000  0.4327750000000 1.0
C      1  0.4062480000000  0.4986560000000  0.5624770000000 1.0
C      1  0.4320560000000  0.4357840000000  0.4448380000000 1.0
C      1  0.4352330000000  0.5705960000000  0.5401990000000 1.0
C      1  0.4937840000000  0.4713220000000  0.5746090000000 1.0
C      1  0.4882550000000  0.5282720000000  0.4213240000000 1.0
C      1  0.4573140000000  0.4176580000000  0.5643390000000 1.0
C      1  0.4548500000000  0.5823130000000  0.4446410000000 1.0
C      1  0.5207850000000  0.4517420000000  0.4434680000000 1.0
C      1  0.5419470000000  0.5502590000000  0.5563350000000 1.0
C      1  0.5868040000000  0.4674120000000  0.5668970000000 1.0
C      1  0.5928200000000  0.5269160000000  0.4388580000000 1.0
C      1  0.4018190000000  0.4478650000000  0.4529400000000 1.0
C      1  0.4046460000000  0.5562780000000  0.5425180000000 1.0
C      1  0.4438430000000  0.4836040000000  0.5838150000000 1.0
C      1  0.4428870000000  0.5146580000000  0.4066110000000 1.0
C      1  0.5007420000000  0.4871080000000  0.5453040000000 1.0
C      1  0.4919040000000  0.5224440000000  0.4546240000000 1.0
C      1  0.5052090000000  0.6061830000000  0.4309550000000 1.0
C      1  0.5081110000000  0.3943690000000  0.5626840000000 1.0
C      1  0.5499690000000  0.4928180000000  0.5361680000000 1.0
C      1  0.5579390000000  0.5104080000000  0.4856700000000 1.0
C      1  0.4089360000000  0.5469380000000  0.4869530000000 1.0
C      1  0.4115900000000  0.4504100000000  0.5123590000000 1.0
C      1  0.4997720000000  0.4351540000000  0.4606910000000 1.0
C      1  0.5039660000000  0.5751830000000  0.5420400000000 1.0
C      1  0.4008700000000  0.4759370000000  0.4546130000000 1.0
C      1  0.4010380000000  0.5283630000000  0.5548870000000 1.0
C      1  0.4325140000000  0.5551170000000  0.5100460000000 1.0
C      1  0.4389620000000  0.4342350000000  0.4781270000000 1.0
C      1  0.4098470000000  0.4828000000000  0.5044320000000 1.0
C      1  0.4238890000000  0.5191310000000  0.4972560000000 1.0
C      1  0.5821020000000  0.4849440000000  0.5308390000000 1.0
C      1  0.5874730000000  0.5077080000000  0.4769180000000 1.0
C      1  0.5591640000000  0.4077150000000  0.5054470000000 1.0
C      1  0.5610560000000  0.5923810000000  0.4938350000000 1.0
C      1  0.4941500000000  0.4420330000000  0.5825480000000 1.0
C      1  0.4875920000000  0.5577750000000  0.4140140000000 1.0
C      1  0.5299680000000  0.5444950000000  0.4567520000000 1.0
C      1  0.5278470000000  0.4678400000000  0.5381710000000 1.0
C      1  0.4301950000000  0.4907190000000  0.4622870000000 1.0
C      1  0.4227930000000  0.5172150000000  0.5312030000000 1.0
C      1  0.5641920000000  0.4217460000000  0.5548750000000 1.0
C      1  0.5597780000000  0.5717520000000  0.4424390000000 1.0
C      1  0.5698580000000  0.4673990000000  0.4314660000000 1.0
C      1  0.5721280000000  0.5421520000000  0.5697490000000 1.0
C      1  0.4447610000000  0.4927620000000  0.5399950000000 1.0
C      1  0.4541500000000  0.5093310000000  0.4539230000000 1.0
C      1  0.5662000000000  0.4400560000000  0.5132370000000 1.0
C      1  0.5661320000000  0.5607070000000  0.4820670000000 1.0
C      1  0.5142790000000  0.4982170000000  0.5162470000000 1.0
C      1  0.5049320000000  0.5155800000000  0.4821730000000 1.0
C      1  0.4673690000000  0.4476480000000  0.4165710000000 1.0
C      1  0.4712440000000  0.5491240000000  0.5916470000000 1.0
C      1  0.4348270000000  0.4344970000000  0.5531150000000 1.0
C      1  0.4252720000000  0.5656920000000  0.4473820000000 1.0
C      1  0.5579470000000  0.5300120000000  0.5095220000000 1.0
C      1  0.5721230000000  0.4708370000000  0.5043290000000 1.0
C      1  0.4049040000000  0.4802420000000  0.5379770000000 1.0
C      1  0.3968430000000  0.5252740000000  0.4444270000000 1.0
C      1  0.5293220000000  0.5591210000000  0.5260330000000 1.0
C      1  0.5345080000000  0.4409690000000  0.4794570000000 1.0
C      1  0.6055220000000  0.5276540000000  0.4954200000000 1.0
C      1  0.6183320000000  0.4708270000000  0.4910210000000 1.0
C      1  0.4366280000000  0.6152610000000  0.5219370000000 1.0
C      1  0.4452730000000  0.3940610000000  0.4753500000000 1.0
C      1  0.4574990000000  0.5962200000000  0.5382260000000 1.0
C      1  0.4549230000000  0.4104370000000  0.4505650000000 1.0
C      1  0.6269790000000  0.4637810000000  0.5166910000000 1.0
C      1  0.6185040000000  0.4996370000000  0.4801200000000 1.0
C      1  0.5249320000000  0.4770620000000  0.4229420000000 1.0
C      1  0.5165740000000  0.5402370000000  0.5750260000000 1.0
C      1  0.5494150000000  0.5313280000000  0.4029510000000 1.0
C      1  0.5565260000000  0.4531540000000  0.5916110000000 1.0
C      1  0.5806820000000  0.4443090000000  0.5437120000000 1.0
C      1  0.5775030000000  0.5495320000000  0.4538610000000 1.0
C      1  0.5731350000000  0.4941700000000  0.4525660000000 1.0
C      1  0.5836070000000  0.5091230000000  0.5507750000000 1.0
C      1  0.5106840000000  0.4777080000000  0.4600190000000 1.0
C      1  0.5119840000000  0.5267460000000  0.5441540000000 1.0
C      1  0.4394310000000  0.5388200000000  0.5515480000000 1.0
C      1  0.4474090000000  0.4723670000000  0.4407740000000 1.0
C      1  0.5967340000000  0.4621870000000  0.4502560000000 1.0
C      1  0.5946410000000  0.5345160000000  0.5419760000000 1.0
C      1  0.5579290000000  0.4794980000000  0.5621430000000 1.0
C      1  0.5571580000000  0.5240580000000  0.4567390000000 1.0
C      1  0.5340000000000  0.4508250000000  0.5110580000000 1.0
C      1  0.5357890000000  0.5542950000000  0.4869830000000 1.0
C      1  0.4841100000000  0.4998870000000  0.5006430000000 1.0
END
