TITL C-2622962-9663-634 -0.000729076507602436 125000 -205.579693141708 0 0 38 (C1) n - 1
REM
REM in /nfs/bkarasulu/CARBON/AIRSS/Generating-Clusters/AIREBO/with-SteepDescent/Higher-Symm/SD-CG/HFTN-CG
REM
REM
REM
REM
REM
REM ./C.cell (b20cbc046b6831c77cfcea5457e17084)
REM
REM compiler GCC version 9.2.1 20190827 (Red Hat 9.2.1-1)
REM options -cpp -mtune=generic -march=x86-64 -g -O0 -fpre-include=/usr/include/finclude/math-vector-fortran.h
REM seed -926794395 -2111101254 1767110314 -1832776917 -1884119242 1399275251 2055779843 -383059569 1724938184 -2029754504 1729775011 2128827408 379752104 -2041323919 -1116716285 -276980847 -193753856 1414788512 -1834808277 -1092716871 1557089389 -2030870782 -1719667276 557823914 2107705956 -287878655 -377819775 421812697 387960106 -1917822090 1197781989 -740658376 1345587649
REM
CELL 1.54180   50.00000   50.00000   50.00000   90.00000   90.00000   90.00000
LATT -1
SFAC C  
C      1  0.4516010000000  0.5215080000000  0.4942540000000 1.0
C      1  0.5415870000000  0.5218630000000  0.4896950000000 1.0
C      1  0.5111200000000  0.5606660000000  0.4784860000000 1.0
C      1  0.4861530000000  0.5601980000000  0.4798590000000 1.0
C      1  0.4887300000000  0.5699420000000  0.5185000000000 1.0
C      1  0.5136790000000  0.5708960000000  0.5170030000000 1.0
C      1  0.4878210000000  0.4473700000000  0.5056070000000 1.0
C      1  0.5175670000000  0.4398300000000  0.5091590000000 1.0
C      1  0.5316570000000  0.4661140000000  0.4696930000000 1.0
C      1  0.4639670000000  0.4678050000000  0.4623560000000 1.0
C      1  0.5392870000000  0.5303780000000  0.5226690000000 1.0
C      1  0.4525810000000  0.5293610000000  0.5273230000000 1.0
C      1  0.5483640000000  0.4979980000000  0.4664410000000 1.0
C      1  0.4568530000000  0.5024980000000  0.4731880000000 1.0
C      1  0.5377360000000  0.4770190000000  0.5368620000000 1.0
C      1  0.4635530000000  0.4782250000000  0.5370240000000 1.0
C      1  0.4873960000000  0.4779490000000  0.4929500000000 1.0
C      1  0.5182540000000  0.4861810000000  0.4897630000000 1.0
C      1  0.4830810000000  0.5189310000000  0.5187800000000 1.0
C      1  0.5100130000000  0.5182160000000  0.5281310000000 1.0
C      1  0.5316180000000  0.4496980000000  0.5324150000000 1.0
C      1  0.4702970000000  0.4508410000000  0.5327250000000 1.0
C      1  0.4620460000000  0.5057250000000  0.5499920000000 1.0
C      1  0.5421330000000  0.5083370000000  0.5491070000000 1.0
C      1  0.5101390000000  0.5143280000000  0.5592090000000 1.0
C      1  0.4835000000000  0.5121650000000  0.5685500000000 1.0
C      1  0.5256120000000  0.4937340000000  0.5162950000000 1.0
C      1  0.4723660000000  0.4930360000000  0.5135110000000 1.0
C      1  0.4665600000000  0.4981630000000  0.4408360000000 1.0
C      1  0.5374830000000  0.4876580000000  0.4371860000000 1.0
C      1  0.5317010000000  0.4398300000000  0.4853770000000 1.0
C      1  0.4669290000000  0.4466170000000  0.4792880000000 1.0
C      1  0.5135650000000  0.4698100000000  0.4411420000000 1.0
C      1  0.4860940000000  0.4704670000000  0.4387250000000 1.0
C      1  0.4658700000000  0.5507680000000  0.5040830000000 1.0
C      1  0.5371740000000  0.5542370000000  0.4991060000000 1.0
C      1  0.4890500000000  0.4990490000000  0.4663210000000 1.0
C      1  0.5168610000000  0.5125880000000  0.4683900000000 1.0
END
