TITL C-2622954-8726-630 -7.64188669913345e-05 125000 -98.4327733533846 0 0 19 (C2) n - 1
REM
REM in /nfs/bkarasulu/CARBON/AIRSS/Generating-Clusters/AIREBO/with-SteepDescent/Higher-Symm/SD-CG/HFTN-CG
REM
REM
REM
REM
REM
REM ./C.cell (b20cbc046b6831c77cfcea5457e17084)
REM
REM compiler GCC version 9.2.1 20190827 (Red Hat 9.2.1-1)
REM options -cpp -mtune=generic -march=x86-64 -g -O0 -fpre-include=/usr/include/finclude/math-vector-fortran.h
REM seed -905896391 1598454678 -2043529694 1792346332 -574613811 2119304893 977219822 137028379 -1791143534 -1174890507 1095003539 -963621921 2098082683 -1462692959 1643801173 194403408 382704122 305012647 -245549458 -1348261322 245389179 -2118751967 618723164 406313446 1294590739 -2104954679 -1803722273 -810633840 -563871527 -1452091032 -2077906425 -70100927 -1484187116
REM
CELL 1.54180   50.00000   50.00000   50.00000   90.00000   90.00000   90.00000
LATT -1
SFAC C  
C      1  0.4743590000000  0.5508440000000  0.4873320000000 1.0
C      1  0.5283930000000  0.4501150000000  0.4871690000000 1.0
C      1  0.4976460000000  0.4523620000000  0.4919060000000 1.0
C      1  0.5051050000000  0.5485830000000  0.4920680000000 1.0
C      1  0.5244540000000  0.5119250000000  0.5101760000000 1.0
C      1  0.4782940000000  0.4889580000000  0.5101340000000 1.0
C      1  0.5124120000000  0.4773750000000  0.4742390000000 1.0
C      1  0.4903420000000  0.5236290000000  0.4743140000000 1.0
C      1  0.5258900000000  0.5395620000000  0.5077360000000 1.0
C      1  0.4768580000000  0.4613300000000  0.5076010000000 1.0
C      1  0.5180880000000  0.4845600000000  0.4482770000000 1.0
C      1  0.4846710000000  0.5165300000000  0.4483270000000 1.0
C      1  0.5402890000000  0.4957470000000  0.5255400000000 1.0
C      1  0.4624570000000  0.5050850000000  0.5255490000000 1.0
C      1  0.5537550000000  0.4806110000000  0.5421680000000 1.0
C      1  0.4489880000000  0.5201650000000  0.5422250000000 1.0
C      1  0.4575570000000  0.4459660000000  0.5181480000000 1.0
C      1  0.5451890000000  0.5548910000000  0.5183380000000 1.0
C      1  0.5013750000000  0.5004700000000  0.4934790000000 1.0
END
