TITL C-2622956-4641-206 -0.00186786478121329 125000 -308.782703303437 0 0 56 (C1) n - 1
REM
REM in /nfs/bkarasulu/CARBON/AIRSS/Generating-Clusters/AIREBO/with-SteepDescent/Higher-Symm/SD-CG/HFTN-CG
REM
REM
REM
REM
REM
REM ./C.cell (b20cbc046b6831c77cfcea5457e17084)
REM
REM compiler GCC version 9.2.1 20190827 (Red Hat 9.2.1-1)
REM options -cpp -mtune=generic -march=x86-64 -g -O0 -fpre-include=/usr/include/finclude/math-vector-fortran.h
REM seed -846474435 -1041008904 207075628 -1259940151 1135925115 1464667183 1123331524 899362496 899764601 -549293056 532061122 -1748075363 -1662116752 -1898064766 50939340 -374907854 -982312580 212183111 -126176588 221502905 559791502 1164935176 -340245323 1433457432 634077544 -225774132 -869407105 1086249414 57388994 1092370226 647732198 1002353885 974496755
REM
CELL 1.54180   50.00000   50.00000   50.00000   90.00000   90.00000   90.00000
LATT -1
SFAC C  
C      1  0.5210790000000  0.4816310000000  0.5701860000000 1.0
C      1  0.5232510000000  0.5149330000000  0.5710470000000 1.0
C      1  0.4930840000000  0.5265520000000  0.5673510000000 1.0
C      1  0.4721510000000  0.5008250000000  0.5661530000000 1.0
C      1  0.4895410000000  0.4730750000000  0.5672460000000 1.0
C      1  0.4762950000000  0.4827670000000  0.4318680000000 1.0
C      1  0.4746430000000  0.5155930000000  0.4306170000000 1.0
C      1  0.5055350000000  0.5277960000000  0.4294970000000 1.0
C      1  0.5260100000000  0.5025870000000  0.4314870000000 1.0
C      1  0.5079970000000  0.4746370000000  0.4318890000000 1.0
C      1  0.4684650000000  0.5605910000000  0.5121030000000 1.0
C      1  0.4295800000000  0.4870180000000  0.5124590000000 1.0
C      1  0.4934230000000  0.4299980000000  0.5122790000000 1.0
C      1  0.5631320000000  0.4761080000000  0.5142310000000 1.0
C      1  0.5505130000000  0.5648900000000  0.5142580000000 1.0
C      1  0.5462360000000  0.5675390000000  0.4847180000000 1.0
C      1  0.5650170000000  0.4863390000000  0.4869150000000 1.0
C      1  0.5091160000000  0.4294460000000  0.4858020000000 1.0
C      1  0.4340240000000  0.4698120000000  0.4864670000000 1.0
C      1  0.4549770000000  0.5521730000000  0.4858740000000 1.0
C      1  0.4565780000000  0.4689100000000  0.5215070000000 1.0
C      1  0.5180530000000  0.4494250000000  0.5244320000000 1.0
C      1  0.5477870000000  0.5014710000000  0.5263350000000 1.0
C      1  0.5205350000000  0.5551000000000  0.5277060000000 1.0
C      1  0.4584920000000  0.5308480000000  0.5220720000000 1.0
C      1  0.5400180000000  0.4701640000000  0.4760330000000 1.0
C      1  0.4842500000000  0.4500750000000  0.4775730000000 1.0
C      1  0.4451090000000  0.5000960000000  0.4755150000000 1.0
C      1  0.4855050000000  0.5488760000000  0.4736210000000 1.0
C      1  0.5462480000000  0.5356540000000  0.4719250000000 1.0
C      1  0.5140860000000  0.5582090000000  0.4787570000000 1.0
C      1  0.4384950000000  0.5308770000000  0.4812560000000 1.0
C      1  0.4531180000000  0.4494260000000  0.4867760000000 1.0
C      1  0.5339940000000  0.4397890000000  0.4817180000000 1.0
C      1  0.5671330000000  0.5121560000000  0.4785190000000 1.0
C      1  0.4927280000000  0.5691740000000  0.5201590000000 1.0
C      1  0.5520260000000  0.5315440000000  0.5208080000000 1.0
C      1  0.5496160000000  0.4523550000000  0.5189550000000 1.0
C      1  0.4674260000000  0.4396560000000  0.5126380000000 1.0
C      1  0.4323300000000  0.5137440000000  0.5167510000000 1.0
C      1  0.5347560000000  0.5315780000000  0.4450350000000 1.0
C      1  0.4818120000000  0.5444410000000  0.4444070000000 1.0
C      1  0.4514570000000  0.4981360000000  0.4464320000000 1.0
C      1  0.4861560000000  0.4564310000000  0.4486510000000 1.0
C      1  0.5363570000000  0.4762450000000  0.4476300000000 1.0
C      1  0.4650810000000  0.5287070000000  0.5507970000000 1.0
C      1  0.5186150000000  0.5435820000000  0.5547440000000 1.0
C      1  0.5456160000000  0.4972250000000  0.5555490000000 1.0
C      1  0.5126260000000  0.4546120000000  0.5531870000000 1.0
C      1  0.4616080000000  0.4738310000000  0.5502480000000 1.0
C      1  0.4818180000000  0.5257470000000  0.4982970000000 1.0
C      1  0.5028210000000  0.4664410000000  0.4992330000000 1.0
C      1  0.5269680000000  0.5365680000000  0.4999250000000 1.0
C      1  0.5279060000000  0.4894350000000  0.5013260000000 1.0
C      1  0.4665060000000  0.4891680000000  0.4981870000000 1.0
C      1  0.4957900000000  0.4982490000000  0.4988720000000 1.0
END
