TITL C-2622959-7779-328 -0.00110319150967153 125000 -507.793665784551 0 0 92 (C1) n - 1
REM
REM in /nfs/bkarasulu/CARBON/AIRSS/Generating-Clusters/AIREBO/with-SteepDescent/Higher-Symm/SD-CG/HFTN-CG
REM
REM
REM
REM
REM
REM ./C.cell (b20cbc046b6831c77cfcea5457e17084)
REM
REM compiler GCC version 9.2.1 20190827 (Red Hat 9.2.1-1)
REM options -cpp -mtune=generic -march=x86-64 -g -O0 -fpre-include=/usr/include/finclude/math-vector-fortran.h
REM seed 182568928 978952163 1225004630 -1381111129 1535095294 -1799418905 -1297832210 -957775668 -2019388387 366981405 1065508574 1685103268 -2070687022 -813694731 104862308 -1775048351 -1722018849 1489916056 1207193992 1860606462 1080334395 1946143333 1370910868 990982677 1311898884 -2100124190 830338033 -1809342814 223681021 1829182732 70795459 509982047 1352555551
REM
CELL 1.54180   50.00000   50.00000   50.00000   90.00000   90.00000   90.00000
LATT -1
SFAC C  
C      1  0.4311070000000  0.5369540000000  0.4400900000000 1.0
C      1  0.5675200000000  0.4656100000000  0.4412400000000 1.0
C      1  0.5664110000000  0.5290430000000  0.5573230000000 1.0
C      1  0.4296820000000  0.4676930000000  0.5507550000000 1.0
C      1  0.5266030000000  0.4264970000000  0.4442510000000 1.0
C      1  0.4736370000000  0.5730250000000  0.4479450000000 1.0
C      1  0.5300050000000  0.5710570000000  0.5636420000000 1.0
C      1  0.4682560000000  0.4284590000000  0.5553690000000 1.0
C      1  0.4330880000000  0.5514250000000  0.4638830000000 1.0
C      1  0.5651630000000  0.4526830000000  0.4658330000000 1.0
C      1  0.5638070000000  0.5502030000000  0.5381520000000 1.0
C      1  0.4411070000000  0.4570120000000  0.5274690000000 1.0
C      1  0.5456520000000  0.4296280000000  0.4642770000000 1.0
C      1  0.4554750000000  0.5712640000000  0.4694210000000 1.0
C      1  0.5554640000000  0.5733760000000  0.5512050000000 1.0
C      1  0.4568220000000  0.4320650000000  0.5302300000000 1.0
C      1  0.5038740000000  0.5739660000000  0.5239540000000 1.0
C      1  0.4943220000000  0.4312740000000  0.5167580000000 1.0
C      1  0.4929050000000  0.5753400000000  0.4829220000000 1.0
C      1  0.5244900000000  0.4234870000000  0.5091230000000 1.0
C      1  0.5771280000000  0.5181260000000  0.5185910000000 1.0
C      1  0.4333760000000  0.4947490000000  0.5168270000000 1.0
C      1  0.5706340000000  0.4905660000000  0.4773240000000 1.0
C      1  0.4302050000000  0.5104830000000  0.4868520000000 1.0
C      1  0.4916970000000  0.5425850000000  0.5603490000000 1.0
C      1  0.5023240000000  0.4473720000000  0.5636890000000 1.0
C      1  0.5089440000000  0.5556290000000  0.4418200000000 1.0
C      1  0.4906430000000  0.4438000000000  0.4437050000000 1.0
C      1  0.5516530000000  0.4921350000000  0.5583460000000 1.0
C      1  0.4373260000000  0.5018560000000  0.5697870000000 1.0
C      1  0.5508310000000  0.5006620000000  0.4324320000000 1.0
C      1  0.4463790000000  0.5003000000000  0.4364650000000 1.0
C      1  0.4086940000000  0.4892890000000  0.5562500000000 1.0
C      1  0.5796420000000  0.5052230000000  0.5444960000000 1.0
C      1  0.5824990000000  0.4889090000000  0.4271070000000 1.0
C      1  0.4147470000000  0.5124100000000  0.4314150000000 1.0
C      1  0.4935830000000  0.4143380000000  0.5660810000000 1.0
C      1  0.5108110000000  0.5872890000000  0.5505910000000 1.0
C      1  0.5004270000000  0.5879940000000  0.4480220000000 1.0
C      1  0.5004670000000  0.4110060000000  0.4425500000000 1.0
C      1  0.5241300000000  0.4570490000000  0.5823310000000 1.0
C      1  0.4720710000000  0.5371690000000  0.5792740000000 1.0
C      1  0.4682190000000  0.4552300000000  0.4259230000000 1.0
C      1  0.5303200000000  0.5453940000000  0.4233500000000 1.0
C      1  0.4513640000000  0.5219950000000  0.5877920000000 1.0
C      1  0.5442940000000  0.4706680000000  0.5781180000000 1.0
C      1  0.4565180000000  0.4762770000000  0.4203010000000 1.0
C      1  0.5414730000000  0.5245190000000  0.4165370000000 1.0
C      1  0.5892950000000  0.5091330000000  0.4966630000000 1.0
C      1  0.4025770000000  0.4895370000000  0.5063950000000 1.0
C      1  0.3968970000000  0.5049730000000  0.4840820000000 1.0
C      1  0.6034410000000  0.4980480000000  0.4712650000000 1.0
C      1  0.5205940000000  0.5876420000000  0.4979470000000 1.0
C      1  0.4927930000000  0.3995340000000  0.5133100000000 1.0
C      1  0.5377950000000  0.4040250000000  0.5201270000000 1.0
C      1  0.4748100000000  0.6000810000000  0.4911890000000 1.0
C      1  0.4595480000000  0.4774220000000  0.5105230000000 1.0
C      1  0.5471040000000  0.5330430000000  0.5139720000000 1.0
C      1  0.5596570000000  0.4669050000000  0.4962700000000 1.0
C      1  0.4503390000000  0.5367770000000  0.4884080000000 1.0
C      1  0.4699980000000  0.4461540000000  0.5021640000000 1.0
C      1  0.5214840000000  0.5490650000000  0.5078950000000 1.0
C      1  0.4673130000000  0.5617770000000  0.4998580000000 1.0
C      1  0.5351460000000  0.4440740000000  0.4903990000000 1.0
C      1  0.5128680000000  0.4655030000000  0.4849120000000 1.0
C      1  0.5009210000000  0.5175690000000  0.4790260000000 1.0
C      1  0.5098380000000  0.4806640000000  0.5142180000000 1.0
C      1  0.4945220000000  0.5284950000000  0.5103690000000 1.0
C      1  0.4697910000000  0.5125660000000  0.4832920000000 1.0
C      1  0.5232970000000  0.4969890000000  0.4804010000000 1.0
C      1  0.4840380000000  0.4968670000000  0.5099290000000 1.0
C      1  0.5358890000000  0.5026740000000  0.5104580000000 1.0
C      1  0.5532600000000  0.4811410000000  0.5264970000000 1.0
C      1  0.4372250000000  0.5129490000000  0.5402640000000 1.0
C      1  0.4508010000000  0.4941000000000  0.4657180000000 1.0
C      1  0.5483940000000  0.5056050000000  0.4622690000000 1.0
C      1  0.4797630000000  0.5506370000000  0.5294780000000 1.0
C      1  0.5086520000000  0.4533910000000  0.5345130000000 1.0
C      1  0.4863470000000  0.4533010000000  0.4731970000000 1.0
C      1  0.5130970000000  0.5491650000000  0.4749420000000 1.0
C      1  0.4780570000000  0.5477770000000  0.4324530000000 1.0
C      1  0.5207080000000  0.4524380000000  0.4306480000000 1.0
C      1  0.5198590000000  0.5436920000000  0.5666000000000 1.0
C      1  0.4706890000000  0.4542600000000  0.5718960000000 1.0
C      1  0.5403210000000  0.4698750000000  0.4270320000000 1.0
C      1  0.4583930000000  0.5305280000000  0.4285220000000 1.0
C      1  0.5386590000000  0.5225650000000  0.5670660000000 1.0
C      1  0.4504440000000  0.4713570000000  0.5722240000000 1.0
C      1  0.5379570000000  0.4555940000000  0.5285810000000 1.0
C      1  0.5425640000000  0.5348640000000  0.4684880000000 1.0
C      1  0.4500470000000  0.5366970000000  0.5357860000000 1.0
C      1  0.4590160000000  0.4674690000000  0.4705850000000 1.0
END
