TITL C-2622965-4321-394 -0.000552288504324602 125000 -871.820486580017 0 0 160 (C1) n - 1
REM
REM in /nfs/bkarasulu/CARBON/AIRSS/Generating-Clusters/AIREBO/with-SteepDescent/Higher-Symm/SD-CG/HFTN-CG
REM
REM
REM
REM
REM
REM ./C.cell (b20cbc046b6831c77cfcea5457e17084)
REM
REM compiler GCC version 9.2.1 20190827 (Red Hat 9.2.1-1)
REM options -cpp -mtune=generic -march=x86-64 -g -O0 -fpre-include=/usr/include/finclude/math-vector-fortran.h
REM seed 890643279 1390707469 -1548634478 -1346506866 -2080336651 2058616530 745575726 -942255311 961382771 566062517 -626090760 -996983484 1783458122 -1965546677 1037897945 1708604144 -1595342427 -1913174627 375208292 462740553 -1430680386 142838002 -1744030029 1285256416 -2077391566 1851402637 345472923 1074070226 821129410 -607816765 -942209725 -425125113 -1039733699
REM
CELL 1.54180   50.00000   50.00000   50.00000   90.00000   90.00000   90.00000
LATT -1
SFAC C  
C      1  0.4691740000000  0.4456890000000  0.5602710000000 1.0
C      1  0.5372610000000  0.4436940000000  0.5730730000000 1.0
C      1  0.5323810000000  0.4647660000000  0.4145730000000 1.0
C      1  0.4690870000000  0.4635870000000  0.4116150000000 1.0
C      1  0.4720470000000  0.4704060000000  0.5380370000000 1.0
C      1  0.5311200000000  0.4772650000000  0.5392460000000 1.0
C      1  0.4863250000000  0.5517090000000  0.4717170000000 1.0
C      1  0.5105280000000  0.5342140000000  0.4648270000000 1.0
C      1  0.4408010000000  0.5073070000000  0.4829240000000 1.0
C      1  0.5565460000000  0.5132900000000  0.4776900000000 1.0
C      1  0.4535410000000  0.5481490000000  0.5148970000000 1.0
C      1  0.5454050000000  0.5494860000000  0.5197170000000 1.0
C      1  0.4569950000000  0.5970060000000  0.4682220000000 1.0
C      1  0.5476420000000  0.5940720000000  0.4640350000000 1.0
C      1  0.6058550000000  0.4822500000000  0.5382960000000 1.0
C      1  0.3963170000000  0.4753600000000  0.5351300000000 1.0
C      1  0.4135670000000  0.4702540000000  0.4584600000000 1.0
C      1  0.6061340000000  0.4822210000000  0.4715320000000 1.0
C      1  0.4694370000000  0.4851620000000  0.4660520000000 1.0
C      1  0.5167690000000  0.4855280000000  0.4707010000000 1.0
C      1  0.4286470000000  0.5001620000000  0.4543400000000 1.0
C      1  0.5831740000000  0.4779170000000  0.4500150000000 1.0
C      1  0.5343320000000  0.4165370000000  0.4226520000000 1.0
C      1  0.4676880000000  0.4170970000000  0.4320920000000 1.0
C      1  0.4668010000000  0.5391540000000  0.4229880000000 1.0
C      1  0.5261750000000  0.5319160000000  0.4357690000000 1.0
C      1  0.4146880000000  0.4554330000000  0.5206260000000 1.0
C      1  0.5836170000000  0.4615730000000  0.5252890000000 1.0
C      1  0.5155140000000  0.5381020000000  0.5081160000000 1.0
C      1  0.4822080000000  0.5308520000000  0.5086360000000 1.0
C      1  0.5593570000000  0.4619580000000  0.4627650000000 1.0
C      1  0.4501620000000  0.4633420000000  0.4509470000000 1.0
C      1  0.5434450000000  0.5044470000000  0.5898080000000 1.0
C      1  0.4584100000000  0.5064070000000  0.5863680000000 1.0
C      1  0.4715290000000  0.5032910000000  0.4947500000000 1.0
C      1  0.5239300000000  0.5125260000000  0.4873400000000 1.0
C      1  0.5530200000000  0.4576100000000  0.5285360000000 1.0
C      1  0.4441570000000  0.4522970000000  0.5301870000000 1.0
C      1  0.4857570000000  0.4417580000000  0.4262560000000 1.0
C      1  0.5168600000000  0.4411170000000  0.4217890000000 1.0
C      1  0.5178330000000  0.4559630000000  0.4862310000000 1.0
C      1  0.4843480000000  0.4627910000000  0.4866250000000 1.0
C      1  0.5791530000000  0.5387060000000  0.4427180000000 1.0
C      1  0.4156970000000  0.5476320000000  0.4392010000000 1.0
C      1  0.4876190000000  0.4821510000000  0.5125390000000 1.0
C      1  0.5152360000000  0.4932600000000  0.5145050000000 1.0
C      1  0.5129760000000  0.5215190000000  0.4100590000000 1.0
C      1  0.4850560000000  0.5215560000000  0.4056930000000 1.0
C      1  0.4569100000000  0.5451220000000  0.4811770000000 1.0
C      1  0.5384940000000  0.5483030000000  0.4770700000000 1.0
C      1  0.5429270000000  0.5887240000000  0.5131330000000 1.0
C      1  0.4546500000000  0.5973950000000  0.5140420000000 1.0
C      1  0.4453460000000  0.5314440000000  0.5671970000000 1.0
C      1  0.5569310000000  0.5293660000000  0.5767790000000 1.0
C      1  0.5245880000000  0.5189560000000  0.5347130000000 1.0
C      1  0.4701400000000  0.5203390000000  0.5378420000000 1.0
C      1  0.6051030000000  0.5111590000000  0.5571460000000 1.0
C      1  0.4024420000000  0.5199120000000  0.5472890000000 1.0
C      1  0.5805580000000  0.4353290000000  0.4836870000000 1.0
C      1  0.4163880000000  0.4299030000000  0.4902520000000 1.0
C      1  0.5897240000000  0.4631180000000  0.4944190000000 1.0
C      1  0.4100350000000  0.4624010000000  0.4876730000000 1.0
C      1  0.4274080000000  0.5357210000000  0.4173710000000 1.0
C      1  0.5733090000000  0.5156120000000  0.4228870000000 1.0
C      1  0.5223760000000  0.4945440000000  0.4118470000000 1.0
C      1  0.4773490000000  0.4952490000000  0.4080670000000 1.0
C      1  0.4515730000000  0.5731820000000  0.5378660000000 1.0
C      1  0.5441420000000  0.5710520000000  0.5422290000000 1.0
C      1  0.5735160000000  0.5230720000000  0.5530860000000 1.0
C      1  0.4320210000000  0.5322710000000  0.5359180000000 1.0
C      1  0.5136440000000  0.5993340000000  0.4993580000000 1.0
C      1  0.4856860000000  0.6084030000000  0.5106810000000 1.0
C      1  0.4112040000000  0.5277140000000  0.4606550000000 1.0
C      1  0.5912340000000  0.5099510000000  0.4581020000000 1.0
C      1  0.5387330000000  0.4721850000000  0.5787560000000 1.0
C      1  0.4592350000000  0.4738490000000  0.5765710000000 1.0
C      1  0.5147750000000  0.4315880000000  0.5097480000000 1.0
C      1  0.4849520000000  0.4155720000000  0.5063990000000 1.0
C      1  0.5127540000000  0.3877610000000  0.5188010000000 1.0
C      1  0.4957890000000  0.4050730000000  0.5352160000000 1.0
C      1  0.5171730000000  0.5588220000000  0.5901930000000 1.0
C      1  0.4855260000000  0.5539040000000  0.5783140000000 1.0
C      1  0.4188590000000  0.5703040000000  0.4892830000000 1.0
C      1  0.5843050000000  0.5660610000000  0.4807880000000 1.0
C      1  0.4470170000000  0.5119110000000  0.4280840000000 1.0
C      1  0.5495050000000  0.5120640000000  0.4444430000000 1.0
C      1  0.5155120000000  0.5978440000000  0.4654120000000 1.0
C      1  0.4846570000000  0.5839160000000  0.4628480000000 1.0
C      1  0.4840940000000  0.5663880000000  0.4342000000000 1.0
C      1  0.5143710000000  0.5789190000000  0.4371440000000 1.0
C      1  0.4817190000000  0.4822670000000  0.4375430000000 1.0
C      1  0.5105770000000  0.4850960000000  0.4407250000000 1.0
C      1  0.4317110000000  0.4111690000000  0.5073020000000 1.0
C      1  0.5724280000000  0.4150800000000  0.5078640000000 1.0
C      1  0.4446830000000  0.4268790000000  0.5490360000000 1.0
C      1  0.5520500000000  0.4316410000000  0.5473060000000 1.0
C      1  0.5363050000000  0.5607570000000  0.4341130000000 1.0
C      1  0.4505070000000  0.5660350000000  0.4330520000000 1.0
C      1  0.5041030000000  0.6026670000000  0.5593760000000 1.0
C      1  0.4834910000000  0.6028120000000  0.5409510000000 1.0
C      1  0.4385820000000  0.4846810000000  0.5074570000000 1.0
C      1  0.5644410000000  0.4945460000000  0.5029960000000 1.0
C      1  0.5554480000000  0.5076240000000  0.5309370000000 1.0
C      1  0.4438560000000  0.5004040000000  0.5350700000000 1.0
C      1  0.4089750000000  0.5212900000000  0.5134410000000 1.0
C      1  0.5940410000000  0.5185300000000  0.5263300000000 1.0
C      1  0.4847380000000  0.5200650000000  0.5750140000000 1.0
C      1  0.5163840000000  0.5289030000000  0.5760970000000 1.0
C      1  0.4430780000000  0.4807220000000  0.4225920000000 1.0
C      1  0.5440950000000  0.4805960000000  0.4422310000000 1.0
C      1  0.5718410000000  0.5415570000000  0.5177580000000 1.0
C      1  0.4112960000000  0.5592380000000  0.5360340000000 1.0
C      1  0.5468920000000  0.4309440000000  0.4985810000000 1.0
C      1  0.4570980000000  0.4238760000000  0.4920540000000 1.0
C      1  0.4861510000000  0.4108950000000  0.4668500000000 1.0
C      1  0.5189100000000  0.4034830000000  0.4657070000000 1.0
C      1  0.5866060000000  0.4842770000000  0.5651800000000 1.0
C      1  0.4053650000000  0.4925780000000  0.5561830000000 1.0
C      1  0.4334280000000  0.4877220000000  0.5624970000000 1.0
C      1  0.5583010000000  0.4864900000000  0.5574760000000 1.0
C      1  0.5131710000000  0.4890790000000  0.5918410000000 1.0
C      1  0.4837440000000  0.4858080000000  0.5968800000000 1.0
C      1  0.5879510000000  0.4925270000000  0.4220350000000 1.0
C      1  0.4141520000000  0.4734700000000  0.4283610000000 1.0
C      1  0.5720860000000  0.4120560000000  0.5349060000000 1.0
C      1  0.4339200000000  0.4064080000000  0.5348870000000 1.0
C      1  0.5025850000000  0.4164140000000  0.5866810000000 1.0
C      1  0.5255010000000  0.4256840000000  0.5930850000000 1.0
C      1  0.4831620000000  0.4954620000000  0.5515090000000 1.0
C      1  0.5151840000000  0.4987650000000  0.5604020000000 1.0
C      1  0.5182000000000  0.5802370000000  0.5572900000000 1.0
C      1  0.4823990000000  0.5724610000000  0.5276280000000 1.0
C      1  0.4815800000000  0.4431700000000  0.4589960000000 1.0
C      1  0.5149240000000  0.4365200000000  0.4584820000000 1.0
C      1  0.4413790000000  0.5929120000000  0.4901340000000 1.0
C      1  0.5605630000000  0.5852230000000  0.4903940000000 1.0
C      1  0.5135640000000  0.5472130000000  0.5506060000000 1.0
C      1  0.4835240000000  0.5472330000000  0.5450310000000 1.0
C      1  0.5498940000000  0.4646620000000  0.4953990000000 1.0
C      1  0.4543740000000  0.4556030000000  0.4995160000000 1.0
C      1  0.4330040000000  0.4395190000000  0.4643680000000 1.0
C      1  0.5618290000000  0.4298870000000  0.4585850000000 1.0
C      1  0.5838390000000  0.5320290000000  0.4812220000000 1.0
C      1  0.4249730000000  0.5368480000000  0.4894640000000 1.0
C      1  0.4357170000000  0.5624490000000  0.4608190000000 1.0
C      1  0.5595330000000  0.5620200000000  0.4578490000000 1.0
C      1  0.4532730000000  0.4151930000000  0.4593180000000 1.0
C      1  0.5439180000000  0.4112880000000  0.4479560000000 1.0
C      1  0.4751630000000  0.3883960000000  0.4884470000000 1.0
C      1  0.5071200000000  0.3865240000000  0.4905610000000 1.0
C      1  0.5199060000000  0.4357590000000  0.5416010000000 1.0
C      1  0.4931120000000  0.4262700000000  0.5591390000000 1.0
C      1  0.6004990000000  0.5501760000000  0.5046570000000 1.0
C      1  0.4017590000000  0.5701730000000  0.5152780000000 1.0
C      1  0.5179580000000  0.5671770000000  0.4906580000000 1.0
C      1  0.4875640000000  0.5692600000000  0.4999320000000 1.0
C      1  0.4538890000000  0.5606840000000  0.5677890000000 1.0
C      1  0.5453610000000  0.5561760000000  0.5729300000000 1.0
C      1  0.5982110000000  0.4935440000000  0.5071480000000 1.0
C      1  0.4051440000000  0.4906720000000  0.5059220000000 1.0
END
