TITL C-2622957-9142-96 0.00289646847153937 125000 -555.151501886389 0 0 96 (C1) n - 1
REM
REM in /nfs/bkarasulu/CARBON/AIRSS/Generating-Clusters/AIREBO/with-SteepDescent/Higher-Symm/SD-CG/HFTN-CG
REM
REM
REM
REM
REM
REM ./C.cell (b20cbc046b6831c77cfcea5457e17084)
REM
REM compiler GCC version 9.2.1 20190827 (Red Hat 9.2.1-1)
REM options -cpp -mtune=generic -march=x86-64 -g -O0 -fpre-include=/usr/include/finclude/math-vector-fortran.h
REM seed 2134165567 -1280968702 -1008934405 1357770760 -993868804 1230810751 -1940569884 -541902546 1012350597 990882563 751235259 1808532347 191662748 2085956510 1064899260 2084830894 1701644765 -154775161 -624985291 -1807100513 885442660 -517642713 852874644 2076290338 -1030895098 -1034918499 281637723 -1523518321 -1453479828 -1264315367 -542418256 -747379918 -1857714859
REM
CELL 1.54180   50.00000   50.00000   50.00000   90.00000   90.00000   90.00000
LATT -1
SFAC C  
C      1  0.4575490000000  0.5622380000000  0.4701010000000 1.0
C      1  0.4548500000000  0.5588990000000  0.5298760000000 1.0
C      1  0.5030420000000  0.5598950000000  0.5491210000000 1.0
C      1  0.5439860000000  0.5642620000000  0.5113560000000 1.0
C      1  0.5217080000000  0.5610090000000  0.4622890000000 1.0
C      1  0.5697980000000  0.4842060000000  0.4630010000000 1.0
C      1  0.4899690000000  0.4831930000000  0.4152510000000 1.0
C      1  0.4198920000000  0.4867820000000  0.4872330000000 1.0
C      1  0.4612060000000  0.4856320000000  0.5659870000000 1.0
C      1  0.5613170000000  0.4847720000000  0.5570730000000 1.0
C      1  0.4860780000000  0.5401610000000  0.4213210000000 1.0
C      1  0.4328000000000  0.5463760000000  0.4879550000000 1.0
C      1  0.4645040000000  0.5468730000000  0.5605230000000 1.0
C      1  0.5608740000000  0.5402600000000  0.5527640000000 1.0
C      1  0.5700910000000  0.5394570000000  0.4605620000000 1.0
C      1  0.5284300000000  0.4512530000000  0.4376580000000 1.0
C      1  0.4562680000000  0.4486970000000  0.4536630000000 1.0
C      1  0.4335990000000  0.4559600000000  0.5327170000000 1.0
C      1  0.5133350000000  0.4457820000000  0.5676130000000 1.0
C      1  0.5715510000000  0.4445720000000  0.5062940000000 1.0
C      1  0.5084730000000  0.5096010000000  0.5241210000000 1.0
C      1  0.5253380000000  0.5164620000000  0.4995160000000 1.0
C      1  0.5073210000000  0.5096640000000  0.4713880000000 1.0
C      1  0.4796970000000  0.5196420000000  0.4845950000000 1.0
C      1  0.4788880000000  0.5099810000000  0.5132530000000 1.0
C      1  0.5202330000000  0.5763190000000  0.5067320000000 1.0
C      1  0.5069890000000  0.5736090000000  0.4813850000000 1.0
C      1  0.4788400000000  0.5742770000000  0.4868580000000 1.0
C      1  0.4752570000000  0.5749410000000  0.5147570000000 1.0
C      1  0.5004130000000  0.5758410000000  0.5269820000000 1.0
C      1  0.4265220000000  0.4963610000000  0.4615380000000 1.0
C      1  0.4372630000000  0.4967990000000  0.5572750000000 1.0
C      1  0.5398300000000  0.4962580000000  0.5706690000000 1.0
C      1  0.5831710000000  0.4953100000000  0.4849890000000 1.0
C      1  0.5167050000000  0.4960510000000  0.4134120000000 1.0
C      1  0.5463630000000  0.4215870000000  0.5082770000000 1.0
C      1  0.5277990000000  0.4297490000000  0.4566400000000 1.0
C      1  0.4728220000000  0.4249050000000  0.4714440000000 1.0
C      1  0.4471360000000  0.4254060000000  0.5263780000000 1.0
C      1  0.5037530000000  0.4263030000000  0.5459810000000 1.0
C      1  0.4636500000000  0.4922330000000  0.4190280000000 1.0
C      1  0.4154420000000  0.4986640000000  0.5140100000000 1.0
C      1  0.4852510000000  0.4986590000000  0.5803360000000 1.0
C      1  0.5820940000000  0.4954150000000  0.5368150000000 1.0
C      1  0.5596740000000  0.4932270000000  0.4362200000000 1.0
C      1  0.4278020000000  0.5259720000000  0.5148950000000 1.0
C      1  0.4883520000000  0.5262550000000  0.5699470000000 1.0
C      1  0.5741090000000  0.5218710000000  0.5282790000000 1.0
C      1  0.5518370000000  0.5210440000000  0.4394390000000 1.0
C      1  0.4616450000000  0.5203460000000  0.4321330000000 1.0
C      1  0.4611900000000  0.5307470000000  0.4645710000000 1.0
C      1  0.4589440000000  0.5257990000000  0.5270500000000 1.0
C      1  0.5113160000000  0.5295520000000  0.5467950000000 1.0
C      1  0.5503970000000  0.5325540000000  0.5060640000000 1.0
C      1  0.5216020000000  0.5301300000000  0.4520660000000 1.0
C      1  0.5336530000000  0.4572820000000  0.5486800000000 1.0
C      1  0.5435730000000  0.4582120000000  0.4926090000000 1.0
C      1  0.5041580000000  0.4711360000000  0.4420230000000 1.0
C      1  0.4599850000000  0.4613600000000  0.4805770000000 1.0
C      1  0.4650870000000  0.4594230000000  0.5358720000000 1.0
C      1  0.4284370000000  0.5265570000000  0.4606680000000 1.0
C      1  0.4378730000000  0.5280520000000  0.5534580000000 1.0
C      1  0.5370120000000  0.5267810000000  0.5655460000000 1.0
C      1  0.5769890000000  0.5261980000000  0.4875740000000 1.0
C      1  0.5143450000000  0.5265770000000  0.4207660000000 1.0
C      1  0.5128240000000  0.4796670000000  0.5743540000000 1.0
C      1  0.5808370000000  0.4771010000000  0.5098870000000 1.0
C      1  0.5386740000000  0.4786690000000  0.4236130000000 1.0
C      1  0.4515120000000  0.4818760000000  0.4476280000000 1.0
C      1  0.4224690000000  0.4821390000000  0.5371620000000 1.0
C      1  0.4659250000000  0.4233760000000  0.5020020000000 1.0
C      1  0.4766450000000  0.4291170000000  0.5400160000000 1.0
C      1  0.5207200000000  0.4196690000000  0.5211420000000 1.0
C      1  0.5478140000000  0.4299380000000  0.4770250000000 1.0
C      1  0.5029730000000  0.4249680000000  0.4686340000000 1.0
C      1  0.4889640000000  0.4726350000000  0.5511710000000 1.0
C      1  0.5548870000000  0.4676180000000  0.5297120000000 1.0
C      1  0.5418560000000  0.4796760000000  0.4692240000000 1.0
C      1  0.4826150000000  0.4942680000000  0.4537860000000 1.0
C      1  0.4425230000000  0.4739030000000  0.4982990000000 1.0
C      1  0.4718550000000  0.4807050000000  0.5132690000000 1.0
C      1  0.5141180000000  0.4803040000000  0.5330410000000 1.0
C      1  0.5207670000000  0.4582710000000  0.5111850000000 1.0
C      1  0.5105130000000  0.4757470000000  0.4747310000000 1.0
C      1  0.4881570000000  0.4643760000000  0.4899700000000 1.0
C      1  0.4260660000000  0.5653680000000  0.5154320000000 1.0
C      1  0.4888610000000  0.5653320000000  0.5758540000000 1.0
C      1  0.5673340000000  0.5608110000000  0.5293610000000 1.0
C      1  0.5483380000000  0.5595580000000  0.4478860000000 1.0
C      1  0.4647370000000  0.5594610000000  0.4369540000000 1.0
C      1  0.4365470000000  0.5436290000000  0.4341810000000 1.0
C      1  0.4143380000000  0.5457000000000  0.5394130000000 1.0
C      1  0.5140100000000  0.5438840000000  0.5838340000000 1.0
C      1  0.5894060000000  0.5470890000000  0.5113560000000 1.0
C      1  0.5412140000000  0.5470230000000  0.4198060000000 1.0
C      1  0.4982270000000  0.4350170000000  0.5007740000000 1.0
END
