TITL C-2622957-9142-189 0.000479345123047154 125000 -1057.44716176924 0 0 186 (C1) n - 1
REM
REM in /nfs/bkarasulu/CARBON/AIRSS/Generating-Clusters/AIREBO/with-SteepDescent/Higher-Symm/SD-CG/HFTN-CG
REM
REM
REM
REM
REM
REM ./C.cell (b20cbc046b6831c77cfcea5457e17084)
REM
REM compiler GCC version 9.2.1 20190827 (Red Hat 9.2.1-1)
REM options -cpp -mtune=generic -march=x86-64 -g -O0 -fpre-include=/usr/include/finclude/math-vector-fortran.h
REM seed -495877083 1533583799 215856425 1720644122 805707880 989044347 1313924390 1043592091 -841243993 -436057640 -1875772843 -2117992211 91377917 -1591407486 -1734894907 -779204057 2000685106 -1947018194 -1695911951 -1899705036 -561787993 -1912842146 1421761422 -366719704 869550028 -1932205782 -859435716 137551331 -665309079 -1471233146 1115908379 -978753922 1396630024
REM
CELL 1.54180   50.00000   50.00000   50.00000   90.00000   90.00000   90.00000
LATT -1
SFAC C  
C      1  0.6049710000000  0.5349620000000  0.4541400000000 1.0
C      1  0.4062350000000  0.5349920000000  0.4235780000000 1.0
C      1  0.4904810000000  0.5415900000000  0.6261330000000 1.0
C      1  0.6110740000000  0.4518610000000  0.5497200000000 1.0
C      1  0.4097370000000  0.4647750000000  0.5539520000000 1.0
C      1  0.5019400000000  0.4645680000000  0.3875180000000 1.0
C      1  0.5138290000000  0.5471810000000  0.5642610000000 1.0
C      1  0.5229110000000  0.5479460000000  0.4586900000000 1.0
C      1  0.4401300000000  0.5597670000000  0.4887880000000 1.0
C      1  0.5267180000000  0.4463260000000  0.4430680000000 1.0
C      1  0.5418840000000  0.4447610000000  0.5415200000000 1.0
C      1  0.4457140000000  0.4469320000000  0.5146280000000 1.0
C      1  0.4312290000000  0.4164340000000  0.5381300000000 1.0
C      1  0.5732530000000  0.4080040000000  0.5351380000000 1.0
C      1  0.5008520000000  0.4100150000000  0.4167790000000 1.0
C      1  0.4500090000000  0.5944170000000  0.4637150000000 1.0
C      1  0.5686620000000  0.5840260000000  0.4443140000000 1.0
C      1  0.5039900000000  0.5982860000000  0.5668420000000 1.0
C      1  0.4830910000000  0.4045340000000  0.4456760000000 1.0
C      1  0.4622840000000  0.4103020000000  0.5505830000000 1.0
C      1  0.5593270000000  0.4220660000000  0.4869960000000 1.0
C      1  0.4746780000000  0.5964550000000  0.5560160000000 1.0
C      1  0.4720710000000  0.6027120000000  0.4492580000000 1.0
C      1  0.5545570000000  0.6021380000000  0.4701100000000 1.0
C      1  0.5663540000000  0.5039240000000  0.4449300000000 1.0
C      1  0.4132210000000  0.5126510000000  0.4717820000000 1.0
C      1  0.5131030000000  0.4931050000000  0.5889920000000 1.0
C      1  0.5623000000000  0.5013500000000  0.5563650000000 1.0
C      1  0.4168200000000  0.4881050000000  0.5328680000000 1.0
C      1  0.5141180000000  0.4898390000000  0.4058620000000 1.0
C      1  0.5601480000000  0.5666480000000  0.5321180000000 1.0
C      1  0.5135580000000  0.5451290000000  0.4256340000000 1.0
C      1  0.4453300000000  0.5572090000000  0.5395980000000 1.0
C      1  0.5384100000000  0.4574330000000  0.4730190000000 1.0
C      1  0.4986060000000  0.4491250000000  0.5716090000000 1.0
C      1  0.4376550000000  0.4536510000000  0.4828190000000 1.0
C      1  0.5177950000000  0.4848810000000  0.4383640000000 1.0
C      1  0.4449050000000  0.4789030000000  0.5160100000000 1.0
C      1  0.5339630000000  0.4759310000000  0.5374860000000 1.0
C      1  0.5173360000000  0.5222890000000  0.5504190000000 1.0
C      1  0.4427690000000  0.5264230000000  0.4815210000000 1.0
C      1  0.5400250000000  0.5186470000000  0.4564640000000 1.0
C      1  0.5813970000000  0.4911210000000  0.4717500000000 1.0
C      1  0.4361550000000  0.5014650000000  0.4510410000000 1.0
C      1  0.4824060000000  0.4959020000000  0.5925950000000 1.0
C      1  0.5764500000000  0.4828830000000  0.5415080000000 1.0
C      1  0.4381400000000  0.5062650000000  0.5497270000000 1.0
C      1  0.4833260000000  0.4943660000000  0.4208460000000 1.0
C      1  0.4908370000000  0.4362950000000  0.6016800000000 1.0
C      1  0.6113300000000  0.4635630000000  0.4442690000000 1.0
C      1  0.4427530000000  0.4364770000000  0.4578980000000 1.0
C      1  0.4879580000000  0.5587480000000  0.4199720000000 1.0
C      1  0.5861020000000  0.5557850000000  0.5512460000000 1.0
C      1  0.4214380000000  0.5551260000000  0.5580820000000 1.0
C      1  0.4609800000000  0.5561260000000  0.4635570000000 1.0
C      1  0.4889130000000  0.5655380000000  0.5501420000000 1.0
C      1  0.5489890000000  0.5494700000000  0.4805090000000 1.0
C      1  0.4614210000000  0.4421740000000  0.5415120000000 1.0
C      1  0.4940320000000  0.4510950000000  0.4473720000000 1.0
C      1  0.5616360000000  0.4398910000000  0.5141620000000 1.0
C      1  0.3974630000000  0.5334880000000  0.5233130000000 1.0
C      1  0.5588740000000  0.5361860000000  0.5864050000000 1.0
C      1  0.5436410000000  0.5309490000000  0.3898150000000 1.0
C      1  0.3805890000000  0.4732860000000  0.4834490000000 1.0
C      1  0.5704360000000  0.4641040000000  0.4166260000000 1.0
C      1  0.5387360000000  0.4579740000000  0.5987210000000 1.0
C      1  0.4846130000000  0.4379080000000  0.4948290000000 1.0
C      1  0.4910730000000  0.4404530000000  0.5264850000000 1.0
C      1  0.5051660000000  0.4157520000000  0.4858140000000 1.0
C      1  0.4863000000000  0.5594520000000  0.5170720000000 1.0
C      1  0.4988840000000  0.5664880000000  0.4882400000000 1.0
C      1  0.5262340000000  0.5596900000000  0.5018130000000 1.0
C      1  0.4328570000000  0.4888060000000  0.5977560000000 1.0
C      1  0.6187790000000  0.4959440000000  0.5249390000000 1.0
C      1  0.4523960000000  0.4900680000000  0.3812220000000 1.0
C      1  0.4286920000000  0.4944680000000  0.3942600000000 1.0
C      1  0.6183770000000  0.5079880000000  0.5006430000000 1.0
C      1  0.4484180000000  0.4962320000000  0.6155060000000 1.0
C      1  0.4952510000000  0.5880000000000  0.4310460000000 1.0
C      1  0.4501060000000  0.6052510000000  0.5434200000000 1.0
C      1  0.5544110000000  0.6030170000000  0.4976170000000 1.0
C      1  0.4875040000000  0.4046190000000  0.5603500000000 1.0
C      1  0.4578530000000  0.4081110000000  0.4610790000000 1.0
C      1  0.5767040000000  0.4159200000000  0.4668890000000 1.0
C      1  0.5192510000000  0.5803780000000  0.4079880000000 1.0
C      1  0.4364820000000  0.6124030000000  0.5183350000000 1.0
C      1  0.5452920000000  0.5807480000000  0.5719200000000 1.0
C      1  0.5103240000000  0.4188900000000  0.5790180000000 1.0
C      1  0.4283680000000  0.4051690000000  0.4778480000000 1.0
C      1  0.5698980000000  0.4220740000000  0.4406120000000 1.0
C      1  0.5730850000000  0.5670310000000  0.4722890000000 1.0
C      1  0.4347020000000  0.5719330000000  0.4485600000000 1.0
C      1  0.4897880000000  0.5722360000000  0.5834780000000 1.0
C      1  0.5914300000000  0.4239180000000  0.5105130000000 1.0
C      1  0.4236430000000  0.4160290000000  0.5713350000000 1.0
C      1  0.4809340000000  0.4358300000000  0.4214250000000 1.0
C      1  0.4092040000000  0.5559950000000  0.4367870000000 1.0
C      1  0.4976930000000  0.5604480000000  0.6113800000000 1.0
C      1  0.5875210000000  0.5552520000000  0.4470540000000 1.0
C      1  0.4099740000000  0.4376620000000  0.5527180000000 1.0
C      1  0.5009550000000  0.4381160000000  0.3966920000000 1.0
C      1  0.5940130000000  0.4312570000000  0.5428890000000 1.0
C      1  0.5943320000000  0.4470930000000  0.4875730000000 1.0
C      1  0.4496910000000  0.4346530000000  0.4104010000000 1.0
C      1  0.4398440000000  0.4232300000000  0.5928500000000 1.0
C      1  0.5930350000000  0.5750530000000  0.4937910000000 1.0
C      1  0.4652670000000  0.5522400000000  0.5769750000000 1.0
C      1  0.4426660000000  0.5668150000000  0.4179000000000 1.0
C      1  0.4744050000000  0.4871290000000  0.5012320000000 1.0
C      1  0.5098560000000  0.4849120000000  0.5195580000000 1.0
C      1  0.5076490000000  0.4868300000000  0.4684320000000 1.0
C      1  0.4742430000000  0.5183860000000  0.4874660000000 1.0
C      1  0.5330150000000  0.5046460000000  0.4832490000000 1.0
C      1  0.5070720000000  0.5152860000000  0.5224680000000 1.0
C      1  0.5102600000000  0.6052610000000  0.5080870000000 1.0
C      1  0.5115470000000  0.6101400000000  0.4814200000000 1.0
C      1  0.4858410000000  0.6023670000000  0.5181770000000 1.0
C      1  0.5032990000000  0.3900250000000  0.4953270000000 1.0
C      1  0.5000460000000  0.3882150000000  0.5265380000000 1.0
C      1  0.4746350000000  0.3841340000000  0.5066920000000 1.0
C      1  0.4714420000000  0.4712950000000  0.4372760000000 1.0
C      1  0.4576650000000  0.4607950000000  0.5667370000000 1.0
C      1  0.5599140000000  0.4712010000000  0.5175590000000 1.0
C      1  0.4635220000000  0.5221700000000  0.5891180000000 1.0
C      1  0.4545950000000  0.5207320000000  0.4296820000000 1.0
C      1  0.5763040000000  0.5349610000000  0.4956960000000 1.0
C      1  0.5280720000000  0.5936320000000  0.5531580000000 1.0
C      1  0.5367970000000  0.5787720000000  0.4549590000000 1.0
C      1  0.4437870000000  0.5910560000000  0.4942930000000 1.0
C      1  0.5142990000000  0.4166230000000  0.4473010000000 1.0
C      1  0.5451930000000  0.4121290000000  0.5373620000000 1.0
C      1  0.4327580000000  0.4169330000000  0.5065830000000 1.0
C      1  0.4463290000000  0.4508130000000  0.4341630000000 1.0
C      1  0.4605330000000  0.4407310000000  0.5911660000000 1.0
C      1  0.5991800000000  0.4665610000000  0.4693640000000 1.0
C      1  0.4397680000000  0.5313090000000  0.5694120000000 1.0
C      1  0.4627710000000  0.5484510000000  0.4166160000000 1.0
C      1  0.5895920000000  0.5563420000000  0.5185930000000 1.0
C      1  0.4082740000000  0.4662990000000  0.4828440000000 1.0
C      1  0.5317940000000  0.4441800000000  0.5710150000000 1.0
C      1  0.5550760000000  0.4436030000000  0.4289840000000 1.0
C      1  0.4150230000000  0.5457630000000  0.5025380000000 1.0
C      1  0.5326830000000  0.5529520000000  0.4030950000000 1.0
C      1  0.5366840000000  0.5544570000000  0.5796430000000 1.0
C      1  0.5545610000000  0.5373840000000  0.5189660000000 1.0
C      1  0.4842300000000  0.5214270000000  0.4404390000000 1.0
C      1  0.4543650000000  0.5286060000000  0.5323030000000 1.0
C      1  0.5557960000000  0.4820780000000  0.4887580000000 1.0
C      1  0.4863020000000  0.4765220000000  0.5644170000000 1.0
C      1  0.4521650000000  0.4774560000000  0.4631920000000 1.0
C      1  0.4817040000000  0.4660220000000  0.4755710000000 1.0
C      1  0.4842400000000  0.4730730000000  0.5306510000000 1.0
C      1  0.5162090000000  0.4704380000000  0.4949310000000 1.0
C      1  0.4808170000000  0.5284090000000  0.5166330000000 1.0
C      1  0.4909310000000  0.5405460000000  0.4677450000000 1.0
C      1  0.5278120000000  0.5258170000000  0.5044630000000 1.0
C      1  0.5395940000000  0.4869480000000  0.5972730000000 1.0
C      1  0.5620120000000  0.4917620000000  0.4154600000000 1.0
C      1  0.3893390000000  0.5004470000000  0.4913520000000 1.0
C      1  0.5410800000000  0.5043680000000  0.4010380000000 1.0
C      1  0.5577060000000  0.5063810000000  0.5847390000000 1.0
C      1  0.3952980000000  0.5057580000000  0.5184590000000 1.0
C      1  0.4747110000000  0.5160990000000  0.6192300000000 1.0
C      1  0.5959270000000  0.5172450000000  0.4807050000000 1.0
C      1  0.4252080000000  0.5105130000000  0.4203980000000 1.0
C      1  0.4781870000000  0.4845300000000  0.3901420000000 1.0
C      1  0.6042990000000  0.4779550000000  0.5408920000000 1.0
C      1  0.4342600000000  0.4800290000000  0.5679380000000 1.0
C      1  0.4601310000000  0.5805100000000  0.5223540000000 1.0
C      1  0.5356540000000  0.5864590000000  0.5206520000000 1.0
C      1  0.5063370000000  0.5857570000000  0.4612220000000 1.0
C      1  0.4638270000000  0.4112930000000  0.4939660000000 1.0
C      1  0.5317550000000  0.4241800000000  0.4755500000000 1.0
C      1  0.5114570000000  0.4161960000000  0.5391690000000 1.0
C      1  0.5153230000000  0.4931070000000  0.5581870000000 1.0
C      1  0.5462320000000  0.4798530000000  0.4499930000000 1.0
C      1  0.4280150000000  0.4910380000000  0.4923910000000 1.0
C      1  0.5153990000000  0.5160120000000  0.4359680000000 1.0
C      1  0.5464810000000  0.5179730000000  0.5408090000000 1.0
C      1  0.4326890000000  0.5183220000000  0.5120740000000 1.0
C      1  0.5195370000000  0.4464380000000  0.6164020000000 1.0
C      1  0.5986030000000  0.4606070000000  0.4199440000000 1.0
C      1  0.3574580000000  0.4618600000000  0.4776650000000 1.0
C      1  0.5589840000000  0.5344080000000  0.3678070000000 1.0
C      1  0.5838320000000  0.5472670000000  0.5763800000000 1.0
C      1  0.3965490000000  0.5486210000000  0.5470490000000 1.0
END
