TITL C-2622961-1971-34 -0.000376133450711988 125000 -219.246841936369 0 0 45 (C1) n - 1
REM
REM in /nfs/bkarasulu/CARBON/AIRSS/Generating-Clusters/AIREBO/with-SteepDescent/Higher-Symm/SD-CG/HFTN-CG
REM
REM
REM
REM
REM
REM ./C.cell (b20cbc046b6831c77cfcea5457e17084)
REM
REM compiler GCC version 9.2.1 20190827 (Red Hat 9.2.1-1)
REM options -cpp -mtune=generic -march=x86-64 -g -O0 -fpre-include=/usr/include/finclude/math-vector-fortran.h
REM seed -969209072 -1999533471 -1972576589 1961704004 -234961566 -37115986 -907898604 -2067642448 175934729 51257174 2047936021 -1557854244 -76626753 1312098494 -839601825 2103983261 1101126668 -1507842435 -1218002503 -1743633049 -1471551726 -2041172598 500977329 2141192055 -1857171864 -2113804866 -1774171015 -2139694636 -332204179 -660379927 -99116834 2137935304 982076489
REM
CELL 1.54180   50.00000   50.00000   50.00000   90.00000   90.00000   90.00000
LATT -1
SFAC C  
C      1  0.5146610000000  0.5501450000000  0.4963580000000 1.0
C      1  0.4373330000000  0.4856130000000  0.4986870000000 1.0
C      1  0.5483170000000  0.4507260000000  0.5095170000000 1.0
C      1  0.4816970000000  0.5485230000000  0.5054980000000 1.0
C      1  0.5663110000000  0.4764900000000  0.4964760000000 1.0
C      1  0.4484210000000  0.4551230000000  0.4904870000000 1.0
C      1  0.5216200000000  0.5388740000000  0.5557760000000 1.0
C      1  0.4670250000000  0.5034080000000  0.5516660000000 1.0
C      1  0.5119100000000  0.4786200000000  0.5519280000000 1.0
C      1  0.4746600000000  0.5385320000000  0.4451760000000 1.0
C      1  0.5345900000000  0.5016080000000  0.4496400000000 1.0
C      1  0.4874670000000  0.4806340000000  0.4494950000000 1.0
C      1  0.4569600000000  0.4898120000000  0.4736520000000 1.0
C      1  0.5303440000000  0.4640420000000  0.4863800000000 1.0
C      1  0.5014420000000  0.5324160000000  0.4751970000000 1.0
C      1  0.5458900000000  0.4891440000000  0.5177740000000 1.0
C      1  0.4686060000000  0.4661920000000  0.5133110000000 1.0
C      1  0.4963610000000  0.5310000000000  0.5257880000000 1.0
C      1  0.5010930000000  0.5426740000000  0.4365580000000 1.0
C      1  0.4645800000000  0.4932160000000  0.4328360000000 1.0
C      1  0.5313220000000  0.4783670000000  0.4294750000000 1.0
C      1  0.4953500000000  0.5444440000000  0.5639750000000 1.0
C      1  0.5334480000000  0.4934000000000  0.5687760000000 1.0
C      1  0.4684610000000  0.4794950000000  0.5716760000000 1.0
C      1  0.4591680000000  0.5198960000000  0.4310060000000 1.0
C      1  0.5086440000000  0.4667650000000  0.4307400000000 1.0
C      1  0.5252570000000  0.5305420000000  0.4394190000000 1.0
C      1  0.5364830000000  0.5204520000000  0.5708310000000 1.0
C      1  0.4899340000000  0.4657950000000  0.5699200000000 1.0
C      1  0.4711450000000  0.5316600000000  0.5641630000000 1.0
C      1  0.5277450000000  0.5389880000000  0.5252240000000 1.0
C      1  0.4564720000000  0.4944990000000  0.5242990000000 1.0
C      1  0.5232230000000  0.4669830000000  0.5257190000000 1.0
C      1  0.4698240000000  0.5384800000000  0.4757870000000 1.0
C      1  0.5426140000000  0.4924880000000  0.4780650000000 1.0
C      1  0.4775100000000  0.4637050000000  0.4743950000000 1.0
C      1  0.4407940000000  0.5307160000000  0.5060380000000 1.0
C      1  0.5556550000000  0.5336790000000  0.4891380000000 1.0
C      1  0.4994560000000  0.4337030000000  0.5009470000000 1.0
C      1  0.5310750000000  0.5141640000000  0.5022200000000 1.0
C      1  0.4677320000000  0.5120110000000  0.4970440000000 1.0
C      1  0.4998250000000  0.4669500000000  0.4998550000000 1.0
C      1  0.4948890000000  0.5000450000000  0.5333580000000 1.0
C      1  0.5057330000000  0.5024430000000  0.4662500000000 1.0
C      1  0.4998080000000  0.5009730000000  0.4997130000000 1.0
END
