TITL C-2622957-9142-201 0.00331559602947928 125000 -971.071296969867 0 0 168 (C1) n - 1
REM
REM in /nfs/bkarasulu/CARBON/AIRSS/Generating-Clusters/AIREBO/with-SteepDescent/Higher-Symm/SD-CG/HFTN-CG
REM
REM
REM
REM
REM
REM ./C.cell (b20cbc046b6831c77cfcea5457e17084)
REM
REM compiler GCC version 9.2.1 20190827 (Red Hat 9.2.1-1)
REM options -cpp -mtune=generic -march=x86-64 -g -O0 -fpre-include=/usr/include/finclude/math-vector-fortran.h
REM seed -257035439 56513474 -687607799 -1762305842 -938526016 206722750 1765341707 1586577627 -271979461 -869186005 -397175501 -1725895787 346336976 -392973014 517849316 1145319233 -885512481 520808418 -583014492 1494003364 -1651220385 -1427501617 -1630943458 925333397 468239192 -228954469 -83534792 1332500432 -1959304520 994763938 1479721372 -1343946586 297919587
REM
CELL 1.54180   50.00000   50.00000   50.00000   90.00000   90.00000   90.00000
LATT -1
SFAC C  
C      1  0.4947670000000  0.4369400000000  0.5797090000000 1.0
C      1  0.4849620000000  0.4879100000000  0.5975970000000 1.0
C      1  0.4926460000000  0.5371070000000  0.5844290000000 1.0
C      1  0.4946480000000  0.5849580000000  0.5542650000000 1.0
C      1  0.4927930000000  0.5853470000000  0.4996820000000 1.0
C      1  0.4883660000000  0.5755480000000  0.4475800000000 1.0
C      1  0.4877040000000  0.5399370000000  0.4117400000000 1.0
C      1  0.4952240000000  0.4901450000000  0.4017010000000 1.0
C      1  0.4947970000000  0.4439970000000  0.4281600000000 1.0
C      1  0.4915930000000  0.4137770000000  0.4752830000000 1.0
C      1  0.4859680000000  0.4118340000000  0.5290030000000 1.0
C      1  0.4998180000000  0.4595010000000  0.6009320000000 1.0
C      1  0.4957260000000  0.5168680000000  0.6071910000000 1.0
C      1  0.4880480000000  0.5691830000000  0.5830140000000 1.0
C      1  0.4979820000000  0.6008610000000  0.5261820000000 1.0
C      1  0.4982680000000  0.5942140000000  0.4711050000000 1.0
C      1  0.4969290000000  0.5685250000000  0.4185210000000 1.0
C      1  0.4958090000000  0.5183080000000  0.3881480000000 1.0
C      1  0.5029220000000  0.4580150000000  0.4003360000000 1.0
C      1  0.5016030000000  0.4171040000000  0.4446430000000 1.0
C      1  0.4960860000000  0.3966390000000  0.5009420000000 1.0
C      1  0.4903460000000  0.4095630000000  0.5599750000000 1.0
C      1  0.4659390000000  0.4300620000000  0.4771930000000 1.0
C      1  0.4601490000000  0.4272860000000  0.5197570000000 1.0
C      1  0.4686220000000  0.4430350000000  0.5609660000000 1.0
C      1  0.4623380000000  0.4864600000000  0.5775660000000 1.0
C      1  0.4649390000000  0.5275560000000  0.5671870000000 1.0
C      1  0.4699280000000  0.5668280000000  0.5475370000000 1.0
C      1  0.4662250000000  0.5661570000000  0.5023310000000 1.0
C      1  0.4613720000000  0.5698020000000  0.4619110000000 1.0
C      1  0.4620580000000  0.5327220000000  0.4281590000000 1.0
C      1  0.4712940000000  0.4920120000000  0.4209620000000 1.0
C      1  0.4650440000000  0.4528650000000  0.4395670000000 1.0
C      1  0.5562620000000  0.5807690000000  0.5345990000000 1.0
C      1  0.5511050000000  0.5948210000000  0.4863090000000 1.0
C      1  0.5482160000000  0.5678630000000  0.4302640000000 1.0
C      1  0.5431740000000  0.5244340000000  0.4045210000000 1.0
C      1  0.5533960000000  0.4636770000000  0.4005930000000 1.0
C      1  0.5507270000000  0.4346070000000  0.4381620000000 1.0
C      1  0.5509940000000  0.4010670000000  0.4866710000000 1.0
C      1  0.5471920000000  0.4177950000000  0.5471360000000 1.0
C      1  0.5535280000000  0.4513630000000  0.5865460000000 1.0
C      1  0.5454230000000  0.5032680000000  0.5969860000000 1.0
C      1  0.5453540000000  0.5573640000000  0.5778090000000 1.0
C      1  0.4823850000000  0.5408740000000  0.5323110000000 1.0
C      1  0.4932960000000  0.5455530000000  0.5021710000000 1.0
C      1  0.4800600000000  0.5444070000000  0.4718420000000 1.0
C      1  0.4791150000000  0.5256950000000  0.4536990000000 1.0
C      1  0.4906980000000  0.4967940000000  0.4484790000000 1.0
C      1  0.4852070000000  0.4686810000000  0.4578530000000 1.0
C      1  0.4902570000000  0.4526460000000  0.4846180000000 1.0
C      1  0.4824230000000  0.4488250000000  0.5143870000000 1.0
C      1  0.4886450000000  0.4619150000000  0.5409870000000 1.0
C      1  0.4777520000000  0.4884280000000  0.5507790000000 1.0
C      1  0.4923400000000  0.5168990000000  0.5501070000000 1.0
C      1  0.5161120000000  0.5268320000000  0.4212100000000 1.0
C      1  0.5232220000000  0.4878550000000  0.4168550000000 1.0
C      1  0.5242730000000  0.4527890000000  0.4399950000000 1.0
C      1  0.5240750000000  0.4197130000000  0.4775130000000 1.0
C      1  0.5197160000000  0.4143940000000  0.5273990000000 1.0
C      1  0.5260570000000  0.4442350000000  0.5693770000000 1.0
C      1  0.5168020000000  0.4917000000000  0.5848040000000 1.0
C      1  0.5207600000000  0.5391590000000  0.5682730000000 1.0
C      1  0.5211090000000  0.5986830000000  0.5686280000000 1.0
C      1  0.5261340000000  0.5818700000000  0.5054490000000 1.0
C      1  0.5217040000000  0.5689520000000  0.4509390000000 1.0
C      1  0.4319480000000  0.5927830000000  0.4761010000000 1.0
C      1  0.4252590000000  0.5641930000000  0.4256150000000 1.0
C      1  0.4283380000000  0.5136580000000  0.4021960000000 1.0
C      1  0.4314610000000  0.4615120000000  0.4082390000000 1.0
C      1  0.4301640000000  0.4197390000000  0.4447010000000 1.0
C      1  0.4269360000000  0.4050360000000  0.4960520000000 1.0
C      1  0.4252130000000  0.4182770000000  0.5512220000000 1.0
C      1  0.4279730000000  0.4569890000000  0.5887210000000 1.0
C      1  0.4276250000000  0.5136530000000  0.5979990000000 1.0
C      1  0.4298970000000  0.5627900000000  0.5748830000000 1.0
C      1  0.4322780000000  0.5916300000000  0.5291120000000 1.0
C      1  0.5657430000000  0.5786790000000  0.5087480000000 1.0
C      1  0.5618670000000  0.5785810000000  0.4590460000000 1.0
C      1  0.5612630000000  0.5420900000000  0.4216950000000 1.0
C      1  0.5536480000000  0.4946330000000  0.4067180000000 1.0
C      1  0.5679930000000  0.4518320000000  0.4218130000000 1.0
C      1  0.5621650000000  0.4253680000000  0.4674420000000 1.0
C      1  0.5607330000000  0.4086960000000  0.5172920000000 1.0
C      1  0.5644270000000  0.4379400000000  0.5604400000000 1.0
C      1  0.5653240000000  0.4810760000000  0.5864830000000 1.0
C      1  0.5563200000000  0.5270530000000  0.5808520000000 1.0
C      1  0.5646130000000  0.5629320000000  0.5535540000000 1.0
C      1  0.6157430000000  0.4958030000000  0.4537900000000 1.0
C      1  0.5998510000000  0.4728460000000  0.4571670000000 1.0
C      1  0.5948180000000  0.4625240000000  0.4823860000000 1.0
C      1  0.6107260000000  0.4640070000000  0.5052460000000 1.0
C      1  0.6031500000000  0.4711130000000  0.5309910000000 1.0
C      1  0.6104260000000  0.4931320000000  0.5479210000000 1.0
C      1  0.6200580000000  0.5181790000000  0.5409860000000 1.0
C      1  0.6018250000000  0.5364880000000  0.5297890000000 1.0
C      1  0.5970550000000  0.5397190000000  0.5028410000000 1.0
C      1  0.6116120000000  0.5359390000000  0.4795350000000 1.0
C      1  0.6037710000000  0.5208430000000  0.4573540000000 1.0
C      1  0.5607000000000  0.5461670000000  0.4659720000000 1.0
C      1  0.5752220000000  0.5250700000000  0.4464140000000 1.0
C      1  0.5598120000000  0.4960760000000  0.4401270000000 1.0
C      1  0.5795400000000  0.4716110000000  0.4379970000000 1.0
C      1  0.5687300000000  0.4494370000000  0.4867540000000 1.0
C      1  0.5625710000000  0.4424510000000  0.5186520000000 1.0
C      1  0.5772820000000  0.4582320000000  0.5411720000000 1.0
C      1  0.5785040000000  0.4881460000000  0.5578490000000 1.0
C      1  0.5628150000000  0.5149380000000  0.5512400000000 1.0
C      1  0.5793170000000  0.5407590000000  0.5461340000000 1.0
C      1  0.5704270000000  0.5501350000000  0.4973180000000 1.0
C      1  0.4372090000000  0.4511010000000  0.5118190000000 1.0
C      1  0.4488720000000  0.4599930000000  0.5396940000000 1.0
C      1  0.4383430000000  0.4850150000000  0.5534960000000 1.0
C      1  0.4378290000000  0.5182220000000  0.5488440000000 1.0
C      1  0.4503090000000  0.5426360000000  0.5331810000000 1.0
C      1  0.4369720000000  0.5491330000000  0.5056780000000 1.0
C      1  0.4404840000000  0.5471640000000  0.4736890000000 1.0
C      1  0.4391810000000  0.5244120000000  0.4519340000000 1.0
C      1  0.4508950000000  0.4958700000000  0.4457500000000 1.0
C      1  0.4404230000000  0.4685850000000  0.4570090000000 1.0
C      1  0.4505320000000  0.4570780000000  0.4842880000000 1.0
C      1  0.3984220000000  0.5367920000000  0.4774000000000 1.0
C      1  0.4088400000000  0.5200170000000  0.4578590000000 1.0
C      1  0.3990350000000  0.4948780000000  0.4509590000000 1.0
C      1  0.4100650000000  0.4712280000000  0.4608250000000 1.0
C      1  0.3990860000000  0.4574150000000  0.4825450000000 1.0
C      1  0.4079290000000  0.4574310000000  0.5090500000000 1.0
C      1  0.3964790000000  0.4702900000000  0.5310180000000 1.0
C      1  0.4089750000000  0.4909480000000  0.5448130000000 1.0
C      1  0.4049120000000  0.5195090000000  0.5442720000000 1.0
C      1  0.3940950000000  0.5381360000000  0.5271480000000 1.0
C      1  0.4068950000000  0.5433350000000  0.5029960000000 1.0
C      1  0.4341020000000  0.4857450000000  0.5929520000000 1.0
C      1  0.4382670000000  0.5368450000000  0.5839320000000 1.0
C      1  0.4404660000000  0.5764510000000  0.5520010000000 1.0
C      1  0.4420530000000  0.5884350000000  0.5022180000000 1.0
C      1  0.4319090000000  0.5777810000000  0.4496020000000 1.0
C      1  0.4341370000000  0.5389260000000  0.4151800000000 1.0
C      1  0.4411150000000  0.4885420000000  0.4078350000000 1.0
C      1  0.4384800000000  0.4414690000000  0.4278490000000 1.0
C      1  0.4388100000000  0.4153820000000  0.4718350000000 1.0
C      1  0.4325330000000  0.4132810000000  0.5236260000000 1.0
C      1  0.4373530000000  0.4370110000000  0.5698660000000 1.0
C      1  0.5273990000000  0.5969940000000  0.4664140000000 1.0
C      1  0.5225640000000  0.5773580000000  0.4119160000000 1.0
C      1  0.5220540000000  0.5253690000000  0.3798020000000 1.0
C      1  0.5285690000000  0.4537290000000  0.3910830000000 1.0
C      1  0.5316240000000  0.4112500000000  0.4464980000000 1.0
C      1  0.5264950000000  0.3917880000000  0.5058410000000 1.0
C      1  0.5215000000000  0.4107050000000  0.5670100000000 1.0
C      1  0.5301170000000  0.4666860000000  0.6020550000000 1.0
C      1  0.5218890000000  0.5141820000000  0.6174830000000 1.0
C      1  0.5360350000000  0.5848870000000  0.5871330000000 1.0
C      1  0.5289910000000  0.5955730000000  0.5368700000000 1.0
C      1  0.5293030000000  0.5410920000000  0.4658560000000 1.0
C      1  0.5179330000000  0.5171100000000  0.4501720000000 1.0
C      1  0.5288240000000  0.4848930000000  0.4502600000000 1.0
C      1  0.5187910000000  0.4701960000000  0.4787580000000 1.0
C      1  0.5348410000000  0.4466480000000  0.4903890000000 1.0
C      1  0.5305630000000  0.4442900000000  0.5222740000000 1.0
C      1  0.5196120000000  0.4622290000000  0.5445480000000 1.0
C      1  0.5169690000000  0.4937510000000  0.5542770000000 1.0
C      1  0.5313430000000  0.5213770000000  0.5437060000000 1.0
C      1  0.5211390000000  0.5317380000000  0.5161110000000 1.0
C      1  0.5364220000000  0.5515700000000  0.4972280000000 1.0
C      1  0.5069270000000  0.5080720000000  0.5010040000000 1.0
C      1  0.4818670000000  0.4994270000000  0.5035960000000 1.0
C      1  0.4572010000000  0.4977530000000  0.4962840000000 1.0
END
