TITL C-2622956-4641-251 0.00111212079213689 125000 -765.286587553081 0 0 148 (C1) n - 1
REM
REM in /nfs/bkarasulu/CARBON/AIRSS/Generating-Clusters/AIREBO/with-SteepDescent/Higher-Symm/SD-CG/HFTN-CG
REM
REM
REM
REM
REM
REM ./C.cell (b20cbc046b6831c77cfcea5457e17084)
REM
REM compiler GCC version 9.2.1 20190827 (Red Hat 9.2.1-1)
REM options -cpp -mtune=generic -march=x86-64 -g -O0 -fpre-include=/usr/include/finclude/math-vector-fortran.h
REM seed 1267514769 -1776388142 1944310614 -68712501 -750393790 1662069984 -1735341964 545747182 -642349325 1647464841 1255220977 -1929463038 2139492775 570888715 32189731 -242146572 1493263666 1408818066 672401862 382177767 -733533085 378577108 -1720439552 -169108267 767481002 567870773 -476188076 -127509375 227692994 169506155 349948326 635350581 -1163384982
REM
CELL 1.54180   50.00000   50.00000   50.00000   90.00000   90.00000   90.00000
LATT -1
SFAC C  
C      1  0.5171500000000  0.4822460000000  0.5755300000000 1.0
C      1  0.4954590000000  0.4601780000000  0.5781120000000 1.0
C      1  0.4689290000000  0.4977460000000  0.5735320000000 1.0
C      1  0.4774920000000  0.5284040000000  0.5725670000000 1.0
C      1  0.5294350000000  0.5301660000000  0.5952470000000 1.0
C      1  0.5136750000000  0.4904070000000  0.4366170000000 1.0
C      1  0.4896990000000  0.4673540000000  0.4293860000000 1.0
C      1  0.4609710000000  0.4946990000000  0.4341850000000 1.0
C      1  0.4885090000000  0.5342080000000  0.4274060000000 1.0
C      1  0.5310000000000  0.5135470000000  0.4221340000000 1.0
C      1  0.5413330000000  0.4721730000000  0.4025900000000 1.0
C      1  0.4620940000000  0.4712390000000  0.4110560000000 1.0
C      1  0.4517660000000  0.5023510000000  0.4040070000000 1.0
C      1  0.5130950000000  0.5375510000000  0.4155480000000 1.0
C      1  0.5501090000000  0.4989090000000  0.4034810000000 1.0
C      1  0.5383780000000  0.4798770000000  0.6017090000000 1.0
C      1  0.4707460000000  0.4653630000000  0.5960940000000 1.0
C      1  0.4579290000000  0.4958930000000  0.6038870000000 1.0
C      1  0.4997120000000  0.5354650000000  0.5953760000000 1.0
C      1  0.5486450000000  0.5096900000000  0.6002140000000 1.0
C      1  0.4232860000000  0.4401270000000  0.3952400000000 1.0
C      1  0.4547120000000  0.5556720000000  0.3954660000000 1.0
C      1  0.5577510000000  0.5594130000000  0.4202730000000 1.0
C      1  0.5674760000000  0.4793580000000  0.4331130000000 1.0
C      1  0.4990250000000  0.4357510000000  0.4244530000000 1.0
C      1  0.4288290000000  0.4848330000000  0.5781400000000 1.0
C      1  0.4505590000000  0.5575510000000  0.5852100000000 1.0
C      1  0.5392250000000  0.5488010000000  0.5711500000000 1.0
C      1  0.5752790000000  0.4886360000000  0.5792410000000 1.0
C      1  0.5089910000000  0.4313530000000  0.5736700000000 1.0
C      1  0.4257310000000  0.5585630000000  0.4731640000000 1.0
C      1  0.5154450000000  0.5951230000000  0.4913170000000 1.0
C      1  0.6015320000000  0.5057040000000  0.4877430000000 1.0
C      1  0.5320390000000  0.4008000000000  0.4887700000000 1.0
C      1  0.4154980000000  0.4369000000000  0.4886380000000 1.0
C      1  0.4148740000000  0.5642270000000  0.5034380000000 1.0
C      1  0.5413750000000  0.5980170000000  0.5116110000000 1.0
C      1  0.6090850000000  0.4920950000000  0.5106240000000 1.0
C      1  0.5255810000000  0.4127810000000  0.5196890000000 1.0
C      1  0.4198880000000  0.4561030000000  0.5124800000000 1.0
C      1  0.4542020000000  0.4590610000000  0.5179260000000 1.0
C      1  0.4322020000000  0.5357170000000  0.5102620000000 1.0
C      1  0.5262650000000  0.5546590000000  0.5178270000000 1.0
C      1  0.5669820000000  0.5223170000000  0.5155570000000 1.0
C      1  0.5436050000000  0.4352460000000  0.5051780000000 1.0
C      1  0.4481260000000  0.4463370000000  0.4869760000000 1.0
C      1  0.4393800000000  0.5284410000000  0.4783920000000 1.0
C      1  0.5047380000000  0.5639040000000  0.4993900000000 1.0
C      1  0.5677990000000  0.5111180000000  0.4856420000000 1.0
C      1  0.5374490000000  0.4277120000000  0.4755310000000 1.0
C      1  0.5376720000000  0.4644340000000  0.5078320000000 1.0
C      1  0.4912440000000  0.4442810000000  0.5154280000000 1.0
C      1  0.4466410000000  0.5059100000000  0.5179910000000 1.0
C      1  0.4693730000000  0.5380420000000  0.5263070000000 1.0
C      1  0.5368260000000  0.5288050000000  0.5070610000000 1.0
C      1  0.5485040000000  0.4833250000000  0.4822320000000 1.0
C      1  0.4802550000000  0.4525520000000  0.4843340000000 1.0
C      1  0.4471790000000  0.4971800000000  0.4848800000000 1.0
C      1  0.4800810000000  0.5442400000000  0.4951360000000 1.0
C      1  0.5467650000000  0.5361110000000  0.4763730000000 1.0
C      1  0.4839640000000  0.5191960000000  0.4757200000000 1.0
C      1  0.5131930000000  0.5250950000000  0.4624840000000 1.0
C      1  0.5178280000000  0.4970000000000  0.4769080000000 1.0
C      1  0.5061870000000  0.4677250000000  0.4684090000000 1.0
C      1  0.4785600000000  0.4858430000000  0.4775920000000 1.0
C      1  0.4784760000000  0.5059260000000  0.5297640000000 1.0
C      1  0.5046140000000  0.5198180000000  0.5440430000000 1.0
C      1  0.5261980000000  0.5029780000000  0.5264900000000 1.0
C      1  0.5166880000000  0.4706850000000  0.5313290000000 1.0
C      1  0.4832280000000  0.4747490000000  0.5265440000000 1.0
C      1  0.5566170000000  0.5026380000000  0.5406900000000 1.0
C      1  0.5357750000000  0.4526230000000  0.5531260000000 1.0
C      1  0.4384580000000  0.4616090000000  0.5472760000000 1.0
C      1  0.4456630000000  0.5272880000000  0.5600990000000 1.0
C      1  0.5106070000000  0.5485380000000  0.5434510000000 1.0
C      1  0.5696000000000  0.5143440000000  0.4518420000000 1.0
C      1  0.5269230000000  0.4477670000000  0.4501500000000 1.0
C      1  0.4264930000000  0.4632730000000  0.4474170000000 1.0
C      1  0.4342970000000  0.5429590000000  0.4270280000000 1.0
C      1  0.5183980000000  0.5564290000000  0.4503430000000 1.0
C      1  0.5779290000000  0.5090680000000  0.4202300000000 1.0
C      1  0.5257240000000  0.4553680000000  0.4168130000000 1.0
C      1  0.4391540000000  0.4512100000000  0.4181370000000 1.0
C      1  0.4430240000000  0.5274860000000  0.3992090000000 1.0
C      1  0.5277870000000  0.5631330000000  0.4177400000000 1.0
C      1  0.5774950000000  0.5178420000000  0.5862010000000 1.0
C      1  0.5343380000000  0.4489910000000  0.5879240000000 1.0
C      1  0.4469880000000  0.4558500000000  0.5796880000000 1.0
C      1  0.4442120000000  0.5253290000000  0.5940210000000 1.0
C      1  0.5089490000000  0.5613730000000  0.5812020000000 1.0
C      1  0.4182730000000  0.5623470000000  0.4465750000000 1.0
C      1  0.5316970000000  0.5763970000000  0.4709910000000 1.0
C      1  0.5926500000000  0.4912570000000  0.4614330000000 1.0
C      1  0.5099610000000  0.4182830000000  0.4498310000000 1.0
C      1  0.4095970000000  0.4621260000000  0.4723700000000 1.0
C      1  0.4169140000000  0.5609910000000  0.5370040000000 1.0
C      1  0.5299520000000  0.5752120000000  0.5518440000000 1.0
C      1  0.5862910000000  0.4890170000000  0.5329230000000 1.0
C      1  0.5236120000000  0.4214560000000  0.5470460000000 1.0
C      1  0.4064330000000  0.4643220000000  0.5474620000000 1.0
C      1  0.4690010000000  0.5844410000000  0.5338390000000 1.0
C      1  0.5784710000000  0.5542050000000  0.5360920000000 1.0
C      1  0.5808410000000  0.4393330000000  0.5189250000000 1.0
C      1  0.4648050000000  0.4160540000000  0.5255470000000 1.0
C      1  0.4033200000000  0.5156620000000  0.5288440000000 1.0
C      1  0.4768820000000  0.5786150000000  0.4750960000000 1.0
C      1  0.5851970000000  0.5512390000000  0.4702000000000 1.0
C      1  0.5755740000000  0.4402960000000  0.4687400000000 1.0
C      1  0.4633650000000  0.4169160000000  0.4650700000000 1.0
C      1  0.4026940000000  0.5130290000000  0.4746800000000 1.0
C      1  0.5919340000000  0.5358210000000  0.4405970000000 1.0
C      1  0.5597240000000  0.4399180000000  0.4456260000000 1.0
C      1  0.4425380000000  0.4343440000000  0.4470660000000 1.0
C      1  0.4229070000000  0.5228040000000  0.4499400000000 1.0
C      1  0.4858800000000  0.5663480000000  0.4510710000000 1.0
C      1  0.5885390000000  0.5404500000000  0.5659600000000 1.0
C      1  0.5649430000000  0.4404240000000  0.5406120000000 1.0
C      1  0.4554910000000  0.4327430000000  0.5529880000000 1.0
C      1  0.4161830000000  0.5339520000000  0.5467740000000 1.0
C      1  0.4905510000000  0.5707260000000  0.5568830000000 1.0
C      1  0.4526810000000  0.5638720000000  0.4906910000000 1.0
C      1  0.5577690000000  0.5654840000000  0.4843910000000 1.0
C      1  0.5790470000000  0.4685660000000  0.4798780000000 1.0
C      1  0.4943520000000  0.4134560000000  0.4743230000000 1.0
C      1  0.4148160000000  0.4873160000000  0.4884170000000 1.0
C      1  0.4434530000000  0.5732550000000  0.5194980000000 1.0
C      1  0.5558770000000  0.5708420000000  0.5168350000000 1.0
C      1  0.5906380000000  0.4653740000000  0.5098460000000 1.0
C      1  0.4980360000000  0.4158510000000  0.5033160000000 1.0
C      1  0.4045560000000  0.4852800000000  0.5208260000000 1.0
C      1  0.5587410000000  0.5335980000000  0.5545940000000 1.0
C      1  0.5490170000000  0.4820740000000  0.5635810000000 1.0
C      1  0.4879380000000  0.4422110000000  0.5492550000000 1.0
C      1  0.4454390000000  0.4947680000000  0.5501700000000 1.0
C      1  0.4595270000000  0.5575380000000  0.5523970000000 1.0
C      1  0.5451100000000  0.5369110000000  0.4424170000000 1.0
C      1  0.5427450000000  0.4778560000000  0.4491710000000 1.0
C      1  0.4793620000000  0.4436880000000  0.4515090000000 1.0
C      1  0.4375030000000  0.4921610000000  0.4519640000000 1.0
C      1  0.4661450000000  0.5552190000000  0.4274830000000 1.0
C      1  0.5728080000000  0.4251020000000  0.4936580000000 1.0
C      1  0.4582650000000  0.4165980000000  0.4987130000000 1.0
C      1  0.4008600000000  0.5272630000000  0.5001520000000 1.0
C      1  0.4850520000000  0.5901580000000  0.5060580000000 1.0
C      1  0.5865490000000  0.5460340000000  0.5037760000000 1.0
C      1  0.5004080000000  0.5044860000000  0.5701720000000 1.0
C      1  0.4851100000000  0.5077150000000  0.4437190000000 1.0
C      1  0.5066800000000  0.4982270000000  0.5030360000000 1.0
END
