TITL C-2622960-5345-813 0.000284940605349093 125000 -391.24140424142 0 0 68 (C1) n - 1
REM
REM in /nfs/bkarasulu/CARBON/AIRSS/Generating-Clusters/AIREBO/with-SteepDescent/Higher-Symm/SD-CG/HFTN-CG
REM
REM
REM
REM
REM
REM ./C.cell (b20cbc046b6831c77cfcea5457e17084)
REM
REM compiler GCC version 9.2.1 20190827 (Red Hat 9.2.1-1)
REM options -cpp -mtune=generic -march=x86-64 -g -O0 -fpre-include=/usr/include/finclude/math-vector-fortran.h
REM seed 1022726965 610893953 -520939871 568954509 1438253093 -1000945903 332394215 -1242142033 145922700 1824053297 -1200373180 -772668645 -120799640 -270574998 811455092 147442076 606123027 -801374273 873355485 -377062561 331007062 1321017199 -2078199327 661414494 -1966414638 2030668671 -1863412171 2123484158 599638426 -139798447 -1161694066 -974424240 2123399566
REM
CELL 1.54180   50.00000   50.00000   50.00000   90.00000   90.00000   90.00000
LATT -1
SFAC C  
C      1  0.4541550000000  0.4507080000000  0.4874560000000 1.0
C      1  0.4710710000000  0.5430760000000  0.5133160000000 1.0
C      1  0.4927520000000  0.5324720000000  0.5020620000000 1.0
C      1  0.4815500000000  0.4472810000000  0.4974380000000 1.0
C      1  0.5518650000000  0.5423880000000  0.4846300000000 1.0
C      1  0.5674550000000  0.4612080000000  0.5045500000000 1.0
C      1  0.5431540000000  0.5562100000000  0.5459840000000 1.0
C      1  0.5147660000000  0.4566520000000  0.4596270000000 1.0
C      1  0.5080400000000  0.5240820000000  0.5500880000000 1.0
C      1  0.4926020000000  0.4924360000000  0.4337090000000 1.0
C      1  0.5193110000000  0.5615160000000  0.5584160000000 1.0
C      1  0.5019960000000  0.4623960000000  0.4350570000000 1.0
C      1  0.3907750000000  0.5044510000000  0.4781820000000 1.0
C      1  0.3950870000000  0.5308200000000  0.5316510000000 1.0
C      1  0.4778140000000  0.5529830000000  0.4661070000000 1.0
C      1  0.4983060000000  0.4320030000000  0.5207910000000 1.0
C      1  0.4012750000000  0.4855230000000  0.4651390000000 1.0
C      1  0.4106190000000  0.5520330000000  0.5389040000000 1.0
C      1  0.4553440000000  0.5030650000000  0.3951960000000 1.0
C      1  0.4732440000000  0.4890430000000  0.5650190000000 1.0
C      1  0.4372940000000  0.5518120000000  0.5315450000000 1.0
C      1  0.4276660000000  0.4740940000000  0.4691520000000 1.0
C      1  0.5263500000000  0.5111420000000  0.4657720000000 1.0
C      1  0.5151790000000  0.4827050000000  0.5247940000000 1.0
C      1  0.5231410000000  0.5726750000000  0.4554150000000 1.0
C      1  0.5445640000000  0.4190860000000  0.5270520000000 1.0
C      1  0.5137790000000  0.5263730000000  0.5185490000000 1.0
C      1  0.4994810000000  0.4649940000000  0.4815310000000 1.0
C      1  0.4685280000000  0.4723610000000  0.5434290000000 1.0
C      1  0.4696410000000  0.5016390000000  0.4571300000000 1.0
C      1  0.5175190000000  0.4155010000000  0.5274420000000 1.0
C      1  0.4959850000000  0.5713350000000  0.4560360000000 1.0
C      1  0.5434450000000  0.5242710000000  0.5080230000000 1.0
C      1  0.5490450000000  0.4733010000000  0.4871150000000 1.0
C      1  0.4422320000000  0.5377210000000  0.5008730000000 1.0
C      1  0.4377100000000  0.4743960000000  0.5016650000000 1.0
C      1  0.4834190000000  0.5139960000000  0.5684990000000 1.0
C      1  0.4638460000000  0.4953960000000  0.4182730000000 1.0
C      1  0.5487460000000  0.4953870000000  0.5595710000000 1.0
C      1  0.5423000000000  0.4938730000000  0.4255090000000 1.0
C      1  0.5561570000000  0.5341590000000  0.5343460000000 1.0
C      1  0.5423980000000  0.4625980000000  0.4616680000000 1.0
C      1  0.5613030000000  0.4354070000000  0.5133530000000 1.0
C      1  0.5436430000000  0.5638150000000  0.4707350000000 1.0
C      1  0.5671050000000  0.5140500000000  0.5506340000000 1.0
C      1  0.5544210000000  0.4718420000000  0.4375760000000 1.0
C      1  0.4529370000000  0.4776930000000  0.4424910000000 1.0
C      1  0.4910670000000  0.5521400000000  0.5554460000000 1.0
C      1  0.4442550000000  0.4690840000000  0.5315280000000 1.0
C      1  0.4523630000000  0.5550730000000  0.4756850000000 1.0
C      1  0.5232420000000  0.4967450000000  0.5479060000000 1.0
C      1  0.5205130000000  0.5049700000000  0.4398960000000 1.0
C      1  0.4890800000000  0.5247030000000  0.4706960000000 1.0
C      1  0.4923080000000  0.4632340000000  0.5278700000000 1.0
C      1  0.4678010000000  0.5546030000000  0.5408060000000 1.0
C      1  0.4480520000000  0.4503760000000  0.4577800000000 1.0
C      1  0.3996680000000  0.5109950000000  0.5088960000000 1.0
C      1  0.6498970000000  0.5194590000000  0.5409120000000 1.0
C      1  0.4305150000000  0.5075840000000  0.4998740000000 1.0
C      1  0.5901280000000  0.4746240000000  0.5129370000000 1.0
C      1  0.5279800000000  0.4963120000000  0.4963370000000 1.0
C      1  0.3666130000000  0.4643160000000  0.5133610000000 1.0
C      1  0.4952540000000  0.4955680000000  0.4871140000000 1.0
C      1  0.6105140000000  0.4884780000000  0.5230210000000 1.0
C      1  0.6686920000000  0.5360760000000  0.5485060000000 1.0
C      1  0.3824240000000  0.4842810000000  0.5116770000000 1.0
C      1  0.4620670000000  0.5032420000000  0.4897570000000 1.0
C      1  0.6308920000000  0.5037260000000  0.5308680000000 1.0
END
