TITL C-2622965-4321-800 0.00040839161281451 125000 -329.578256592302 0 0 56 (C1) n - 1
REM
REM in /nfs/bkarasulu/CARBON/AIRSS/Generating-Clusters/AIREBO/with-SteepDescent/Higher-Symm/SD-CG/HFTN-CG
REM
REM
REM
REM
REM
REM ./C.cell (b20cbc046b6831c77cfcea5457e17084)
REM
REM compiler GCC version 9.2.1 20190827 (Red Hat 9.2.1-1)
REM options -cpp -mtune=generic -march=x86-64 -g -O0 -fpre-include=/usr/include/finclude/math-vector-fortran.h
REM seed -94100657 -392643252 -1695676435 2083632143 -1874463403 526268674 1787561621 757221224 1152917921 -1483988305 1142045730 -1763982602 -1579105681 -1958062961 -1195964760 -1240879596 1688116646 1799911424 -477435162 -1033805957 -920972141 1575564562 450142238 1036128843 106771933 -1062551588 1876083943 -181284901 1721770014 -939135838 1725375769 -900193498 1467043595
REM
CELL 1.54180   50.00000   50.00000   50.00000   90.00000   90.00000   90.00000
LATT -1
SFAC C  
C      1  0.5165350000000  0.5581050000000  0.4963000000000 1.0
C      1  0.4734270000000  0.5599460000000  0.5225640000000 1.0
C      1  0.4885790000000  0.5624840000000  0.4950790000000 1.0
C      1  0.5264130000000  0.5565610000000  0.5224460000000 1.0
C      1  0.4427750000000  0.4916210000000  0.5105220000000 1.0
C      1  0.5586380000000  0.4932010000000  0.4875120000000 1.0
C      1  0.5623520000000  0.4880980000000  0.5171240000000 1.0
C      1  0.4442540000000  0.4904230000000  0.4804260000000 1.0
C      1  0.5116410000000  0.4814460000000  0.4269860000000 1.0
C      1  0.4788630000000  0.4981700000000  0.5713970000000 1.0
C      1  0.4823190000000  0.4889170000000  0.4221530000000 1.0
C      1  0.5091540000000  0.4902050000000  0.5706260000000 1.0
C      1  0.4892790000000  0.4925460000000  0.4753990000000 1.0
C      1  0.5174280000000  0.5005140000000  0.5290070000000 1.0
C      1  0.5181240000000  0.4911040000000  0.4649450000000 1.0
C      1  0.4900360000000  0.4978360000000  0.5089860000000 1.0
C      1  0.5104070000000  0.4661480000000  0.5482260000000 1.0
C      1  0.4785850000000  0.4645460000000  0.4412090000000 1.0
C      1  0.4789200000000  0.4761760000000  0.5502500000000 1.0
C      1  0.5075930000000  0.4534760000000  0.4433210000000 1.0
C      1  0.4689000000000  0.5374690000000  0.4858540000000 1.0
C      1  0.5373530000000  0.5268470000000  0.5273670000000 1.0
C      1  0.5286900000000  0.5403180000000  0.4779720000000 1.0
C      1  0.4827760000000  0.5274830000000  0.5134140000000 1.0
C      1  0.5365520000000  0.4741100000000  0.5279680000000 1.0
C      1  0.4653630000000  0.4696070000000  0.4688340000000 1.0
C      1  0.4676380000000  0.4789200000000  0.5223630000000 1.0
C      1  0.5396710000000  0.4773970000000  0.4754440000000 1.0
C      1  0.5260320000000  0.5083150000000  0.4382520000000 1.0
C      1  0.4685490000000  0.5232950000000  0.5647560000000 1.0
C      1  0.4714870000000  0.5032540000000  0.4483500000000 1.0
C      1  0.5271050000000  0.5121860000000  0.5627100000000 1.0
C      1  0.5550590000000  0.5172930000000  0.4330470000000 1.0
C      1  0.4412460000000  0.5294890000000  0.5646710000000 1.0
C      1  0.4412240000000  0.5071640000000  0.4424740000000 1.0
C      1  0.5566320000000  0.5148470000000  0.5650400000000 1.0
C      1  0.5576670000000  0.5260320000000  0.4810180000000 1.0
C      1  0.4304240000000  0.5172180000000  0.5182840000000 1.0
C      1  0.4412390000000  0.5237160000000  0.4870270000000 1.0
C      1  0.5648100000000  0.5219550000000  0.5139100000000 1.0
C      1  0.4844960000000  0.5290870000000  0.4601260000000 1.0
C      1  0.5144860000000  0.5393440000000  0.5492290000000 1.0
C      1  0.5123640000000  0.5299630000000  0.4580670000000 1.0
C      1  0.4849560000000  0.5377170000000  0.5446620000000 1.0
C      1  0.4272230000000  0.5197340000000  0.4592490000000 1.0
C      1  0.5722670000000  0.5212300000000  0.5460610000000 1.0
C      1  0.5689690000000  0.5273360000000  0.4517780000000 1.0
C      1  0.4241440000000  0.5258710000000  0.5434530000000 1.0
C      1  0.4674210000000  0.4446080000000  0.4851590000000 1.0
C      1  0.5365490000000  0.4464270000000  0.5103560000000 1.0
C      1  0.5347900000000  0.4507930000000  0.4827520000000 1.0
C      1  0.4662630000000  0.4496430000000  0.5143180000000 1.0
C      1  0.5143810000000  0.4390470000000  0.4669800000000 1.0
C      1  0.4912960000000  0.4319400000000  0.5143740000000 1.0
C      1  0.4929450000000  0.4274390000000  0.4819730000000 1.0
C      1  0.5137100000000  0.4413870000000  0.5282280000000 1.0
END
