TITL C-2622968-4806-29 1.62878375009626e-05 125000 -633.078741326453 0 0 118 (C1) n - 1
REM
REM in /nfs/bkarasulu/CARBON/AIRSS/Generating-Clusters/AIREBO/with-SteepDescent/Higher-Symm/SD-CG/HFTN-CG
REM
REM
REM
REM
REM
REM ./C.cell (b20cbc046b6831c77cfcea5457e17084)
REM
REM compiler GCC version 9.2.1 20190827 (Red Hat 9.2.1-1)
REM options -cpp -mtune=generic -march=x86-64 -g -O0 -fpre-include=/usr/include/finclude/math-vector-fortran.h
REM seed -550238207 1324658185 1671881233 1981708135 -642769309 -187190699 1259669565 1492101968 1168534928 -613426471 1884281964 1229820568 1555567085 863079818 -81446847 115538200 809661740 -1652175465 -929061135 2024918797 -1731546854 1188563720 -1331190466 1132562981 -1510645729 -346038805 408057151 1382297732 926875079 -756195138 1882439929 286337144 -568094706
REM
CELL 1.54180   50.00000   50.00000   50.00000   90.00000   90.00000   90.00000
LATT -1
SFAC C  
C      1  0.5578210000000  0.4642760000000  0.4275710000000 1.0
C      1  0.4423750000000  0.5322140000000  0.4340140000000 1.0
C      1  0.5612270000000  0.4620750000000  0.5567920000000 1.0
C      1  0.4309380000000  0.5323270000000  0.5638030000000 1.0
C      1  0.5590260000000  0.5288740000000  0.4232960000000 1.0
C      1  0.4470670000000  0.4687900000000  0.4282860000000 1.0
C      1  0.5624630000000  0.5281510000000  0.5639150000000 1.0
C      1  0.4286570000000  0.4674750000000  0.5709590000000 1.0
C      1  0.4858880000000  0.5949910000000  0.5414600000000 1.0
C      1  0.5134680000000  0.4198830000000  0.5419200000000 1.0
C      1  0.4879840000000  0.5926450000000  0.4629490000000 1.0
C      1  0.5137270000000  0.4150950000000  0.4698480000000 1.0
C      1  0.4848170000000  0.4163850000000  0.5432800000000 1.0
C      1  0.5143210000000  0.5882220000000  0.5415890000000 1.0
C      1  0.4855580000000  0.4193710000000  0.4659570000000 1.0
C      1  0.5184530000000  0.5960260000000  0.4634760000000 1.0
C      1  0.5129730000000  0.4778120000000  0.4517150000000 1.0
C      1  0.4837400000000  0.5237150000000  0.4554230000000 1.0
C      1  0.5196120000000  0.4892740000000  0.5434590000000 1.0
C      1  0.4802300000000  0.5179490000000  0.5462480000000 1.0
C      1  0.5087760000000  0.5086550000000  0.4380240000000 1.0
C      1  0.4821700000000  0.4894600000000  0.4601820000000 1.0
C      1  0.5297090000000  0.5185310000000  0.5434920000000 1.0
C      1  0.4882300000000  0.4885930000000  0.5460570000000 1.0
C      1  0.5151330000000  0.4418650000000  0.4164230000000 1.0
C      1  0.4930080000000  0.5475280000000  0.4329880000000 1.0
C      1  0.5099080000000  0.4651610000000  0.5833550000000 1.0
C      1  0.4806920000000  0.5308030000000  0.5743300000000 1.0
C      1  0.5173650000000  0.5590150000000  0.4387860000000 1.0
C      1  0.4881750000000  0.4454750000000  0.4184330000000 1.0
C      1  0.5061130000000  0.5381090000000  0.5834180000000 1.0
C      1  0.4807650000000  0.4708720000000  0.5719400000000 1.0
C      1  0.4899390000000  0.5291000000000  0.4884200000000 1.0
C      1  0.5216150000000  0.4773440000000  0.4845970000000 1.0
C      1  0.4905870000000  0.5334800000000  0.5220470000000 1.0
C      1  0.5273410000000  0.4749790000000  0.5180330000000 1.0
C      1  0.4761070000000  0.4764680000000  0.4891290000000 1.0
C      1  0.5190200000000  0.5115830000000  0.4860270000000 1.0
C      1  0.4767880000000  0.4737390000000  0.5223380000000 1.0
C      1  0.5231160000000  0.5317700000000  0.5130840000000 1.0
C      1  0.5833930000000  0.5561610000000  0.4797660000000 1.0
C      1  0.4195840000000  0.4149640000000  0.4794010000000 1.0
C      1  0.5833130000000  0.5612260000000  0.5194360000000 1.0
C      1  0.4262450000000  0.4346750000000  0.5227260000000 1.0
C      1  0.5807400000000  0.4432500000000  0.4745090000000 1.0
C      1  0.4268200000000  0.5546630000000  0.4804070000000 1.0
C      1  0.5808750000000  0.4408570000000  0.5143920000000 1.0
C      1  0.4182880000000  0.5585830000000  0.5199980000000 1.0
C      1  0.5380300000000  0.4291420000000  0.4626570000000 1.0
C      1  0.4656480000000  0.5785570000000  0.4530790000000 1.0
C      1  0.5373240000000  0.4177020000000  0.5565050000000 1.0
C      1  0.4569850000000  0.5895820000000  0.5407850000000 1.0
C      1  0.5402300000000  0.5716560000000  0.4610340000000 1.0
C      1  0.4591410000000  0.4252670000000  0.4521880000000 1.0
C      1  0.5381770000000  0.5763790000000  0.5518270000000 1.0
C      1  0.4570010000000  0.4283500000000  0.5474470000000 1.0
C      1  0.4678830000000  0.5466980000000  0.4192780000000 1.0
C      1  0.5305850000000  0.4673520000000  0.4072960000000 1.0
C      1  0.4551800000000  0.5269350000000  0.5853570000000 1.0
C      1  0.5307190000000  0.4718700000000  0.5659900000000 1.0
C      1  0.4802240000000  0.4768740000000  0.4287770000000 1.0
C      1  0.5278100000000  0.5194530000000  0.4153690000000 1.0
C      1  0.4543800000000  0.4792290000000  0.5899360000000 1.0
C      1  0.5301080000000  0.5331390000000  0.5731150000000 1.0
C      1  0.5843690000000  0.4810350000000  0.5391790000000 1.0
C      1  0.4107300000000  0.5139650000000  0.5414380000000 1.0
C      1  0.5813770000000  0.4808810000000  0.4459800000000 1.0
C      1  0.4204360000000  0.5121340000000  0.4551520000000 1.0
C      1  0.5814340000000  0.5145320000000  0.5386530000000 1.0
C      1  0.4167510000000  0.4805000000000  0.5415520000000 1.0
C      1  0.5785230000000  0.5146310000000  0.4482010000000 1.0
C      1  0.4263370000000  0.4786220000000  0.4534860000000 1.0
C      1  0.4764660000000  0.4474050000000  0.4805330000000 1.0
C      1  0.5122430000000  0.5773650000000  0.4888950000000 1.0
C      1  0.4845820000000  0.4436870000000  0.5229980000000 1.0
C      1  0.5203910000000  0.5654370000000  0.5170890000000 1.0
C      1  0.4862460000000  0.5621540000000  0.4831490000000 1.0
C      1  0.5091780000000  0.4451880000000  0.4851160000000 1.0
C      1  0.4860460000000  0.5641590000000  0.5271250000000 1.0
C      1  0.5182750000000  0.4422340000000  0.5167530000000 1.0
C      1  0.5428150000000  0.5412610000000  0.4476050000000 1.0
C      1  0.4614860000000  0.4416440000000  0.4303140000000 1.0
C      1  0.5475210000000  0.5476020000000  0.5404420000000 1.0
C      1  0.4552710000000  0.4495850000000  0.5646520000000 1.0
C      1  0.5321920000000  0.4516880000000  0.4436050000000 1.0
C      1  0.4590630000000  0.5469650000000  0.4581830000000 1.0
C      1  0.5565990000000  0.4340170000000  0.5450640000000 1.0
C      1  0.4519370000000  0.5320550000000  0.5385210000000 1.0
C      1  0.5836970000000  0.5311500000000  0.5118980000000 1.0
C      1  0.4207140000000  0.4622980000000  0.5159500000000 1.0
C      1  0.5784900000000  0.5239920000000  0.4790570000000 1.0
C      1  0.4300450000000  0.4651670000000  0.4830590000000 1.0
C      1  0.5825840000000  0.4695080000000  0.5108260000000 1.0
C      1  0.4125370000000  0.5300610000000  0.5137910000000 1.0
C      1  0.5803460000000  0.4751900000000  0.4778420000000 1.0
C      1  0.4233980000000  0.5241520000000  0.4820490000000 1.0
C      1  0.4450570000000  0.4345290000000  0.4825380000000 1.0
C      1  0.5602800000000  0.5710560000000  0.4845250000000 1.0
C      1  0.4568240000000  0.4267650000000  0.5134840000000 1.0
C      1  0.5522930000000  0.5697620000000  0.5150290000000 1.0
C      1  0.4550690000000  0.5625780000000  0.4881560000000 1.0
C      1  0.5582080000000  0.4298040000000  0.4812920000000 1.0
C      1  0.4520810000000  0.5617340000000  0.5219050000000 1.0
C      1  0.5500420000000  0.4311280000000  0.5118230000000 1.0
C      1  0.4492500000000  0.4924120000000  0.4829330000000 1.0
C      1  0.5466270000000  0.5226610000000  0.4707710000000 1.0
C      1  0.4465770000000  0.4820160000000  0.5152100000000 1.0
C      1  0.5539550000000  0.5177740000000  0.5099400000000 1.0
C      1  0.4565590000000  0.5227170000000  0.4894480000000 1.0
C      1  0.5512180000000  0.4901980000000  0.4738520000000 1.0
C      1  0.4413740000000  0.5132170000000  0.5159430000000 1.0
C      1  0.5542270000000  0.4863820000000  0.5058740000000 1.0
C      1  0.4441200000000  0.5004050000000  0.4343570000000 1.0
C      1  0.5580680000000  0.4964850000000  0.4269810000000 1.0
C      1  0.4303960000000  0.4999750000000  0.5658540000000 1.0
C      1  0.5613600000000  0.4960080000000  0.5589230000000 1.0
C      1  0.4520590000000  0.5038160000000  0.6013420000000 1.0
C      1  0.5086850000000  0.4876680000000  0.4129360000000 1.0
END
