TITL C-2622964-2985-275 0.00186923464257356 125000 -715.953873944639 0 0 135 (C1) n - 1
REM
REM in /nfs/bkarasulu/CARBON/AIRSS/Generating-Clusters/AIREBO/with-SteepDescent/Higher-Symm/SD-CG/HFTN-CG
REM
REM
REM
REM
REM
REM ./C.cell (b20cbc046b6831c77cfcea5457e17084)
REM
REM compiler GCC version 9.2.1 20190827 (Red Hat 9.2.1-1)
REM options -cpp -mtune=generic -march=x86-64 -g -O0 -fpre-include=/usr/include/finclude/math-vector-fortran.h
REM seed -1520629780 -882493344 -457368402 -1356984878 -472069537 2016360547 -1357694107 -1097760000 -1109739839 -1329469398 1341892221 -1815270546 316648155 900371930 1225665394 1250270613 1012889641 1145584669 -1939640155 -1640966358 1044153582 -985758024 -1575044217 -729708630 -1378657638 1165768715 -537320661 -1170355209 -4373139 324231394 -2044699095 -388631026 -46154937
REM
CELL 1.54180   50.00000   50.00000   50.00000   90.00000   90.00000   90.00000
LATT -1
SFAC C  
C      1  0.5556730000000  0.4909920000000  0.5114900000000 1.0
C      1  0.4578370000000  0.4467690000000  0.5114550000000 1.0
C      1  0.4785280000000  0.5586250000000  0.5119850000000 1.0
C      1  0.5582030000000  0.4874480000000  0.4809200000000 1.0
C      1  0.4608310000000  0.4529310000000  0.4812490000000 1.0
C      1  0.4852210000000  0.5545860000000  0.4824960000000 1.0
C      1  0.5909460000000  0.5113230000000  0.4338690000000 1.0
C      1  0.4622380000000  0.4154310000000  0.4353100000000 1.0
C      1  0.4441900000000  0.5764230000000  0.4501860000000 1.0
C      1  0.5901210000000  0.5222270000000  0.5599470000000 1.0
C      1  0.4799380000000  0.4172220000000  0.5605080000000 1.0
C      1  0.4336530000000  0.5600760000000  0.5593700000000 1.0
C      1  0.4636850000000  0.4470470000000  0.5800460000000 1.0
C      1  0.4688810000000  0.5544610000000  0.5762950000000 1.0
C      1  0.5653720000000  0.4956510000000  0.5749300000000 1.0
C      1  0.4575500000000  0.4495510000000  0.4186250000000 1.0
C      1  0.4787510000000  0.5562420000000  0.4234020000000 1.0
C      1  0.5605060000000  0.4914650000000  0.4186200000000 1.0
C      1  0.5585950000000  0.5735170000000  0.4952730000000 1.0
C      1  0.5195850000000  0.4078820000000  0.4943380000000 1.0
C      1  0.4149720000000  0.5365000000000  0.4843890000000 1.0
C      1  0.5732090000000  0.5620540000000  0.5213110000000 1.0
C      1  0.5156400000000  0.4072770000000  0.5244260000000 1.0
C      1  0.4098730000000  0.5360520000000  0.5133680000000 1.0
C      1  0.4523490000000  0.4110790000000  0.4803570000000 1.0
C      1  0.4515170000000  0.5803520000000  0.4890540000000 1.0
C      1  0.6049780000000  0.5070900000000  0.4801990000000 1.0
C      1  0.4420110000000  0.4040880000000  0.5101950000000 1.0
C      1  0.4550420000000  0.5902330000000  0.5180920000000 1.0
C      1  0.6007120000000  0.5146810000000  0.5106990000000 1.0
C      1  0.5602530000000  0.5234950000000  0.4254870000000 1.0
C      1  0.4874370000000  0.4370010000000  0.4274740000000 1.0
C      1  0.4603330000000  0.5357930000000  0.4215720000000 1.0
C      1  0.5622190000000  0.5266880000000  0.5782680000000 1.0
C      1  0.4953560000000  0.4434160000000  0.5758100000000 1.0
C      1  0.4445910000000  0.5336170000000  0.5778370000000 1.0
C      1  0.5350450000000  0.5345150000000  0.4094090000000 1.0
C      1  0.5083910000000  0.4563330000000  0.4135900000000 1.0
C      1  0.4593290000000  0.5099300000000  0.4057520000000 1.0
C      1  0.5374860000000  0.5291050000000  0.5973650000000 1.0
C      1  0.5113960000000  0.4650530000000  0.5901590000000 1.0
C      1  0.4548260000000  0.5087360000000  0.5939200000000 1.0
C      1  0.4261960000000  0.5090030000000  0.5216090000000 1.0
C      1  0.5399510000000  0.5613370000000  0.5283520000000 1.0
C      1  0.5286780000000  0.4372910000000  0.5197660000000 1.0
C      1  0.4340600000000  0.5076580000000  0.4824470000000 1.0
C      1  0.5378480000000  0.5502450000000  0.4816970000000 1.0
C      1  0.5296540000000  0.4337940000000  0.4800050000000 1.0
C      1  0.5843710000000  0.4810930000000  0.4351960000000 1.0
C      1  0.4375270000000  0.4344310000000  0.4388690000000 1.0
C      1  0.4723940000000  0.5766270000000  0.4427760000000 1.0
C      1  0.5871770000000  0.4895760000000  0.5547660000000 1.0
C      1  0.4492550000000  0.4311620000000  0.5573230000000 1.0
C      1  0.4622590000000  0.5761700000000  0.5547800000000 1.0
C      1  0.5244020000000  0.5811450000000  0.4863600000000 1.0
C      1  0.5614490000000  0.4413620000000  0.4843980000000 1.0
C      1  0.4221460000000  0.4773690000000  0.4891100000000 1.0
C      1  0.5194970000000  0.5805210000000  0.5181200000000 1.0
C      1  0.5572770000000  0.4457810000000  0.5131560000000 1.0
C      1  0.4224250000000  0.4775380000000  0.5178070000000 1.0
C      1  0.4706570000000  0.4173870000000  0.5152510000000 1.0
C      1  0.4470080000000  0.5582180000000  0.5220550000000 1.0
C      1  0.5672350000000  0.5191530000000  0.5150040000000 1.0
C      1  0.4824270000000  0.4268340000000  0.4782770000000 1.0
C      1  0.4525200000000  0.5484060000000  0.4774400000000 1.0
C      1  0.5741490000000  0.5121130000000  0.4711040000000 1.0
C      1  0.4221450000000  0.4946270000000  0.5583210000000 1.0
C      1  0.5358810000000  0.5710450000000  0.5666360000000 1.0
C      1  0.5433150000000  0.4352060000000  0.5567510000000 1.0
C      1  0.4245430000000  0.5084310000000  0.4436360000000 1.0
C      1  0.5470660000000  0.5652490000000  0.4458240000000 1.0
C      1  0.5345090000000  0.4292690000000  0.4406480000000 1.0
C      1  0.5558950000000  0.5345010000000  0.4573680000000 1.0
C      1  0.5056230000000  0.4382470000000  0.4561790000000 1.0
C      1  0.4480110000000  0.5297790000000  0.4493510000000 1.0
C      1  0.5510980000000  0.5435360000000  0.5548490000000 1.0
C      1  0.5119180000000  0.4390410000000  0.5492970000000 1.0
C      1  0.4371600000000  0.5212970000000  0.5502950000000 1.0
C      1  0.4637810000000  0.5035350000000  0.5412370000000 1.0
C      1  0.5226250000000  0.5288810000000  0.5440130000000 1.0
C      1  0.5072890000000  0.4713180000000  0.5415980000000 1.0
C      1  0.4723640000000  0.5105100000000  0.4562400000000 1.0
C      1  0.5269710000000  0.5181770000000  0.4604500000000 1.0
C      1  0.5052690000000  0.4712770000000  0.4577530000000 1.0
C      1  0.5214350000000  0.5129980000000  0.5139380000000 1.0
C      1  0.4910080000000  0.4685040000000  0.5121690000000 1.0
C      1  0.4768110000000  0.5192260000000  0.5181940000000 1.0
C      1  0.5197930000000  0.4967320000000  0.4849300000000 1.0
C      1  0.4885360000000  0.4833760000000  0.4839600000000 1.0
C      1  0.4837880000000  0.5152280000000  0.4879200000000 1.0
C      1  0.4324310000000  0.4492740000000  0.5339120000000 1.0
C      1  0.4907620000000  0.5790720000000  0.5362460000000 1.0
C      1  0.5731760000000  0.4705040000000  0.5303390000000 1.0
C      1  0.4313500000000  0.4548470000000  0.4653520000000 1.0
C      1  0.4974060000000  0.5785830000000  0.4658160000000 1.0
C      1  0.5730830000000  0.4634390000000  0.4619880000000 1.0
C      1  0.4243580000000  0.4277270000000  0.4838670000000 1.0
C      1  0.4781210000000  0.5975010000000  0.4864680000000 1.0
C      1  0.6006560000000  0.4731920000000  0.4793370000000 1.0
C      1  0.4190500000000  0.4248620000000  0.5151390000000 1.0
C      1  0.4817960000000  0.6059630000000  0.5174610000000 1.0
C      1  0.5979400000000  0.4809980000000  0.5095300000000 1.0
C      1  0.4565820000000  0.4760940000000  0.5844630000000 1.0
C      1  0.4956560000000  0.5495130000000  0.5758370000000 1.0
C      1  0.5389990000000  0.4801100000000  0.5762790000000 1.0
C      1  0.4536760000000  0.4788130000000  0.4188770000000 1.0
C      1  0.5077030000000  0.5479570000000  0.4229570000000 1.0
C      1  0.5377410000000  0.4728070000000  0.4210010000000 1.0
C      1  0.5136320000000  0.5241150000000  0.5765000000000 1.0
C      1  0.5077590000000  0.4914650000000  0.5690330000000 1.0
C      1  0.4762880000000  0.4977700000000  0.5699320000000 1.0
C      1  0.5175260000000  0.5165420000000  0.4323480000000 1.0
C      1  0.5077190000000  0.4866860000000  0.4289190000000 1.0
C      1  0.4788260000000  0.4966500000000  0.4289530000000 1.0
C      1  0.4972340000000  0.5400140000000  0.5305430000000 1.0
C      1  0.5271700000000  0.4827030000000  0.5216300000000 1.0
C      1  0.4641170000000  0.4733810000000  0.5313530000000 1.0
C      1  0.5077810000000  0.5344490000000  0.4800820000000 1.0
C      1  0.5328340000000  0.4671440000000  0.4741310000000 1.0
C      1  0.4568210000000  0.4851090000000  0.4710250000000 1.0
C      1  0.5892830000000  0.5359920000000  0.5327660000000 1.0
C      1  0.4903100000000  0.4081490000000  0.5361120000000 1.0
C      1  0.4169840000000  0.5566760000000  0.5330620000000 1.0
C      1  0.6097050000000  0.5193400000000  0.4514910000000 1.0
C      1  0.4976780000000  0.3964640000000  0.4794560000000 1.0
C      1  0.4224760000000  0.5614310000000  0.4682730000000 1.0
C      1  0.5556410000000  0.4600940000000  0.5575610000000 1.0
C      1  0.4412390000000  0.4727840000000  0.5568500000000 1.0
C      1  0.5089710000000  0.5705320000000  0.5629510000000 1.0
C      1  0.5512760000000  0.4512410000000  0.4388540000000 1.0
C      1  0.4360950000000  0.4814760000000  0.4443110000000 1.0
C      1  0.5197400000000  0.5691270000000  0.4419600000000 1.0
C      1  0.4482520000000  0.5288560000000  0.5049460000000 1.0
C      1  0.4965670000000  0.4378960000000  0.5071700000000 1.0
C      1  0.5429270000000  0.5354970000000  0.5102750000000 1.0
END
