TITL C-2622957-9142-108 0.00206626374985861 125000 -834.940937704837 0 0 152 (C1) n - 1
REM
REM in /nfs/bkarasulu/CARBON/AIRSS/Generating-Clusters/AIREBO/with-SteepDescent/Higher-Symm/SD-CG/HFTN-CG
REM
REM
REM
REM
REM
REM ./C.cell (b20cbc046b6831c77cfcea5457e17084)
REM
REM compiler GCC version 9.2.1 20190827 (Red Hat 9.2.1-1)
REM options -cpp -mtune=generic -march=x86-64 -g -O0 -fpre-include=/usr/include/finclude/math-vector-fortran.h
REM seed 1157954919 361749239 2126467310 -2085230648 -660661316 1324223782 -28759542 1210983110 -1532199952 -689517079 -1704164857 805207065 1998902168 728901974 712409611 -1510303530 -1801219593 1351509402 -413400446 516103548 1139161672 1109898097 -450497458 1436519377 -1872796532 -1323328612 1463163211 -146100478 1839473783 -1473231440 1965222318 1253687239 359779899
REM
CELL 1.54180   50.00000   50.00000   50.00000   90.00000   90.00000   90.00000
LATT -1
SFAC C  
C      1  0.4553200000000  0.4454610000000  0.5156140000000 1.0
C      1  0.5061940000000  0.4379230000000  0.3694880000000 1.0
C      1  0.5024840000000  0.5876670000000  0.4645150000000 1.0
C      1  0.4363790000000  0.5675970000000  0.4765490000000 1.0
C      1  0.5910270000000  0.4502910000000  0.5019440000000 1.0
C      1  0.4990090000000  0.4597490000000  0.5606090000000 1.0
C      1  0.4499860000000  0.5150330000000  0.5896920000000 1.0
C      1  0.5259940000000  0.5746620000000  0.5224960000000 1.0
C      1  0.5401210000000  0.4483340000000  0.4538710000000 1.0
C      1  0.4642590000000  0.5119420000000  0.4876170000000 1.0
C      1  0.4224580000000  0.4431650000000  0.5201090000000 1.0
C      1  0.4697460000000  0.5387340000000  0.5918900000000 1.0
C      1  0.5744430000000  0.4753240000000  0.4859940000000 1.0
C      1  0.4178360000000  0.5702910000000  0.5026480000000 1.0
C      1  0.4281170000000  0.5299280000000  0.4660340000000 1.0
C      1  0.4850780000000  0.4351770000000  0.4119820000000 1.0
C      1  0.5109850000000  0.4647920000000  0.5194900000000 1.0
C      1  0.4292390000000  0.4264350000000  0.4922860000000 1.0
C      1  0.4787730000000  0.5002140000000  0.5864910000000 1.0
C      1  0.5701590000000  0.4793780000000  0.5428080000000 1.0
C      1  0.4252920000000  0.4865190000000  0.5588690000000 1.0
C      1  0.5249720000000  0.4588970000000  0.4077320000000 1.0
C      1  0.4307380000000  0.4428400000000  0.4650300000000 1.0
C      1  0.4019720000000  0.4877340000000  0.5367600000000 1.0
C      1  0.5183110000000  0.4077150000000  0.5464550000000 1.0
C      1  0.4642190000000  0.4058940000000  0.4608110000000 1.0
C      1  0.5054290000000  0.4439520000000  0.3957540000000 1.0
C      1  0.4311300000000  0.4922510000000  0.5198350000000 1.0
C      1  0.5340060000000  0.4874780000000  0.5842130000000 1.0
C      1  0.5741570000000  0.5321840000000  0.5211930000000 1.0
C      1  0.5844710000000  0.5482340000000  0.4547830000000 1.0
C      1  0.5311130000000  0.4316810000000  0.5670150000000 1.0
C      1  0.4925370000000  0.4880050000000  0.4715900000000 1.0
C      1  0.5088790000000  0.5410160000000  0.4452530000000 1.0
C      1  0.4556080000000  0.4163350000000  0.5313880000000 1.0
C      1  0.5601050000000  0.5370980000000  0.4452950000000 1.0
C      1  0.5087690000000  0.4404240000000  0.4587410000000 1.0
C      1  0.5114430000000  0.4985240000000  0.4986750000000 1.0
C      1  0.4818330000000  0.4473400000000  0.4401060000000 1.0
C      1  0.5657530000000  0.4794240000000  0.4245950000000 1.0
C      1  0.5042450000000  0.4983540000000  0.6077800000000 1.0
C      1  0.5884230000000  0.4322600000000  0.5449690000000 1.0
C      1  0.4563230000000  0.4617400000000  0.5893330000000 1.0
C      1  0.5412870000000  0.5776480000000  0.4579640000000 1.0
C      1  0.4812870000000  0.4088730000000  0.4900680000000 1.0
C      1  0.5412140000000  0.4491190000000  0.5416560000000 1.0
C      1  0.4889670000000  0.5137700000000  0.4496330000000 1.0
C      1  0.4991000000000  0.4352490000000  0.5436060000000 1.0
C      1  0.4334590000000  0.5361750000000  0.4328280000000 1.0
C      1  0.5954780000000  0.5768810000000  0.5225970000000 1.0
C      1  0.4282370000000  0.5136780000000  0.5716950000000 1.0
C      1  0.4417650000000  0.5335590000000  0.4969780000000 1.0
C      1  0.4535810000000  0.4897200000000  0.4641700000000 1.0
C      1  0.4279270000000  0.5039000000000  0.4259490000000 1.0
C      1  0.6096070000000  0.4927980000000  0.4928620000000 1.0
C      1  0.5570060000000  0.4470630000000  0.5782800000000 1.0
C      1  0.5429020000000  0.4453330000000  0.4876720000000 1.0
C      1  0.4777720000000  0.4707250000000  0.5190740000000 1.0
C      1  0.5765700000000  0.4534760000000  0.5596100000000 1.0
C      1  0.4951290000000  0.5088490000000  0.5598740000000 1.0
C      1  0.5350570000000  0.5453400000000  0.4665970000000 1.0
C      1  0.5105140000000  0.4474030000000  0.5890410000000 1.0
C      1  0.4979630000000  0.5657570000000  0.5345870000000 1.0
C      1  0.5371490000000  0.4910600000000  0.4527150000000 1.0
C      1  0.4243390000000  0.4388690000000  0.5526730000000 1.0
C      1  0.4688680000000  0.5901350000000  0.5463210000000 1.0
C      1  0.5503930000000  0.5086650000000  0.5148430000000 1.0
C      1  0.5638070000000  0.5015400000000  0.4710380000000 1.0
C      1  0.5003850000000  0.5991860000000  0.5403220000000 1.0
C      1  0.4782690000000  0.4412670000000  0.4921470000000 1.0
C      1  0.4550020000000  0.5703100000000  0.5595190000000 1.0
C      1  0.5499790000000  0.4316460000000  0.5162690000000 1.0
C      1  0.4468470000000  0.5791200000000  0.4511140000000 1.0
C      1  0.4498700000000  0.4079190000000  0.5030390000000 1.0
C      1  0.5731800000000  0.5065900000000  0.5582910000000 1.0
C      1  0.5281290000000  0.5487930000000  0.4215180000000 1.0
C      1  0.4028510000000  0.4647820000000  0.5143680000000 1.0
C      1  0.4587860000000  0.6034160000000  0.4537240000000 1.0
C      1  0.4935630000000  0.4959170000000  0.4234140000000 1.0
C      1  0.4740900000000  0.5821250000000  0.5157950000000 1.0
C      1  0.5286090000000  0.5906730000000  0.4861020000000 1.0
C      1  0.3994300000000  0.5176010000000  0.5231680000000 1.0
C      1  0.5889140000000  0.4800540000000  0.5166530000000 1.0
C      1  0.5244200000000  0.5266610000000  0.5125990000000 1.0
C      1  0.4881160000000  0.4697890000000  0.5984650000000 1.0
C      1  0.5224430000000  0.5140950000000  0.4710800000000 1.0
C      1  0.4088230000000  0.4899080000000  0.4430910000000 1.0
C      1  0.5058050000000  0.4602850000000  0.4861790000000 1.0
C      1  0.4151930000000  0.5341050000000  0.5483880000000 1.0
C      1  0.5494090000000  0.5020900000000  0.4162900000000 1.0
C      1  0.6052170000000  0.5292840000000  0.4553530000000 1.0
C      1  0.4933120000000  0.5512880000000  0.6001790000000 1.0
C      1  0.5016560000000  0.5417320000000  0.5540680000000 1.0
C      1  0.4804410000000  0.5167930000000  0.4037700000000 1.0
C      1  0.4672710000000  0.5166470000000  0.5429850000000 1.0
C      1  0.5381480000000  0.4814220000000  0.5314760000000 1.0
C      1  0.5170100000000  0.4325130000000  0.5151500000000 1.0
C      1  0.4321410000000  0.4590440000000  0.5704250000000 1.0
C      1  0.4703930000000  0.4676870000000  0.5629320000000 1.0
C      1  0.4775850000000  0.6081510000000  0.4992000000000 1.0
C      1  0.5497550000000  0.5289260000000  0.4198910000000 1.0
C      1  0.4692200000000  0.5516410000000  0.4743860000000 1.0
C      1  0.5476960000000  0.5209990000000  0.5677700000000 1.0
C      1  0.4929440000000  0.5285370000000  0.4799990000000 1.0
C      1  0.4388010000000  0.5226120000000  0.5274640000000 1.0
C      1  0.4755580000000  0.4145210000000  0.5489580000000 1.0
C      1  0.4724870000000  0.4772420000000  0.4387870000000 1.0
C      1  0.5176220000000  0.4858430000000  0.5582280000000 1.0
C      1  0.4435270000000  0.4783690000000  0.4271030000000 1.0
C      1  0.5967030000000  0.5010360000000  0.4650920000000 1.0
C      1  0.5884800000000  0.5233640000000  0.5429470000000 1.0
C      1  0.4135310000000  0.4852000000000  0.4922510000000 1.0
C      1  0.5291730000000  0.5165150000000  0.5959800000000 1.0
C      1  0.5065160000000  0.4105990000000  0.4675980000000 1.0
C      1  0.5636620000000  0.4229700000000  0.4734310000000 1.0
C      1  0.4601000000000  0.5573550000000  0.4324820000000 1.0
C      1  0.5192830000000  0.5446000000000  0.5830030000000 1.0
C      1  0.5715430000000  0.5625800000000  0.5197320000000 1.0
C      1  0.4831100000000  0.5099290000000  0.5136380000000 1.0
C      1  0.5556540000000  0.5275070000000  0.4870060000000 1.0
C      1  0.5726390000000  0.4533450000000  0.4624650000000 1.0
C      1  0.4565680000000  0.4843900000000  0.5409850000000 1.0
C      1  0.5363110000000  0.5750150000000  0.4270460000000 1.0
C      1  0.5548760000000  0.5702790000000  0.4945490000000 1.0
C      1  0.5007160000000  0.4040650000000  0.5175760000000 1.0
C      1  0.4298680000000  0.4550180000000  0.4332840000000 1.0
C      1  0.5270990000000  0.5256180000000  0.5434570000000 1.0
C      1  0.5342980000000  0.4780260000000  0.4839910000000 1.0
C      1  0.4243730000000  0.4761300000000  0.4666580000000 1.0
C      1  0.5494390000000  0.5688640000000  0.5403740000000 1.0
C      1  0.5481930000000  0.4565180000000  0.4251920000000 1.0
C      1  0.5220420000000  0.4866970000000  0.4230020000000 1.0
C      1  0.4958240000000  0.6254860000000  0.5107830000000 1.0
C      1  0.4560540000000  0.5199770000000  0.4493950000000 1.0
C      1  0.5259660000000  0.5528210000000  0.4985050000000 1.0
C      1  0.4613000000000  0.5430800000000  0.5636240000000 1.0
C      1  0.4571340000000  0.4310020000000  0.4507640000000 1.0
C      1  0.5186390000000  0.3899630000000  0.4574540000000 1.0
C      1  0.4878090000000  0.5627200000000  0.4515610000000 1.0
C      1  0.5798200000000  0.4304190000000  0.5180600000000 1.0
C      1  0.4673320000000  0.4156540000000  0.4043560000000 1.0
C      1  0.5843780000000  0.4779760000000  0.4462380000000 1.0
C      1  0.4571710000000  0.5634580000000  0.5019580000000 1.0
C      1  0.5488730000000  0.4680040000000  0.5948610000000 1.0
C      1  0.5731650000000  0.5709720000000  0.4677400000000 1.0
C      1  0.4163530000000  0.5551630000000  0.5222030000000 1.0
C      1  0.4678820000000  0.4722390000000  0.4887080000000 1.0
C      1  0.4807530000000  0.6049780000000  0.4713840000000 1.0
C      1  0.5447480000000  0.5546920000000  0.5642990000000 1.0
C      1  0.5209920000000  0.6064110000000  0.5141840000000 1.0
C      1  0.4699230000000  0.5389730000000  0.4079480000000 1.0
C      1  0.4120930000000  0.5172280000000  0.4939420000000 1.0
END
