TITL C-2622965-4321-675 -0.00101401667464135 125000 -485.459499389678 0 0 86 (C1) n - 1
REM
REM in /nfs/bkarasulu/CARBON/AIRSS/Generating-Clusters/AIREBO/with-SteepDescent/Higher-Symm/SD-CG/HFTN-CG
REM
REM
REM
REM
REM
REM ./C.cell (b20cbc046b6831c77cfcea5457e17084)
REM
REM compiler GCC version 9.2.1 20190827 (Red Hat 9.2.1-1)
REM options -cpp -mtune=generic -march=x86-64 -g -O0 -fpre-include=/usr/include/finclude/math-vector-fortran.h
REM seed -153977693 531037154 -106055102 -1162071235 239438250 -1858010655 -760726645 -167900518 -512283713 2113704454 -1500663370 1878652033 204625323 1804630537 -799145039 -195513701 179232657 -1053955124 1275550827 -287442276 -1983900334 44636631 -158661650 -1447806156 -1715557839 1481456220 2145365070 1478784729 1561828665 160821153 -1244545126 -1784577185 311305202
REM
CELL 1.54180   50.00000   50.00000   50.00000   90.00000   90.00000   90.00000
LATT -1
SFAC C  
C      1  0.5171760000000  0.4385120000000  0.4566040000000 1.0
C      1  0.4806530000000  0.4774620000000  0.5786950000000 1.0
C      1  0.4941200000000  0.5167380000000  0.5101330000000 1.0
C      1  0.4517880000000  0.4670730000000  0.5657270000000 1.0
C      1  0.5111500000000  0.5206480000000  0.5358270000000 1.0
C      1  0.4567800000000  0.5590100000000  0.4789710000000 1.0
C      1  0.5054050000000  0.4584910000000  0.5833220000000 1.0
C      1  0.4827530000000  0.5126090000000  0.4802890000000 1.0
C      1  0.4858430000000  0.4837770000000  0.4640500000000 1.0
C      1  0.4986620000000  0.5663210000000  0.4473800000000 1.0
C      1  0.5735730000000  0.4896480000000  0.5414770000000 1.0
C      1  0.4572370000000  0.5187710000000  0.5950650000000 1.0
C      1  0.4026990000000  0.5273590000000  0.5052540000000 1.0
C      1  0.4877080000000  0.4554110000000  0.4523910000000 1.0
C      1  0.5624940000000  0.4690830000000  0.5507920000000 1.0
C      1  0.5596330000000  0.5501250000000  0.4473750000000 1.0
C      1  0.5574520000000  0.4720990000000  0.4573830000000 1.0
C      1  0.5384930000000  0.5132570000000  0.4233770000000 1.0
C      1  0.6056030000000  0.5221320000000  0.4956910000000 1.0
C      1  0.5629960000000  0.5179160000000  0.5264480000000 1.0
C      1  0.5299610000000  0.5094090000000  0.5903660000000 1.0
C      1  0.5192190000000  0.4310600000000  0.4859560000000 1.0
C      1  0.4618790000000  0.4394290000000  0.4621450000000 1.0
C      1  0.4728410000000  0.5407150000000  0.5530520000000 1.0
C      1  0.4656420000000  0.5119060000000  0.5425020000000 1.0
C      1  0.5040310000000  0.5198550000000  0.5877770000000 1.0
C      1  0.5362820000000  0.5035750000000  0.5388490000000 1.0
C      1  0.5045960000000  0.4309780000000  0.4259230000000 1.0
C      1  0.5322300000000  0.4645260000000  0.5648330000000 1.0
C      1  0.5339540000000  0.5416510000000  0.4903280000000 1.0
C      1  0.5430940000000  0.4320210000000  0.4993870000000 1.0
C      1  0.5058750000000  0.4625040000000  0.5435940000000 1.0
C      1  0.4344910000000  0.4566310000000  0.4707920000000 1.0
C      1  0.5085470000000  0.4745770000000  0.5046640000000 1.0
C      1  0.4136430000000  0.5288500000000  0.5297360000000 1.0
C      1  0.4342890000000  0.4878850000000  0.4841940000000 1.0
C      1  0.4967770000000  0.4364440000000  0.5315230000000 1.0
C      1  0.4385120000000  0.5094710000000  0.5332940000000 1.0
C      1  0.5420500000000  0.5424690000000  0.4267330000000 1.0
C      1  0.5146750000000  0.4889220000000  0.4787480000000 1.0
C      1  0.4776690000000  0.5619420000000  0.5051740000000 1.0
C      1  0.5042660000000  0.5432880000000  0.4942570000000 1.0
C      1  0.4760250000000  0.5383270000000  0.4304940000000 1.0
C      1  0.5023010000000  0.5366980000000  0.5626030000000 1.0
C      1  0.5510070000000  0.5865890000000  0.5074200000000 1.0
C      1  0.5076920000000  0.4821320000000  0.4026370000000 1.0
C      1  0.4334750000000  0.4821250000000  0.5190580000000 1.0
C      1  0.5453880000000  0.4514240000000  0.4514570000000 1.0
C      1  0.4715870000000  0.5330780000000  0.4634340000000 1.0
C      1  0.4814440000000  0.5042960000000  0.5934920000000 1.0
C      1  0.5316940000000  0.5491520000000  0.5547190000000 1.0
C      1  0.5333720000000  0.4976070000000  0.4019460000000 1.0
C      1  0.4201780000000  0.5238180000000  0.5613880000000 1.0
C      1  0.5511770000000  0.4524740000000  0.5162920000000 1.0
C      1  0.5099640000000  0.5403920000000  0.4301450000000 1.0
C      1  0.4989950000000  0.5083930000000  0.4265200000000 1.0
C      1  0.5391510000000  0.4954130000000  0.5694280000000 1.0
C      1  0.5500580000000  0.5454340000000  0.5352740000000 1.0
C      1  0.4601200000000  0.4750080000000  0.5021850000000 1.0
C      1  0.5620830000000  0.5424630000000  0.4730110000000 1.0
C      1  0.4711190000000  0.5628960000000  0.5319420000000 1.0
C      1  0.4975650000000  0.4441810000000  0.5018610000000 1.0
C      1  0.6264710000000  0.4996120000000  0.4849460000000 1.0
C      1  0.4471360000000  0.5247990000000  0.4423120000000 1.0
C      1  0.4833780000000  0.4877850000000  0.5160510000000 1.0
C      1  0.5467850000000  0.5599950000000  0.5116570000000 1.0
C      1  0.4131040000000  0.4928380000000  0.5640400000000 1.0
C      1  0.4824150000000  0.4854110000000  0.5478880000000 1.0
C      1  0.4885620000000  0.4146190000000  0.5426530000000 1.0
C      1  0.4190690000000  0.5181650000000  0.4843460000000 1.0
C      1  0.4300060000000  0.4750280000000  0.5514230000000 1.0
C      1  0.5664410000000  0.4945800000000  0.4752330000000 1.0
C      1  0.4515360000000  0.4881430000000  0.4277380000000 1.0
C      1  0.4544920000000  0.4954910000000  0.4579130000000 1.0
C      1  0.5314950000000  0.4751840000000  0.5262880000000 1.0
C      1  0.5226990000000  0.5047510000000  0.4496250000000 1.0
C      1  0.4695930000000  0.4487660000000  0.4913670000000 1.0
C      1  0.4577280000000  0.4142410000000  0.4515010000000 1.0
C      1  0.4921290000000  0.4586770000000  0.4206280000000 1.0
C      1  0.5735220000000  0.5230220000000  0.4973730000000 1.0
C      1  0.4762160000000  0.4870320000000  0.4136820000000 1.0
C      1  0.4481590000000  0.5315980000000  0.5725930000000 1.0
C      1  0.5958330000000  0.4993810000000  0.4744550000000 1.0
C      1  0.4903240000000  0.5664570000000  0.4741350000000 1.0
C      1  0.4327750000000  0.5374720000000  0.4691130000000 1.0
C      1  0.5389980000000  0.5105040000000  0.4776530000000 1.0
END
