TITL C-2622956-4641-297 -0.00351323846723329 125000 -325.64856084828 0 0 65 (C1) n - 1
REM
REM in /nfs/bkarasulu/CARBON/AIRSS/Generating-Clusters/AIREBO/with-SteepDescent/Higher-Symm/SD-CG/HFTN-CG
REM
REM
REM
REM
REM
REM ./C.cell (b20cbc046b6831c77cfcea5457e17084)
REM
REM compiler GCC version 9.2.1 20190827 (Red Hat 9.2.1-1)
REM options -cpp -mtune=generic -march=x86-64 -g -O0 -fpre-include=/usr/include/finclude/math-vector-fortran.h
REM seed -117001710 -2139805234 1206270796 -942779891 -1186411517 1934039773 885351166 270924839 1623591951 212439410 1420975812 665532080 -1602434645 -1693738973 -372268492 112542003 -1620393894 -1854268789 1081320005 175130026 2024068192 1339301003 -991758323 1981490290 -1291793141 -1363767997 1786281408 1833024785 -1300625118 -1223118787 1536469505 85401346 34166707
REM
CELL 1.54180   50.00000   50.00000   50.00000   90.00000   90.00000   90.00000
LATT -1
SFAC C  
C      1  0.5287300000000  0.5689150000000  0.5210190000000 1.0
C      1  0.5235650000000  0.5700100000000  0.4572290000000 1.0
C      1  0.4674490000000  0.5656570000000  0.5041130000000 1.0
C      1  0.4608500000000  0.5971840000000  0.4951790000000 1.0
C      1  0.5250430000000  0.5985710000000  0.5301510000000 1.0
C      1  0.5097160000000  0.5969360000000  0.4677970000000 1.0
C      1  0.5216220000000  0.5399900000000  0.4443200000000 1.0
C      1  0.4409520000000  0.5443530000000  0.5043960000000 1.0
C      1  0.5315150000000  0.5489600000000  0.5450840000000 1.0
C      1  0.5085070000000  0.4887650000000  0.4286810000000 1.0
C      1  0.4279380000000  0.4893650000000  0.5251170000000 1.0
C      1  0.5569330000000  0.4909500000000  0.5432810000000 1.0
C      1  0.5514510000000  0.5649440000000  0.5023470000000 1.0
C      1  0.4920170000000  0.5629480000000  0.4567980000000 1.0
C      1  0.4684050000000  0.5609500000000  0.5371310000000 1.0
C      1  0.5276570000000  0.4326610000000  0.4875760000000 1.0
C      1  0.4712840000000  0.4295080000000  0.4854970000000 1.0
C      1  0.4987890000000  0.4325220000000  0.5357360000000 1.0
C      1  0.4489370000000  0.4519200000000  0.4944360000000 1.0
C      1  0.5176060000000  0.4562090000000  0.5492500000000 1.0
C      1  0.5298530000000  0.4567100000000  0.4646210000000 1.0
C      1  0.5648570000000  0.4961000000000  0.4927230000000 1.0
C      1  0.4608730000000  0.5025320000000  0.4410070000000 1.0
C      1  0.4582290000000  0.4988530000000  0.5636720000000 1.0
C      1  0.4716100000000  0.4577930000000  0.4693430000000 1.0
C      1  0.4850560000000  0.4619940000000  0.5389410000000 1.0
C      1  0.5387340000000  0.4616260000000  0.4972780000000 1.0
C      1  0.4754490000000  0.5396350000000  0.4427960000000 1.0
C      1  0.4541630000000  0.5368020000000  0.5519250000000 1.0
C      1  0.5626330000000  0.5354730000000  0.4981640000000 1.0
C      1  0.5234430000000  0.4701780000000  0.4360010000000 1.0
C      1  0.4278240000000  0.4686740000000  0.5113580000000 1.0
C      1  0.5445680000000  0.4738010000000  0.5567600000000 1.0
C      1  0.4668820000000  0.5488160000000  0.4743850000000 1.0
C      1  0.4854390000000  0.5400970000000  0.5554970000000 1.0
C      1  0.5470670000000  0.5515660000000  0.4723160000000 1.0
C      1  0.5002950000000  0.4712400000000  0.4685560000000 1.0
C      1  0.4676920000000  0.4718770000000  0.5117480000000 1.0
C      1  0.5228110000000  0.4746340000000  0.5233240000000 1.0
C      1  0.5105490000000  0.5283670000000  0.5531410000000 1.0
C      1  0.5410320000000  0.5199810000000  0.4608970000000 1.0
C      1  0.4479100000000  0.5217020000000  0.4821950000000 1.0
C      1  0.4577840000000  0.4982770000000  0.5001610000000 1.0
C      1  0.5192130000000  0.5021650000000  0.5361270000000 1.0
C      1  0.5203510000000  0.4963090000000  0.4661030000000 1.0
C      1  0.5024050000000  0.5251140000000  0.4681620000000 1.0
C      1  0.4680910000000  0.5265440000000  0.5159970000000 1.0
C      1  0.5288380000000  0.5284160000000  0.5178920000000 1.0
C      1  0.4483880000000  0.5089430000000  0.5374400000000 1.0
C      1  0.5567390000000  0.5095480000000  0.5181240000000 1.0
C      1  0.4896330000000  0.5101010000000  0.4404460000000 1.0
C      1  0.5015990000000  0.3436080000000  0.5037790000000 1.0
C      1  0.4974360000000  0.4972620000000  0.5024220000000 1.0
C      1  0.5008590000000  0.3702180000000  0.5047360000000 1.0
C      1  0.5013100000000  0.5630020000000  0.5056820000000 1.0
C      1  0.4997570000000  0.2908710000000  0.5023660000000 1.0
C      1  0.5011110000000  0.3965700000000  0.5032680000000 1.0
C      1  0.4938700000000  0.5942460000000  0.4949200000000 1.0
C      1  0.5001110000000  0.3170140000000  0.5042280000000 1.0
C      1  0.4985430000000  0.4296510000000  0.5030180000000 1.0
C      1  0.4989240000000  0.5293080000000  0.5017420000000 1.0
C      1  0.5062440000000  0.6123890000000  0.5161920000000 1.0
C      1  0.4944200000000  0.6644930000000  0.5183770000000 1.0
C      1  0.4990810000000  0.4636410000000  0.5015960000000 1.0
C      1  0.4992580000000  0.6387350000000  0.5181860000000 1.0
END
