TITL C-2622954-8726-735 -1.77759857662141e-05 125000 -709.431805130491 0 0 128 (C1) n - 1
REM
REM in /nfs/bkarasulu/CARBON/AIRSS/Generating-Clusters/AIREBO/with-SteepDescent/Higher-Symm/SD-CG/HFTN-CG
REM
REM
REM
REM
REM
REM ./C.cell (b20cbc046b6831c77cfcea5457e17084)
REM
REM compiler GCC version 9.2.1 20190827 (Red Hat 9.2.1-1)
REM options -cpp -mtune=generic -march=x86-64 -g -O0 -fpre-include=/usr/include/finclude/math-vector-fortran.h
REM seed 297584217 842331998 -1387455692 -216832040 -2057845326 900469778 610054419 1826349957 -1915914847 303252876 -2005218351 -619698826 -1798322234 1628009125 486205310 -1907578549 1241977912 903505869 -531340913 1401746343 -2117099206 -1403093300 847999099 1005403501 1220246678 -1606409136 -1528862278 -836323964 2023661398 -1312939661 -860267133 -591812336 -2117319478
REM
CELL 1.54180   50.00000   50.00000   50.00000   90.00000   90.00000   90.00000
LATT -1
SFAC C  
C      1  0.5231310000000  0.4572930000000  0.4268520000000 1.0
C      1  0.5283490000000  0.5601710000000  0.4382960000000 1.0
C      1  0.5268560000000  0.5757140000000  0.5367890000000 1.0
C      1  0.5225080000000  0.4866200000000  0.5867470000000 1.0
C      1  0.5307000000000  0.4234740000000  0.5156370000000 1.0
C      1  0.4718290000000  0.4544730000000  0.4310260000000 1.0
C      1  0.4688820000000  0.5557300000000  0.4233500000000 1.0
C      1  0.4695710000000  0.5859390000000  0.5262470000000 1.0
C      1  0.4703750000000  0.4942850000000  0.5845340000000 1.0
C      1  0.4739810000000  0.4178200000000  0.5234220000000 1.0
C      1  0.4795520000000  0.5627690000000  0.5384630000000 1.0
C      1  0.4714730000000  0.4723370000000  0.5578580000000 1.0
C      1  0.4818930000000  0.4358680000000  0.4988000000000 1.0
C      1  0.4763480000000  0.4817530000000  0.4376810000000 1.0
C      1  0.4809890000000  0.5561790000000  0.4506730000000 1.0
C      1  0.5164440000000  0.5542090000000  0.5510470000000 1.0
C      1  0.5101780000000  0.4815140000000  0.5558760000000 1.0
C      1  0.5213500000000  0.4361720000000  0.4926000000000 1.0
C      1  0.5160060000000  0.4830940000000  0.4402020000000 1.0
C      1  0.5173830000000  0.5661650000000  0.4637240000000 1.0
C      1  0.4324800000000  0.5781330000000  0.4713740000000 1.0
C      1  0.4355540000000  0.5573400000000  0.5705530000000 1.0
C      1  0.4332210000000  0.4502440000000  0.5629040000000 1.0
C      1  0.4401410000000  0.4107940000000  0.4808630000000 1.0
C      1  0.4309290000000  0.4995130000000  0.4207870000000 1.0
C      1  0.5818870000000  0.5619930000000  0.4787320000000 1.0
C      1  0.5659960000000  0.5434460000000  0.5648590000000 1.0
C      1  0.5525040000000  0.4470730000000  0.5783540000000 1.0
C      1  0.5663940000000  0.4212530000000  0.4733530000000 1.0
C      1  0.5708460000000  0.4968890000000  0.4291360000000 1.0
C      1  0.5706080000000  0.5497700000000  0.4563250000000 1.0
C      1  0.5673590000000  0.5463430000000  0.5360590000000 1.0
C      1  0.5624600000000  0.4881200000000  0.5577970000000 1.0
C      1  0.5769250000000  0.4323360000000  0.5036700000000 1.0
C      1  0.5668950000000  0.4694690000000  0.4319090000000 1.0
C      1  0.4309490000000  0.5501840000000  0.4550520000000 1.0
C      1  0.4284780000000  0.5584000000000  0.5377730000000 1.0
C      1  0.4270520000000  0.4822580000000  0.5662320000000 1.0
C      1  0.4316230000000  0.4330510000000  0.5037950000000 1.0
C      1  0.4269250000000  0.4722440000000  0.4384620000000 1.0
C      1  0.6101290000000  0.4888050000000  0.4696950000000 1.0
C      1  0.6113580000000  0.5209440000000  0.4758560000000 1.0
C      1  0.5972020000000  0.5170940000000  0.5066590000000 1.0
C      1  0.6018840000000  0.4872510000000  0.5178320000000 1.0
C      1  0.6019990000000  0.4737200000000  0.4915950000000 1.0
C      1  0.3939690000000  0.4786310000000  0.4809330000000 1.0
C      1  0.4040410000000  0.5123080000000  0.4846000000000 1.0
C      1  0.4043790000000  0.5318920000000  0.5114990000000 1.0
C      1  0.4044570000000  0.4999970000000  0.5232790000000 1.0
C      1  0.3837650000000  0.4869560000000  0.5079580000000 1.0
C      1  0.4423450000000  0.5874230000000  0.5296280000000 1.0
C      1  0.4426420000000  0.4929190000000  0.5924720000000 1.0
C      1  0.4473490000000  0.4112370000000  0.5224820000000 1.0
C      1  0.4457880000000  0.4499270000000  0.4242080000000 1.0
C      1  0.4414370000000  0.5551460000000  0.4253080000000 1.0
C      1  0.5544190000000  0.5683920000000  0.5258270000000 1.0
C      1  0.5500050000000  0.4751660000000  0.5792020000000 1.0
C      1  0.5548810000000  0.4119960000000  0.5145350000000 1.0
C      1  0.5481380000000  0.4581070000000  0.4142190000000 1.0
C      1  0.5563300000000  0.5649790000000  0.4373450000000 1.0
C      1  0.5497790000000  0.4354860000000  0.5525540000000 1.0
C      1  0.5425420000000  0.4310890000000  0.4582880000000 1.0
C      1  0.5429450000000  0.5163180000000  0.4287010000000 1.0
C      1  0.5658020000000  0.5820410000000  0.4900660000000 1.0
C      1  0.5390250000000  0.5304890000000  0.5738610000000 1.0
C      1  0.4643610000000  0.4409490000000  0.5544930000000 1.0
C      1  0.4549600000000  0.4243930000000  0.4605600000000 1.0
C      1  0.4564830000000  0.5147030000000  0.4269230000000 1.0
C      1  0.4510970000000  0.5782680000000  0.4917470000000 1.0
C      1  0.4505150000000  0.5346060000000  0.5789880000000 1.0
C      1  0.4686330000000  0.4853040000000  0.5265760000000 1.0
C      1  0.4611800000000  0.4845980000000  0.4934060000000 1.0
C      1  0.4663330000000  0.5010380000000  0.4640700000000 1.0
C      1  0.4641270000000  0.5241500000000  0.4887090000000 1.0
C      1  0.4571740000000  0.5137920000000  0.5203390000000 1.0
C      1  0.5287260000000  0.4767850000000  0.5110570000000 1.0
C      1  0.5352570000000  0.4645660000000  0.4800060000000 1.0
C      1  0.5371780000000  0.4947320000000  0.4641260000000 1.0
C      1  0.5252680000000  0.5466670000000  0.4876620000000 1.0
C      1  0.5211330000000  0.5272910000000  0.5382340000000 1.0
C      1  0.5156340000000  0.5202030000000  0.4708190000000 1.0
C      1  0.5083900000000  0.5280640000000  0.5091100000000 1.0
C      1  0.5001740000000  0.5080830000000  0.5480090000000 1.0
C      1  0.5114780000000  0.4631400000000  0.5328450000000 1.0
C      1  0.5003440000000  0.4808650000000  0.4695300000000 1.0
C      1  0.4893760000000  0.5253010000000  0.4580060000000 1.0
C      1  0.4773870000000  0.5406930000000  0.5154470000000 1.0
C      1  0.4710270000000  0.5178960000000  0.5492160000000 1.0
C      1  0.4820290000000  0.4569620000000  0.5224950000000 1.0
C      1  0.4739470000000  0.4605950000000  0.4747990000000 1.0
C      1  0.5742610000000  0.4612690000000  0.4895760000000 1.0
C      1  0.5894590000000  0.5083630000000  0.4530390000000 1.0
C      1  0.6007500000000  0.5470620000000  0.4919360000000 1.0
C      1  0.5686150000000  0.5162090000000  0.5200950000000 1.0
C      1  0.5779750000000  0.4737760000000  0.5358270000000 1.0
C      1  0.4175610000000  0.4547400000000  0.4853940000000 1.0
C      1  0.4229790000000  0.4899890000000  0.4672930000000 1.0
C      1  0.4251070000000  0.5392540000000  0.4866370000000 1.0
C      1  0.4185370000000  0.5261380000000  0.5403810000000 1.0
C      1  0.4262090000000  0.4757100000000  0.5330040000000 1.0
C      1  0.5357780000000  0.5743340000000  0.4982300000000 1.0
C      1  0.5485680000000  0.5128380000000  0.5464110000000 1.0
C      1  0.5703390000000  0.4433730000000  0.5339240000000 1.0
C      1  0.5622590000000  0.4587250000000  0.4601820000000 1.0
C      1  0.5590250000000  0.5201840000000  0.4584540000000 1.0
C      1  0.4463550000000  0.5532140000000  0.5093180000000 1.0
C      1  0.4386130000000  0.5125400000000  0.5579970000000 1.0
C      1  0.4486210000000  0.4510270000000  0.5260880000000 1.0
C      1  0.4413540000000  0.4546720000000  0.4635540000000 1.0
C      1  0.4381620000000  0.5179910000000  0.4553790000000 1.0
C      1  0.4825550000000  0.5881260000000  0.4952650000000 1.0
C      1  0.4835180000000  0.5253190000000  0.5799610000000 1.0
C      1  0.4908380000000  0.4234650000000  0.5476420000000 1.0
C      1  0.4862000000000  0.4363190000000  0.4543780000000 1.0
C      1  0.4879370000000  0.5273360000000  0.4240970000000 1.0
C      1  0.5098270000000  0.5897720000000  0.5139400000000 1.0
C      1  0.5162840000000  0.5178960000000  0.5860590000000 1.0
C      1  0.5197000000000  0.4342900000000  0.5418220000000 1.0
C      1  0.5186510000000  0.4361840000000  0.4441520000000 1.0
C      1  0.5210580000000  0.5352870000000  0.4258730000000 1.0
C      1  0.4908590000000  0.5545530000000  0.5642160000000 1.0
C      1  0.4939210000000  0.4719310000000  0.5833940000000 1.0
C      1  0.4959240000000  0.4967310000000  0.4202230000000 1.0
C      1  0.5006950000000  0.4194570000000  0.4784510000000 1.0
C      1  0.4911290000000  0.5772620000000  0.4676610000000 1.0
C      1  0.4309560000000  0.4814080000000  0.4998160000000 1.0
C      1  0.5599180000000  0.4845750000000  0.5099840000000 1.0
C      1  0.5117970000000  0.4972670000000  0.4948520000000 1.0
END
