TITL C-2622965-4321-588 0.000587559685456708 125000 -963.858070110595 0 0 184 (C1) n - 1
REM
REM in /nfs/bkarasulu/CARBON/AIRSS/Generating-Clusters/AIREBO/with-SteepDescent/Higher-Symm/SD-CG/HFTN-CG
REM
REM
REM
REM
REM
REM ./C.cell (b20cbc046b6831c77cfcea5457e17084)
REM
REM compiler GCC version 9.2.1 20190827 (Red Hat 9.2.1-1)
REM options -cpp -mtune=generic -march=x86-64 -g -O0 -fpre-include=/usr/include/finclude/math-vector-fortran.h
REM seed -2029627726 221488776 2145177889 1928270733 -1218006447 -999839699 -2008078146 -68856996 1711806789 -1235323069 223488427 -929902621 1560292523 880756693 -182220265 1844840092 -575816502 -854136068 66212432 -1211450101 -1473415532 -1407521212 -761968600 -1780336111 231347318 451210225 244829933 874265922 -803253538 -147301040 487713614 -333828040 693534772
REM
CELL 1.54180   50.00000   50.00000   50.00000   90.00000   90.00000   90.00000
LATT -1
SFAC C  
C      1  0.4791680000000  0.4346660000000  0.4179460000000 1.0
C      1  0.4723380000000  0.4673110000000  0.6024570000000 1.0
C      1  0.4613340000000  0.6040420000000  0.4958250000000 1.0
C      1  0.5113940000000  0.5643480000000  0.4980630000000 1.0
C      1  0.5150650000000  0.4577080000000  0.4517260000000 1.0
C      1  0.5031240000000  0.4720390000000  0.5573690000000 1.0
C      1  0.4684150000000  0.4254250000000  0.5000950000000 1.0
C      1  0.4676710000000  0.5313290000000  0.5669190000000 1.0
C      1  0.4732250000000  0.5357290000000  0.4345920000000 1.0
C      1  0.6152770000000  0.4446690000000  0.4663110000000 1.0
C      1  0.6152980000000  0.5079440000000  0.5529720000000 1.0
C      1  0.6083110000000  0.5313590000000  0.4737640000000 1.0
C      1  0.3986520000000  0.4864600000000  0.5142110000000 1.0
C      1  0.4072920000000  0.5160880000000  0.5057060000000 1.0
C      1  0.4118780000000  0.4930040000000  0.4834640000000 1.0
C      1  0.5785760000000  0.4099120000000  0.4979220000000 1.0
C      1  0.5903930000000  0.5399380000000  0.5659080000000 1.0
C      1  0.5804270000000  0.5451280000000  0.4292630000000 1.0
C      1  0.5416470000000  0.4234660000000  0.4277980000000 1.0
C      1  0.5415570000000  0.4755680000000  0.5938900000000 1.0
C      1  0.5351970000000  0.6009270000000  0.4646240000000 1.0
C      1  0.4108810000000  0.4442770000000  0.4977890000000 1.0
C      1  0.4026120000000  0.5280820000000  0.5452820000000 1.0
C      1  0.4109900000000  0.5254210000000  0.4538280000000 1.0
C      1  0.3949670000000  0.5294980000000  0.4774420000000 1.0
C      1  0.3952000000000  0.4634030000000  0.4821580000000 1.0
C      1  0.3849760000000  0.5068730000000  0.5375740000000 1.0
C      1  0.4360230000000  0.5826700000000  0.5362370000000 1.0
C      1  0.4402490000000  0.4900470000000  0.4083230000000 1.0
C      1  0.4407330000000  0.4254400000000  0.5510790000000 1.0
C      1  0.5202680000000  0.5846760000000  0.4300520000000 1.0
C      1  0.5213550000000  0.3953340000000  0.4765850000000 1.0
C      1  0.5263370000000  0.5248730000000  0.6098880000000 1.0
C      1  0.4380670000000  0.5246010000000  0.4066410000000 1.0
C      1  0.4355780000000  0.4113380000000  0.5206000000000 1.0
C      1  0.4383600000000  0.5600820000000  0.5647240000000 1.0
C      1  0.4578590000000  0.4718240000000  0.4632120000000 1.0
C      1  0.4476650000000  0.4803530000000  0.5357740000000 1.0
C      1  0.4526620000000  0.5357430000000  0.4933040000000 1.0
C      1  0.4933790000000  0.5946940000000  0.5574310000000 1.0
C      1  0.4912790000000  0.5039070000000  0.3911760000000 1.0
C      1  0.4937280000000  0.4012110000000  0.5545460000000 1.0
C      1  0.4387890000000  0.5864170000000  0.5049740000000 1.0
C      1  0.4474290000000  0.4618690000000  0.4259320000000 1.0
C      1  0.4384890000000  0.4563020000000  0.5663260000000 1.0
C      1  0.4648150000000  0.5085370000000  0.4784160000000 1.0
C      1  0.4641470000000  0.4793020000000  0.4957980000000 1.0
C      1  0.4604090000000  0.5051410000000  0.5175820000000 1.0
C      1  0.5463240000000  0.5649410000000  0.5440050000000 1.0
C      1  0.5428220000000  0.5046950000000  0.4203090000000 1.0
C      1  0.5451940000000  0.4250260000000  0.5384240000000 1.0
C      1  0.4273600000000  0.4508890000000  0.4487890000000 1.0
C      1  0.4176250000000  0.4814910000000  0.5703190000000 1.0
C      1  0.4290790000000  0.5672880000000  0.4863620000000 1.0
C      1  0.4722440000000  0.5071110000000  0.5958920000000 1.0
C      1  0.4603090000000  0.5830430000000  0.4483670000000 1.0
C      1  0.4674480000000  0.4146450000000  0.4588230000000 1.0
C      1  0.5858280000000  0.4552750000000  0.4717720000000 1.0
C      1  0.5835350000000  0.5021410000000  0.5475730000000 1.0
C      1  0.5831040000000  0.5474030000000  0.4809730000000 1.0
C      1  0.5214380000000  0.4871280000000  0.4400980000000 1.0
C      1  0.5045370000000  0.4493930000000  0.5330680000000 1.0
C      1  0.5196810000000  0.5534290000000  0.5267460000000 1.0
C      1  0.5583380000000  0.5303460000000  0.4705440000000 1.0
C      1  0.5563900000000  0.4588490000000  0.4896810000000 1.0
C      1  0.5507750000000  0.5114880000000  0.5480420000000 1.0
C      1  0.5415610000000  0.5657800000000  0.4466820000000 1.0
C      1  0.5419910000000  0.4204050000000  0.4829240000000 1.0
C      1  0.5582760000000  0.5240120000000  0.6009020000000 1.0
C      1  0.4829470000000  0.5499810000000  0.4872280000000 1.0
C      1  0.4906180000000  0.4651430000000  0.4694700000000 1.0
C      1  0.4767840000000  0.4900530000000  0.5504840000000 1.0
C      1  0.4912140000000  0.4756720000000  0.5160960000000 1.0
C      1  0.4877260000000  0.5229930000000  0.5073990000000 1.0
C      1  0.4941830000000  0.4961620000000  0.4761540000000 1.0
C      1  0.5852130000000  0.5061500000000  0.5141360000000 1.0
C      1  0.5904680000000  0.5081330000000  0.4812970000000 1.0
C      1  0.5908460000000  0.4781600000000  0.4956630000000 1.0
C      1  0.4342580000000  0.5466070000000  0.4597690000000 1.0
C      1  0.4356380000000  0.4392100000000  0.4779450000000 1.0
C      1  0.4262590000000  0.5120070000000  0.5580620000000 1.0
C      1  0.5337170000000  0.5323310000000  0.3929800000000 1.0
C      1  0.5218910000000  0.3926340000000  0.5370430000000 1.0
C      1  0.5382580000000  0.5817450000000  0.5792320000000 1.0
C      1  0.5217720000000  0.4460280000000  0.5689140000000 1.0
C      1  0.5248650000000  0.5913020000000  0.5150950000000 1.0
C      1  0.5298480000000  0.4716740000000  0.4063260000000 1.0
C      1  0.4898300000000  0.5554930000000  0.5895800000000 1.0
C      1  0.4797100000000  0.5544450000000  0.3998540000000 1.0
C      1  0.4805600000000  0.3877530000000  0.5044390000000 1.0
C      1  0.5150330000000  0.4956570000000  0.5275110000000 1.0
C      1  0.5140310000000  0.5205340000000  0.4859560000000 1.0
C      1  0.5215090000000  0.4811310000000  0.4909430000000 1.0
C      1  0.5270180000000  0.5392810000000  0.4607250000000 1.0
C      1  0.5241770000000  0.4493390000000  0.4843190000000 1.0
C      1  0.5191490000000  0.5175550000000  0.5532110000000 1.0
C      1  0.4880730000000  0.5646130000000  0.4264670000000 1.0
C      1  0.4946120000000  0.4097590000000  0.4876420000000 1.0
C      1  0.4992750000000  0.5278490000000  0.5790160000000 1.0
C      1  0.4412270000000  0.5657960000000  0.4378000000000 1.0
C      1  0.4430530000000  0.4098460000000  0.4734080000000 1.0
C      1  0.4393780000000  0.5098620000000  0.5881370000000 1.0
C      1  0.5662110000000  0.4797860000000  0.5756930000000 1.0
C      1  0.5574230000000  0.5888500000000  0.4752410000000 1.0
C      1  0.5650300000000  0.4421940000000  0.4402540000000 1.0
C      1  0.5584350000000  0.4626860000000  0.4134900000000 1.0
C      1  0.5529470000000  0.4498000000000  0.5661560000000 1.0
C      1  0.5549960000000  0.5916940000000  0.5037940000000 1.0
C      1  0.6003650000000  0.5568730000000  0.4137760000000 1.0
C      1  0.5913690000000  0.3857160000000  0.4944440000000 1.0
C      1  0.6144400000000  0.5458170000000  0.5755200000000 1.0
C      1  0.4950860000000  0.5485570000000  0.4562840000000 1.0
C      1  0.4920100000000  0.4487280000000  0.4953630000000 1.0
C      1  0.4876510000000  0.5211340000000  0.5413670000000 1.0
C      1  0.5788520000000  0.4879550000000  0.4175200000000 1.0
C      1  0.5794830000000  0.4358150000000  0.5501300000000 1.0
C      1  0.5741090000000  0.5800710000000  0.5197340000000 1.0
C      1  0.5276510000000  0.4036070000000  0.5089680000000 1.0
C      1  0.5406590000000  0.5507250000000  0.5929770000000 1.0
C      1  0.5300620000000  0.5551790000000  0.4162500000000 1.0
C      1  0.4166720000000  0.4378530000000  0.5303880000000 1.0
C      1  0.4152360000000  0.5578340000000  0.5420110000000 1.0
C      1  0.4184160000000  0.5071120000000  0.4280240000000 1.0
C      1  0.5235050000000  0.5020630000000  0.3924490000000 1.0
C      1  0.5238700000000  0.4150140000000  0.5620970000000 1.0
C      1  0.5250530000000  0.5909760000000  0.5491020000000 1.0
C      1  0.5329130000000  0.5001540000000  0.4663060000000 1.0
C      1  0.5434420000000  0.4864090000000  0.5156080000000 1.0
C      1  0.5311240000000  0.5243920000000  0.5157160000000 1.0
C      1  0.4043130000000  0.4682600000000  0.4532960000000 1.0
C      1  0.3927280000000  0.4802730000000  0.5525630000000 1.0
C      1  0.4040840000000  0.5539560000000  0.4949730000000 1.0
C      1  0.4324030000000  0.5557160000000  0.4136460000000 1.0
C      1  0.4304960000000  0.3961520000000  0.4940010000000 1.0
C      1  0.4316830000000  0.5405020000000  0.5855270000000 1.0
C      1  0.4984610000000  0.5049170000000  0.4234230000000 1.0
C      1  0.4834310000000  0.4267430000000  0.5370640000000 1.0
C      1  0.4978480000000  0.5617210000000  0.5504230000000 1.0
C      1  0.5735010000000  0.4193810000000  0.5237450000000 1.0
C      1  0.5781660000000  0.5591410000000  0.5462310000000 1.0
C      1  0.5725500000000  0.5181360000000  0.4210550000000 1.0
C      1  0.4937960000000  0.5879320000000  0.4495360000000 1.0
C      1  0.5001290000000  0.4098750000000  0.4540910000000 1.0
C      1  0.5033520000000  0.5045730000000  0.6016770000000 1.0
C      1  0.4303580000000  0.4902700000000  0.4550540000000 1.0
C      1  0.4178800000000  0.4689130000000  0.5326200000000 1.0
C      1  0.4273840000000  0.5401100000000  0.5156510000000 1.0
C      1  0.4503250000000  0.4525180000000  0.5056080000000 1.0
C      1  0.4483340000000  0.5273560000000  0.5392210000000 1.0
C      1  0.4502870000000  0.5176490000000  0.4518440000000 1.0
C      1  0.5044420000000  0.4544160000000  0.4133390000000 1.0
C      1  0.4951950000000  0.4505810000000  0.5896480000000 1.0
C      1  0.4930360000000  0.5984110000000  0.5054250000000 1.0
C      1  0.4700720000000  0.4961690000000  0.4344300000000 1.0
C      1  0.4650240000000  0.4534330000000  0.5365430000000 1.0
C      1  0.4719200000000  0.5506300000000  0.5315750000000 1.0
C      1  0.4743080000000  0.5818050000000  0.5254090000000 1.0
C      1  0.4763100000000  0.4735720000000  0.4123260000000 1.0
C      1  0.4699160000000  0.4455440000000  0.5692660000000 1.0
C      1  0.5687150000000  0.4700850000000  0.5189510000000 1.0
C      1  0.5636480000000  0.5290500000000  0.5245210000000 1.0
C      1  0.5667110000000  0.4996220000000  0.4586110000000 1.0
C      1  0.5755600000000  0.5123060000000  0.5791090000000 1.0
C      1  0.5714580000000  0.5648440000000  0.4556090000000 1.0
C      1  0.5693280000000  0.4256100000000  0.4698140000000 1.0
C      1  0.4568610000000  0.4828530000000  0.5770920000000 1.0
C      1  0.4674220000000  0.5789940000000  0.4780810000000 1.0
C      1  0.4661870000000  0.4432440000000  0.4467350000000 1.0
C      1  0.4693180000000  0.5652490000000  0.5685980000000 1.0
C      1  0.4704050000000  0.5260140000000  0.4021250000000 1.0
C      1  0.4657600000000  0.4031470000000  0.5256720000000 1.0
C      1  0.5081020000000  0.5906770000000  0.4767910000000 1.0
C      1  0.5145870000000  0.4308790000000  0.4357060000000 1.0
C      1  0.5136300000000  0.4791540000000  0.5893410000000 1.0
C      1  0.4659370000000  0.4130650000000  0.5702520000000 1.0
C      1  0.4627400000000  0.5993460000000  0.5491210000000 1.0
C      1  0.4638950000000  0.4866720000000  0.3840390000000 1.0
C      1  0.5219140000000  0.5259630000000  0.4305920000000 1.0
C      1  0.5264540000000  0.4368900000000  0.5158870000000 1.0
C      1  0.5324970000000  0.5457270000000  0.5636400000000 1.0
C      1  0.5770850000000  0.4734300000000  0.4463580000000 1.0
C      1  0.5804140000000  0.4682870000000  0.5471540000000 1.0
C      1  0.5796990000000  0.5515260000000  0.5101750000000 1.0
C      1  0.5510510000000  0.5078880000000  0.4936830000000 1.0
END
