TITL C-2622957-9142-417 -0.000898146145833601 125000 -789.831277235749 0 0 142 (C1) n - 1
REM
REM in /nfs/bkarasulu/CARBON/AIRSS/Generating-Clusters/AIREBO/with-SteepDescent/Higher-Symm/SD-CG/HFTN-CG
REM
REM
REM
REM
REM
REM ./C.cell (b20cbc046b6831c77cfcea5457e17084)
REM
REM compiler GCC version 9.2.1 20190827 (Red Hat 9.2.1-1)
REM options -cpp -mtune=generic -march=x86-64 -g -O0 -fpre-include=/usr/include/finclude/math-vector-fortran.h
REM seed 1924632446 1988268846 1658008094 -1353162712 -47520040 523609579 -2073057359 1466808720 -1431214064 -1845886937 -562596345 -2040930772 -461607085 -395948227 1728579130 -1520345065 -429721188 -84873764 418994094 2078634924 1183866532 -1907130745 631545767 845709544 -2129691873 -1731981075 -1985299395 1021869898 1637679828 -193472045 -230221285 1378424247 1790665259
REM
CELL 1.54180   50.00000   50.00000   50.00000   90.00000   90.00000   90.00000
LATT -1
SFAC C  
C      1  0.4870790000000  0.5476910000000  0.4803010000000 1.0
C      1  0.5340810000000  0.5454860000000  0.4848230000000 1.0
C      1  0.4941220000000  0.5435610000000  0.5325350000000 1.0
C      1  0.4719550000000  0.5463770000000  0.5100350000000 1.0
C      1  0.5192730000000  0.5475710000000  0.5153630000000 1.0
C      1  0.5136850000000  0.5541390000000  0.4639770000000 1.0
C      1  0.5189700000000  0.5121970000000  0.4371950000000 1.0
C      1  0.5414800000000  0.5100490000000  0.5442720000000 1.0
C      1  0.4337340000000  0.5107570000000  0.5173790000000 1.0
C      1  0.5196290000000  0.5146390000000  0.5667500000000 1.0
C      1  0.5483390000000  0.5185160000000  0.4492510000000 1.0
C      1  0.4366320000000  0.5165860000000  0.4854430000000 1.0
C      1  0.5232120000000  0.5050850000000  0.5996970000000 1.0
C      1  0.4051040000000  0.5054410000000  0.4701010000000 1.0
C      1  0.5734890000000  0.5061760000000  0.4294260000000 1.0
C      1  0.5173500000000  0.5079120000000  0.4031380000000 1.0
C      1  0.4026960000000  0.5056280000000  0.5303710000000 1.0
C      1  0.5706140000000  0.5031830000000  0.5604350000000 1.0
C      1  0.4445630000000  0.4207800000000  0.5133690000000 1.0
C      1  0.4992780000000  0.4211070000000  0.4435400000000 1.0
C      1  0.5549700000000  0.4188830000000  0.5314930000000 1.0
C      1  0.4446310000000  0.4155350000000  0.4795510000000 1.0
C      1  0.5019270000000  0.4193330000000  0.5621810000000 1.0
C      1  0.5479540000000  0.4201740000000  0.4714220000000 1.0
C      1  0.4818660000000  0.4933050000000  0.4359100000000 1.0
C      1  0.5615560000000  0.4931110000000  0.5145610000000 1.0
C      1  0.4468890000000  0.4984650000000  0.5540050000000 1.0
C      1  0.4737820000000  0.4954940000000  0.5716660000000 1.0
C      1  0.5788230000000  0.4976840000000  0.4858860000000 1.0
C      1  0.4536560000000  0.4998590000000  0.4500940000000 1.0
C      1  0.5662820000000  0.4405850000000  0.4859170000000 1.0
C      1  0.4798980000000  0.4408860000000  0.5538380000000 1.0
C      1  0.4571020000000  0.4405040000000  0.4628030000000 1.0
C      1  0.5754290000000  0.4310280000000  0.5144950000000 1.0
C      1  0.4756720000000  0.4351290000000  0.4377210000000 1.0
C      1  0.4497490000000  0.4359480000000  0.5433580000000 1.0
C      1  0.5514300000000  0.4368440000000  0.4448790000000 1.0
C      1  0.5240210000000  0.4349650000000  0.5769060000000 1.0
C      1  0.4245370000000  0.4413860000000  0.4858010000000 1.0
C      1  0.5546470000000  0.4296270000000  0.5629040000000 1.0
C      1  0.5220700000000  0.4336800000000  0.4286880000000 1.0
C      1  0.4173100000000  0.4392610000000  0.5190190000000 1.0
C      1  0.5261400000000  0.5791670000000  0.5126070000000 1.0
C      1  0.4745160000000  0.5796180000000  0.5168200000000 1.0
C      1  0.4988480000000  0.5839560000000  0.4683990000000 1.0
C      1  0.5273550000000  0.5871470000000  0.4833250000000 1.0
C      1  0.4731410000000  0.5775000000000  0.4851360000000 1.0
C      1  0.5004310000000  0.5853160000000  0.5306240000000 1.0
C      1  0.5744060000000  0.5225940000000  0.5257270000000 1.0
C      1  0.4341580000000  0.5299570000000  0.5558660000000 1.0
C      1  0.4750880000000  0.5242010000000  0.4230240000000 1.0
C      1  0.5847350000000  0.5285010000000  0.4753170000000 1.0
C      1  0.4401900000000  0.5288840000000  0.4431460000000 1.0
C      1  0.4800210000000  0.5271820000000  0.5824900000000 1.0
C      1  0.5037380000000  0.5307190000000  0.5995620000000 1.0
C      1  0.4138130000000  0.5307110000000  0.4557300000000 1.0
C      1  0.5861240000000  0.5307020000000  0.4461660000000 1.0
C      1  0.5012850000000  0.5342410000000  0.4100360000000 1.0
C      1  0.4097140000000  0.5342380000000  0.5387110000000 1.0
C      1  0.5747030000000  0.5343730000000  0.5559830000000 1.0
C      1  0.5272020000000  0.4193840000000  0.5172830000000 1.0
C      1  0.4775790000000  0.4209700000000  0.5192430000000 1.0
C      1  0.4995870000000  0.4166790000000  0.4740890000000 1.0
C      1  0.5264220000000  0.4111990000000  0.4874540000000 1.0
C      1  0.4749270000000  0.4099210000000  0.4897320000000 1.0
C      1  0.5021110000000  0.4125080000000  0.5330280000000 1.0
C      1  0.5442500000000  0.5117050000000  0.3893420000000 1.0
C      1  0.5702240000000  0.5007280000000  0.5914500000000 1.0
C      1  0.3788310000000  0.5043350000000  0.5116630000000 1.0
C      1  0.5525170000000  0.5078130000000  0.6074940000000 1.0
C      1  0.5666360000000  0.5129540000000  0.4001790000000 1.0
C      1  0.3811290000000  0.5084860000000  0.4871840000000 1.0
C      1  0.5114070000000  0.4584070000000  0.4075360000000 1.0
C      1  0.5731730000000  0.4539920000000  0.5468720000000 1.0
C      1  0.4197330000000  0.4620970000000  0.5442880000000 1.0
C      1  0.5060320000000  0.4583000000000  0.5950870000000 1.0
C      1  0.5807510000000  0.4548010000000  0.4497700000000 1.0
C      1  0.4233160000000  0.4613390000000  0.4581930000000 1.0
C      1  0.4666440000000  0.5159650000000  0.5243010000000 1.0
C      1  0.5001510000000  0.5129330000000  0.4655060000000 1.0
C      1  0.5306500000000  0.5177100000000  0.5129210000000 1.0
C      1  0.4701320000000  0.5202560000000  0.4800650000000 1.0
C      1  0.4951460000000  0.5137760000000  0.5432510000000 1.0
C      1  0.5315180000000  0.5128910000000  0.4786580000000 1.0
C      1  0.4977200000000  0.4843120000000  0.5526780000000 1.0
C      1  0.4698280000000  0.4868970000000  0.4770820000000 1.0
C      1  0.5498770000000  0.4842940000000  0.4774140000000 1.0
C      1  0.5040660000000  0.4799890000000  0.4579760000000 1.0
C      1  0.4595560000000  0.4827720000000  0.5266160000000 1.0
C      1  0.5285220000000  0.4856860000000  0.5110560000000 1.0
C      1  0.5875050000000  0.4650330000000  0.4814950000000 1.0
C      1  0.4777010000000  0.4619330000000  0.5789080000000 1.0
C      1  0.4524340000000  0.4669840000000  0.4419740000000 1.0
C      1  0.5780210000000  0.4649300000000  0.5150300000000 1.0
C      1  0.4818170000000  0.4625520000000  0.4237630000000 1.0
C      1  0.4491070000000  0.4651970000000  0.5607710000000 1.0
C      1  0.5299740000000  0.5416670000000  0.5832160000000 1.0
C      1  0.4133880000000  0.5410910000000  0.4861670000000 1.0
C      1  0.5616320000000  0.5469990000000  0.4362630000000 1.0
C      1  0.5194560000000  0.5459720000000  0.4341270000000 1.0
C      1  0.4091060000000  0.5519680000000  0.5168800000000 1.0
C      1  0.5591750000000  0.5519660000000  0.5705630000000 1.0
C      1  0.5071780000000  0.4498260000000  0.4733920000000 1.0
C      1  0.5252580000000  0.4528480000000  0.5192480000000 1.0
C      1  0.4725600000000  0.4541250000000  0.5135720000000 1.0
C      1  0.4965980000000  0.4596580000000  0.5330400000000 1.0
C      1  0.5358170000000  0.4549050000000  0.4869890000000 1.0
C      1  0.4768360000000  0.4543010000000  0.4825650000000 1.0
C      1  0.4762600000000  0.5574360000000  0.4305440000000 1.0
C      1  0.5697540000000  0.5550090000000  0.5162840000000 1.0
C      1  0.4508980000000  0.5573740000000  0.5543740000000 1.0
C      1  0.4797030000000  0.5506220000000  0.5612170000000 1.0
C      1  0.5652560000000  0.5526310000000  0.4862020000000 1.0
C      1  0.4519420000000  0.5576150000000  0.4460470000000 1.0
C      1  0.5182810000000  0.4665110000000  0.5659470000000 1.0
C      1  0.4407120000000  0.4712580000000  0.4843580000000 1.0
C      1  0.5521610000000  0.4703450000000  0.4506640000000 1.0
C      1  0.5255100000000  0.4662320000000  0.4369510000000 1.0
C      1  0.4349110000000  0.4671500000000  0.5144080000000 1.0
C      1  0.5404230000000  0.4556910000000  0.5470220000000 1.0
C      1  0.5008550000000  0.5744130000000  0.5569300000000 1.0
C      1  0.4478860000000  0.5728900000000  0.4695280000000 1.0
C      1  0.5509690000000  0.5781000000000  0.4695130000000 1.0
C      1  0.4952310000000  0.5773830000000  0.4372010000000 1.0
C      1  0.4484160000000  0.5753730000000  0.5326350000000 1.0
C      1  0.5527770000000  0.5745660000000  0.5280630000000 1.0
C      1  0.5875320000000  0.4796970000000  0.5508180000000 1.0
C      1  0.4014690000000  0.4826080000000  0.5503700000000 1.0
C      1  0.5016400000000  0.4829370000000  0.3941710000000 1.0
C      1  0.5863640000000  0.4781070000000  0.4314720000000 1.0
C      1  0.4032700000000  0.4806620000000  0.4531150000000 1.0
C      1  0.5115120000000  0.4794340000000  0.6130360000000 1.0
C      1  0.5246070000000  0.5711990000000  0.5698440000000 1.0
C      1  0.4259040000000  0.5706550000000  0.4861750000000 1.0
C      1  0.5493120000000  0.5713360000000  0.4420350000000 1.0
C      1  0.5242040000000  0.5783060000000  0.4264910000000 1.0
C      1  0.4252850000000  0.5774370000000  0.5170600000000 1.0
C      1  0.5513680000000  0.5773650000000  0.5559020000000 1.0
C      1  0.5979800000000  0.5291110000000  0.5048790000000 1.0
C      1  0.4478300000000  0.5232400000000  0.5852620000000 1.0
C      1  0.4442710000000  0.5205360000000  0.4106020000000 1.0
C      1  0.5006190000000  0.4848990000000  0.4914670000000 1.0
END
