TITL C-2622963-3633-146 -0.00104198498269488 125000 -499.3833282794 0 0 90 (C1) n - 1
REM
REM in /nfs/bkarasulu/CARBON/AIRSS/Generating-Clusters/AIREBO/with-SteepDescent/Higher-Symm/SD-CG/HFTN-CG
REM
REM
REM
REM
REM
REM ./C.cell (b20cbc046b6831c77cfcea5457e17084)
REM
REM compiler GCC version 9.2.1 20190827 (Red Hat 9.2.1-1)
REM options -cpp -mtune=generic -march=x86-64 -g -O0 -fpre-include=/usr/include/finclude/math-vector-fortran.h
REM seed 986170930 287197653 -1524578435 1115905490 -515795538 632193226 133223793 -142097978 1069151696 1985665303 1046397898 -101867871 -1457453142 -1806156390 292160296 -1975847347 324005180 -1378343789 1185021530 -1021993527 -1794175404 -666670024 -1682575939 881430979 -1367212493 -1663540860 1339354434 -983771450 -696942553 -1947534821 -1880340008 1042045693 660964600
REM
CELL 1.54180   50.00000   50.00000   50.00000   90.00000   90.00000   90.00000
LATT -1
SFAC C  
C      1  0.5641400000000  0.4702200000000  0.4499620000000 1.0
C      1  0.4915980000000  0.5673820000000  0.4610090000000 1.0
C      1  0.4465090000000  0.4599680000000  0.4541270000000 1.0
C      1  0.4904610000000  0.4598510000000  0.4273730000000 1.0
C      1  0.5391970000000  0.5093060000000  0.4250950000000 1.0
C      1  0.4714090000000  0.5296970000000  0.4318840000000 1.0
C      1  0.5170640000000  0.4511990000000  0.4354840000000 1.0
C      1  0.5349990000000  0.5409810000000  0.4367410000000 1.0
C      1  0.4515140000000  0.5103670000000  0.4396960000000 1.0
C      1  0.5860870000000  0.4577660000000  0.4328540000000 1.0
C      1  0.4999920000000  0.6001530000000  0.4572760000000 1.0
C      1  0.4271160000000  0.4455200000000  0.4354650000000 1.0
C      1  0.5197010000000  0.4505750000000  0.5480050000000 1.0
C      1  0.5318150000000  0.5338530000000  0.5527330000000 1.0
C      1  0.4422370000000  0.5051930000000  0.5537990000000 1.0
C      1  0.5226320000000  0.5351590000000  0.5138780000000 1.0
C      1  0.4754150000000  0.4954180000000  0.5220700000000 1.0
C      1  0.5233400000000  0.4716400000000  0.5134810000000 1.0
C      1  0.4324210000000  0.5365410000000  0.5528970000000 1.0
C      1  0.4931580000000  0.4324030000000  0.5556190000000 1.0
C      1  0.5574140000000  0.5211810000000  0.5495430000000 1.0
C      1  0.5226500000000  0.5905250000000  0.4702820000000 1.0
C      1  0.4001780000000  0.4691790000000  0.4769510000000 1.0
C      1  0.5771600000000  0.4283140000000  0.4785920000000 1.0
C      1  0.4229260000000  0.5735450000000  0.4867940000000 1.0
C      1  0.4694060000000  0.4117580000000  0.5032020000000 1.0
C      1  0.5880250000000  0.5223630000000  0.4953040000000 1.0
C      1  0.4929430000000  0.4683850000000  0.5227940000000 1.0
C      1  0.5362670000000  0.5094670000000  0.5134750000000 1.0
C      1  0.4825100000000  0.5238030000000  0.5202150000000 1.0
C      1  0.5573660000000  0.5649430000000  0.4880550000000 1.0
C      1  0.4251550000000  0.5211180000000  0.4995690000000 1.0
C      1  0.5162670000000  0.4231570000000  0.4933390000000 1.0
C      1  0.5565950000000  0.4515280000000  0.4756870000000 1.0
C      1  0.5222020000000  0.5568800000000  0.4710020000000 1.0
C      1  0.4304900000000  0.4752450000000  0.4783110000000 1.0
C      1  0.4839260000000  0.4963540000000  0.4575440000000 1.0
C      1  0.5153260000000  0.4875370000000  0.4512590000000 1.0
C      1  0.5061330000000  0.5177410000000  0.4507170000000 1.0
C      1  0.4480510000000  0.5829670000000  0.4924910000000 1.0
C      1  0.4563060000000  0.4346940000000  0.4935420000000 1.0
C      1  0.5809360000000  0.4949600000000  0.4895140000000 1.0
C      1  0.4352280000000  0.5078040000000  0.4695430000000 1.0
C      1  0.5275150000000  0.4373750000000  0.4647990000000 1.0
C      1  0.5511390000000  0.5643990000000  0.4555960000000 1.0
C      1  0.4868190000000  0.5257870000000  0.5726780000000 1.0
C      1  0.4796800000000  0.4766660000000  0.5748900000000 1.0
C      1  0.5249890000000  0.4944040000000  0.5778470000000 1.0
C      1  0.5266480000000  0.5237100000000  0.4758590000000 1.0
C      1  0.4717380000000  0.5092340000000  0.4848080000000 1.0
C      1  0.5067500000000  0.4693380000000  0.4758610000000 1.0
C      1  0.4786630000000  0.4456190000000  0.5341060000000 1.0
C      1  0.5605510000000  0.4965010000000  0.5262030000000 1.0
C      1  0.4629460000000  0.5425010000000  0.5238210000000 1.0
C      1  0.5185350000000  0.4385570000000  0.5160010000000 1.0
C      1  0.5403570000000  0.5626550000000  0.5092810000000 1.0
C      1  0.4287910000000  0.5206800000000  0.5257460000000 1.0
C      1  0.4479210000000  0.4547550000000  0.5397680000000 1.0
C      1  0.5621390000000  0.4773120000000  0.5535510000000 1.0
C      1  0.4903330000000  0.5654680000000  0.5413320000000 1.0
C      1  0.5260810000000  0.4924980000000  0.4893340000000 1.0
C      1  0.4982460000000  0.5284960000000  0.4939300000000 1.0
C      1  0.4879110000000  0.4823380000000  0.4945730000000 1.0
C      1  0.4627700000000  0.4541360000000  0.5697030000000 1.0
C      1  0.5536250000000  0.4914030000000  0.5759500000000 1.0
C      1  0.4772360000000  0.5521980000000  0.5635110000000 1.0
C      1  0.4425500000000  0.4606120000000  0.5066930000000 1.0
C      1  0.5619540000000  0.4713450000000  0.5031130000000 1.0
C      1  0.4712900000000  0.5718670000000  0.5138900000000 1.0
C      1  0.5082660000000  0.4725350000000  0.5713930000000 1.0
C      1  0.5147380000000  0.5201740000000  0.5702920000000 1.0
C      1  0.4690150000000  0.5029280000000  0.5709650000000 1.0
C      1  0.5195220000000  0.5589970000000  0.5360470000000 1.0
C      1  0.4473550000000  0.4855420000000  0.5294230000000 1.0
C      1  0.5483690000000  0.4590610000000  0.5317830000000 1.0
C      1  0.4939800000000  0.4427050000000  0.4666960000000 1.0
C      1  0.5552060000000  0.5242720000000  0.4584140000000 1.0
C      1  0.4546480000000  0.5348570000000  0.4764660000000 1.0
C      1  0.4746720000000  0.4273580000000  0.5785030000000 1.0
C      1  0.5707110000000  0.5165620000000  0.5770690000000 1.0
C      1  0.4488500000000  0.5553240000000  0.5652960000000 1.0
C      1  0.5727290000000  0.5407360000000  0.4794110000000 1.0
C      1  0.4227140000000  0.5456960000000  0.4805390000000 1.0
C      1  0.4949570000000  0.4045330000000  0.4941850000000 1.0
C      1  0.4660900000000  0.4415600000000  0.4683670000000 1.0
C      1  0.5711430000000  0.4971860000000  0.4619510000000 1.0
C      1  0.4707680000000  0.5616350000000  0.4811160000000 1.0
C      1  0.5007700000000  0.5456610000000  0.4384410000000 1.0
C      1  0.4650690000000  0.4791590000000  0.4393570000000 1.0
C      1  0.5389820000000  0.4770280000000  0.4342680000000 1.0
END
