TITL C-2622961-1971-384 0.000352841579045741 125000 -335.682465073457 0 0 61 (C1) n - 1
REM
REM in /nfs/bkarasulu/CARBON/AIRSS/Generating-Clusters/AIREBO/with-SteepDescent/Higher-Symm/SD-CG/HFTN-CG
REM
REM
REM
REM
REM
REM ./C.cell (b20cbc046b6831c77cfcea5457e17084)
REM
REM compiler GCC version 9.2.1 20190827 (Red Hat 9.2.1-1)
REM options -cpp -mtune=generic -march=x86-64 -g -O0 -fpre-include=/usr/include/finclude/math-vector-fortran.h
REM seed 3498151 1930619671 -723475248 1369599598 1361766077 519504120 1928933061 -190706701 -1282164344 -328046114 -583989720 -815718575 1556338466 1089932655 -1909168717 -1922724962 -1862004114 809093612 -210156763 -1932048226 117315090 -237396133 -1553328064 -1304929422 742846922 -1551637342 1282440046 1134169993 -1880537006 1592954611 -175870345 -631392331 -326252849
REM
CELL 1.54180   50.00000   50.00000   50.00000   90.00000   90.00000   90.00000
LATT -1
SFAC C  
C      1  0.4663650000000  0.5362600000000  0.5208230000000 1.0
C      1  0.5338460000000  0.4611940000000  0.4828000000000 1.0
C      1  0.4770590000000  0.5614410000000  0.5410220000000 1.0
C      1  0.5257800000000  0.4393390000000  0.4580280000000 1.0
C      1  0.4714730000000  0.5366490000000  0.5604420000000 1.0
C      1  0.5333370000000  0.4668810000000  0.4432770000000 1.0
C      1  0.5559480000000  0.4792900000000  0.4551070000000 1.0
C      1  0.4480690000000  0.5219570000000  0.5531390000000 1.0
C      1  0.5419260000000  0.4770380000000  0.5380490000000 1.0
C      1  0.4596560000000  0.5074100000000  0.4679900000000 1.0
C      1  0.5177400000000  0.4644010000000  0.5397200000000 1.0
C      1  0.4810520000000  0.5241360000000  0.4617900000000 1.0
C      1  0.4841660000000  0.4940820000000  0.4355960000000 1.0
C      1  0.5139770000000  0.5050580000000  0.5599880000000 1.0
C      1  0.5362700000000  0.5365310000000  0.4239100000000 1.0
C      1  0.4499900000000  0.4851490000000  0.5684980000000 1.0
C      1  0.5006980000000  0.5332000000000  0.5566030000000 1.0
C      1  0.5037760000000  0.4694510000000  0.4435840000000 1.0
C      1  0.4312410000000  0.4795380000000  0.4713340000000 1.0
C      1  0.5629940000000  0.5333090000000  0.5256470000000 1.0
C      1  0.5081820000000  0.5082100000000  0.4548580000000 1.0
C      1  0.4941760000000  0.4835500000000  0.5461310000000 1.0
C      1  0.5255060000000  0.5207240000000  0.5032980000000 1.0
C      1  0.4784410000000  0.4769270000000  0.4990580000000 1.0
C      1  0.5165030000000  0.5508880000000  0.5411660000000 1.0
C      1  0.4870430000000  0.4488990000000  0.4552980000000 1.0
C      1  0.4827600000000  0.5049290000000  0.4073090000000 1.0
C      1  0.5234990000000  0.4964460000000  0.5874730000000 1.0
C      1  0.5482200000000  0.4980620000000  0.5145490000000 1.0
C      1  0.4582520000000  0.4987760000000  0.4943190000000 1.0
C      1  0.4606740000000  0.4525200000000  0.4447340000000 1.0
C      1  0.5459190000000  0.5488980000000  0.5470130000000 1.0
C      1  0.5347310000000  0.5521470000000  0.4940390000000 1.0
C      1  0.4640750000000  0.4461800000000  0.5014820000000 1.0
C      1  0.4516540000000  0.4212670000000  0.5058540000000 1.0
C      1  0.5432470000000  0.5779990000000  0.4868240000000 1.0
C      1  0.3856560000000  0.5481980000000  0.5090460000000 1.0
C      1  0.6118660000000  0.4522130000000  0.5057080000000 1.0
C      1  0.5894110000000  0.4585570000000  0.4937770000000 1.0
C      1  0.4093390000000  0.5418760000000  0.5183190000000 1.0
C      1  0.4481920000000  0.5011300000000  0.5260560000000 1.0
C      1  0.5511240000000  0.4994070000000  0.4816910000000 1.0
C      1  0.4480880000000  0.4674340000000  0.5226690000000 1.0
C      1  0.5486700000000  0.5303950000000  0.4725510000000 1.0
C      1  0.4305220000000  0.4699940000000  0.4942960000000 1.0
C      1  0.5690800000000  0.5325410000000  0.4996620000000 1.0
C      1  0.4536120000000  0.4838630000000  0.4468710000000 1.0
C      1  0.5371980000000  0.5166200000000  0.5408300000000 1.0
C      1  0.4641440000000  0.4732760000000  0.5498310000000 1.0
C      1  0.5317990000000  0.5260880000000  0.4472930000000 1.0
C      1  0.5131380000000  0.4423900000000  0.4958490000000 1.0
C      1  0.4857360000000  0.5526300000000  0.5030040000000 1.0
C      1  0.4892550000000  0.4423880000000  0.4825030000000 1.0
C      1  0.5104140000000  0.5557340000000  0.5142610000000 1.0
C      1  0.4813480000000  0.5061950000000  0.5260930000000 1.0
C      1  0.5192940000000  0.4902930000000  0.4781710000000 1.0
C      1  0.5666150000000  0.4627550000000  0.4802580000000 1.0
C      1  0.4336460000000  0.5378220000000  0.5288930000000 1.0
C      1  0.4821720000000  0.5487970000000  0.4753490000000 1.0
C      1  0.5145390000000  0.4413650000000  0.5239410000000 1.0
C      1  0.5014860000000  0.4994770000000  0.5025630000000 1.0
END
