TITL C-2622968-4806-228 0.0199833568853121 125000 -671.552926841873 0 0 122 (C1) n - 1
REM
REM in /nfs/bkarasulu/CARBON/AIRSS/Generating-Clusters/AIREBO/with-SteepDescent/Higher-Symm/SD-CG/HFTN-CG
REM
REM
REM
REM
REM
REM ./C.cell (b20cbc046b6831c77cfcea5457e17084)
REM
REM compiler GCC version 9.2.1 20190827 (Red Hat 9.2.1-1)
REM options -cpp -mtune=generic -march=x86-64 -g -O0 -fpre-include=/usr/include/finclude/math-vector-fortran.h
REM seed -910635589 1341234920 -1880807057 -855365273 238421557 754268691 1010364885 1508404202 1601701200 -1197825481 -2114279655 -594873926 1812201553 1377908768 63104956 2072484464 234130065 -263509170 1133751401 1860428972 1603914920 723221518 1343500962 -749266443 -840326057 636818891 -291083246 122440134 -1998548401 -1419437768 -1461309408 539537587 71063410
REM
CELL 1.54180   50.00000   50.00000   50.00000   90.00000   90.00000   90.00000
LATT -1
SFAC C  
C      1  0.5764470000000  0.5403160000000  0.4926070000000 1.0
C      1  0.5732530000000  0.5211200000000  0.4670040000000 1.0
C      1  0.5679090000000  0.4904510000000  0.4736420000000 1.0
C      1  0.5710090000000  0.4722200000000  0.4989330000000 1.0
C      1  0.5767540000000  0.4772420000000  0.5283510000000 1.0
C      1  0.5805950000000  0.5025990000000  0.5394960000000 1.0
C      1  0.5710450000000  0.5247320000000  0.5223450000000 1.0
C      1  0.4788310000000  0.4405970000000  0.4206200000000 1.0
C      1  0.4847520000000  0.4124500000000  0.4922500000000 1.0
C      1  0.4749610000000  0.4371430000000  0.5764490000000 1.0
C      1  0.4806720000000  0.5154230000000  0.5937380000000 1.0
C      1  0.4868880000000  0.5763770000000  0.5469270000000 1.0
C      1  0.4731440000000  0.5894160000000  0.4664880000000 1.0
C      1  0.4759540000000  0.5362390000000  0.4155190000000 1.0
C      1  0.5360130000000  0.5015990000000  0.4698310000000 1.0
C      1  0.5277050000000  0.4694830000000  0.4622810000000 1.0
C      1  0.5375220000000  0.4680070000000  0.4948140000000 1.0
C      1  0.5297440000000  0.4753370000000  0.5275830000000 1.0
C      1  0.5273260000000  0.5043240000000  0.5462120000000 1.0
C      1  0.5401490000000  0.5242070000000  0.5217910000000 1.0
C      1  0.5345260000000  0.5347460000000  0.4623720000000 1.0
C      1  0.4511240000000  0.4601760000000  0.4261830000000 1.0
C      1  0.4445390000000  0.4275250000000  0.4749820000000 1.0
C      1  0.4499440000000  0.4290810000000  0.5546150000000 1.0
C      1  0.4458880000000  0.4929420000000  0.5751850000000 1.0
C      1  0.4553880000000  0.5547080000000  0.5579200000000 1.0
C      1  0.4508490000000  0.5773590000000  0.4968080000000 1.0
C      1  0.4359210000000  0.5432230000000  0.4434210000000 1.0
C      1  0.5388720000000  0.5625220000000  0.5434430000000 1.0
C      1  0.5395140000000  0.5779890000000  0.4755880000000 1.0
C      1  0.5360100000000  0.5301080000000  0.4228740000000 1.0
C      1  0.5308530000000  0.4478040000000  0.4177890000000 1.0
C      1  0.5325340000000  0.4190580000000  0.4901080000000 1.0
C      1  0.5359570000000  0.4441710000000  0.5556130000000 1.0
C      1  0.5311590000000  0.5096140000000  0.5991300000000 1.0
C      1  0.4520060000000  0.4599270000000  0.5687750000000 1.0
C      1  0.4613480000000  0.5223130000000  0.5665670000000 1.0
C      1  0.4635930000000  0.5667380000000  0.5267020000000 1.0
C      1  0.4503530000000  0.5655790000000  0.4646030000000 1.0
C      1  0.4546610000000  0.5255820000000  0.4305490000000 1.0
C      1  0.4607280000000  0.4396440000000  0.4498620000000 1.0
C      1  0.4597780000000  0.4233390000000  0.4990510000000 1.0
C      1  0.4596270000000  0.5243710000000  0.5326370000000 1.0
C      1  0.4656830000000  0.5413100000000  0.5042190000000 1.0
C      1  0.4637190000000  0.5356530000000  0.4708580000000 1.0
C      1  0.4558240000000  0.4972130000000  0.4449380000000 1.0
C      1  0.4590160000000  0.4739140000000  0.4703850000000 1.0
C      1  0.4519030000000  0.4447910000000  0.5245220000000 1.0
C      1  0.4484910000000  0.4753810000000  0.5393540000000 1.0
C      1  0.5664760000000  0.4706360000000  0.4472660000000 1.0
C      1  0.5755420000000  0.4410160000000  0.4985660000000 1.0
C      1  0.5651230000000  0.4583500000000  0.5451560000000 1.0
C      1  0.5715900000000  0.5029920000000  0.5668240000000 1.0
C      1  0.5631810000000  0.5567580000000  0.5197990000000 1.0
C      1  0.5722330000000  0.5688580000000  0.4794470000000 1.0
C      1  0.5653970000000  0.5253220000000  0.4394260000000 1.0
C      1  0.4340240000000  0.5211360000000  0.4768650000000 1.0
C      1  0.4253050000000  0.4936380000000  0.4588400000000 1.0
C      1  0.4294240000000  0.4725640000000  0.4832020000000 1.0
C      1  0.4225200000000  0.4540700000000  0.5101200000000 1.0
C      1  0.4219980000000  0.4933690000000  0.5418350000000 1.0
C      1  0.4276540000000  0.5203270000000  0.5287980000000 1.0
C      1  0.4222890000000  0.5334850000000  0.5018560000000 1.0
C      1  0.5299240000000  0.5736760000000  0.5045140000000 1.0
C      1  0.5391100000000  0.5574130000000  0.4412920000000 1.0
C      1  0.5300780000000  0.4780880000000  0.4294520000000 1.0
C      1  0.5330650000000  0.4358860000000  0.4631840000000 1.0
C      1  0.5274630000000  0.4414590000000  0.5227940000000 1.0
C      1  0.5297400000000  0.4881300000000  0.5760770000000 1.0
C      1  0.5338600000000  0.5348420000000  0.5597990000000 1.0
C      1  0.5119760000000  0.4199430000000  0.4480860000000 1.0
C      1  0.5082610000000  0.4155580000000  0.5336000000000 1.0
C      1  0.5044700000000  0.4717470000000  0.5815380000000 1.0
C      1  0.5119750000000  0.5452390000000  0.5797460000000 1.0
C      1  0.5087220000000  0.5966250000000  0.5119170000000 1.0
C      1  0.5131430000000  0.5734250000000  0.4409290000000 1.0
C      1  0.5037250000000  0.4913330000000  0.4175810000000 1.0
C      1  0.4811660000000  0.4485660000000  0.4755400000000 1.0
C      1  0.4823870000000  0.4489510000000  0.5390120000000 1.0
C      1  0.4750560000000  0.4895400000000  0.5483790000000 1.0
C      1  0.4905200000000  0.5383750000000  0.5350870000000 1.0
C      1  0.4875750000000  0.5612010000000  0.4901900000000 1.0
C      1  0.4893810000000  0.5323140000000  0.4525760000000 1.0
C      1  0.4817790000000  0.4824000000000  0.4388420000000 1.0
C      1  0.4885130000000  0.5514300000000  0.5648460000000 1.0
C      1  0.4808060000000  0.5932500000000  0.4993910000000 1.0
C      1  0.4922030000000  0.5577990000000  0.4318140000000 1.0
C      1  0.4778430000000  0.4710330000000  0.4081620000000 1.0
C      1  0.4904170000000  0.4178380000000  0.4642790000000 1.0
C      1  0.4820130000000  0.4166600000000  0.5496560000000 1.0
C      1  0.4792030000000  0.4873070000000  0.5790130000000 1.0
C      1  0.5515490000000  0.4999740000000  0.4254330000000 1.0
C      1  0.5533490000000  0.4477150000000  0.4407190000000 1.0
C      1  0.5543910000000  0.4271490000000  0.5077520000000 1.0
C      1  0.5531220000000  0.4681200000000  0.5725810000000 1.0
C      1  0.5535860000000  0.5200220000000  0.5796590000000 1.0
C      1  0.5524700000000  0.5880280000000  0.5255350000000 1.0
C      1  0.5616850000000  0.5765400000000  0.4498470000000 1.0
C      1  0.5125530000000  0.5839050000000  0.5387910000000 1.0
C      1  0.5060670000000  0.5819790000000  0.4706240000000 1.0
C      1  0.5054340000000  0.5213760000000  0.4236550000000 1.0
C      1  0.5078640000000  0.4318500000000  0.4234500000000 1.0
C      1  0.5094800000000  0.4105300000000  0.5049230000000 1.0
C      1  0.5048520000000  0.4458910000000  0.5643570000000 1.0
C      1  0.5069060000000  0.5253910000000  0.5987080000000 1.0
C      1  0.4287210000000  0.5416690000000  0.5532420000000 1.0
C      1  0.4222440000000  0.5616420000000  0.5012800000000 1.0
C      1  0.4124760000000  0.5238460000000  0.4499060000000 1.0
C      1  0.4263860000000  0.4739930000000  0.4310960000000 1.0
C      1  0.4203430000000  0.4412520000000  0.4803760000000 1.0
C      1  0.4052660000000  0.4698530000000  0.5294630000000 1.0
C      1  0.4157780000000  0.4970450000000  0.5745180000000 1.0
C      1  0.4978500000000  0.4824820000000  0.4632980000000 1.0
C      1  0.5084460000000  0.4504100000000  0.4960440000000 1.0
C      1  0.4972140000000  0.4672350000000  0.5218920000000 1.0
C      1  0.4954040000000  0.5074860000000  0.5370840000000 1.0
C      1  0.5172600000000  0.5448740000000  0.5150950000000 1.0
C      1  0.5123340000000  0.5427130000000  0.4835550000000 1.0
C      1  0.5035350000000  0.5123080000000  0.4711280000000 1.0
C      1  0.5280250000000  0.5056790000000  0.5016620000000 1.0
C      1  0.4812460000000  0.4854950000000  0.4903180000000 1.0
C      1  0.5012940000000  0.4966220000000  0.5095230000000 1.0
END
