TITL C-2622962-9663-823 109577.675959773 125000 -738.233667732231 0 0 136 (C1) n - 1
REM
REM in /nfs/bkarasulu/CARBON/AIRSS/Generating-Clusters/AIREBO/with-SteepDescent/Higher-Symm/SD-CG/HFTN-CG
REM
REM
REM
REM
REM
REM ./C.cell (b20cbc046b6831c77cfcea5457e17084)
REM
REM compiler GCC version 9.2.1 20190827 (Red Hat 9.2.1-1)
REM options -cpp -mtune=generic -march=x86-64 -g -O0 -fpre-include=/usr/include/finclude/math-vector-fortran.h
REM seed -1986891769 776468493 -287465820 866721463 -2126692230 -1277865480 -637150125 -2083484468 1327165541 -779780566 -493387958 -411836478 923690765 -888599387 -1720712268 -443493077 369720367 -2074057082 1727433160 -2047491129 801428485 800459889 1263794071 -1522689800 1984775748 -800688937 -1153794497 1209259741 1222133763 -1724643018 -365062329 -262108914 -628679607
REM
CELL 1.54180   50.00000   50.00000   50.00000   90.00000   90.00000   90.00000
LATT -1
SFAC C  
C      1  0.4319560000000  0.5296770000000  0.5614690000000 1.0
C      1  0.5682220000000  0.4737220000000  0.4342830000000 1.0
C      1  0.5095240000000  0.4384360000000  0.5651030000000 1.0
C      1  0.5008210000000  0.5644130000000  0.4339110000000 1.0
C      1  0.3929360000000  0.5221910000000  0.5090270000000 1.0
C      1  0.5975950000000  0.4820450000000  0.5050390000000 1.0
C      1  0.5064480000000  0.5276130000000  0.5661870000000 1.0
C      1  0.4824460000000  0.4866660000000  0.4304800000000 1.0
C      1  0.4309640000000  0.5766800000000  0.5458230000000 1.0
C      1  0.5660580000000  0.4262630000000  0.4554650000000 1.0
C      1  0.5856070000000  0.5298680000000  0.5531780000000 1.0
C      1  0.4033280000000  0.4704430000000  0.4470320000000 1.0
C      1  0.4061070000000  0.4668380000000  0.5121550000000 1.0
C      1  0.6030180000000  0.5350880000000  0.4859740000000 1.0
C      1  0.5227470000000  0.5337350000000  0.5954030000000 1.0
C      1  0.4580740000000  0.4543480000000  0.4058740000000 1.0
C      1  0.5651030000000  0.5110520000000  0.4821520000000 1.0
C      1  0.4313090000000  0.4940720000000  0.5265340000000 1.0
C      1  0.5569300000000  0.4194850000000  0.5416710000000 1.0
C      1  0.4531280000000  0.5873450000000  0.4549460000000 1.0
C      1  0.5087730000000  0.5868530000000  0.4804700000000 1.0
C      1  0.5035200000000  0.4088400000000  0.5239280000000 1.0
C      1  0.5031520000000  0.5917970000000  0.5286400000000 1.0
C      1  0.5078130000000  0.4010600000000  0.4712780000000 1.0
C      1  0.5522380000000  0.5546810000000  0.4953890000000 1.0
C      1  0.4533340000000  0.4541960000000  0.5006340000000 1.0
C      1  0.5112520000000  0.4194180000000  0.4439890000000 1.0
C      1  0.4796100000000  0.5843960000000  0.5489140000000 1.0
C      1  0.5542010000000  0.4702920000000  0.4853150000000 1.0
C      1  0.4456730000000  0.5333930000000  0.5137490000000 1.0
C      1  0.4869380000000  0.4383760000000  0.4459470000000 1.0
C      1  0.5070130000000  0.5675890000000  0.5600080000000 1.0
C      1  0.5394490000000  0.5207130000000  0.5617740000000 1.0
C      1  0.4541780000000  0.4831420000000  0.4470460000000 1.0
C      1  0.4814800000000  0.5107020000000  0.5719940000000 1.0
C      1  0.5100590000000  0.4894010000000  0.4108250000000 1.0
C      1  0.5028980000000  0.5042880000000  0.4471170000000 1.0
C      1  0.5220900000000  0.4835810000000  0.5489320000000 1.0
C      1  0.5086300000000  0.5278720000000  0.5323240000000 1.0
C      1  0.4957790000000  0.4636560000000  0.4662440000000 1.0
C      1  0.5289010000000  0.4869290000000  0.4391950000000 1.0
C      1  0.4671220000000  0.5010870000000  0.5427270000000 1.0
C      1  0.4852990000000  0.4855220000000  0.5062620000000 1.0
C      1  0.5123880000000  0.5160550000000  0.4934440000000 1.0
C      1  0.5108960000000  0.4776800000000  0.6006500000000 1.0
C      1  0.4770760000000  0.5269920000000  0.4007250000000 1.0
C      1  0.5373270000000  0.4973490000000  0.4873750000000 1.0
C      1  0.4557830000000  0.5022960000000  0.5043940000000 1.0
C      1  0.5766250000000  0.4975450000000  0.4570460000000 1.0
C      1  0.4294900000000  0.5026720000000  0.5559290000000 1.0
C      1  0.4545830000000  0.5736740000000  0.5079610000000 1.0
C      1  0.5522230000000  0.4280750000000  0.4863620000000 1.0
C      1  0.4565220000000  0.4714620000000  0.5297590000000 1.0
C      1  0.5432070000000  0.5341820000000  0.4732210000000 1.0
C      1  0.4871150000000  0.5552310000000  0.4701560000000 1.0
C      1  0.5166690000000  0.4461990000000  0.5241310000000 1.0
C      1  0.5316410000000  0.4169300000000  0.5328860000000 1.0
C      1  0.4789480000000  0.5860040000000  0.4641570000000 1.0
C      1  0.4581820000000  0.4308100000000  0.4627840000000 1.0
C      1  0.5368640000000  0.5722370000000  0.5452590000000 1.0
C      1  0.5304330000000  0.5496470000000  0.5209620000000 1.0
C      1  0.4802610000000  0.4422550000000  0.4850130000000 1.0
C      1  0.5364020000000  0.4527540000000  0.5499550000000 1.0
C      1  0.4692330000000  0.5535250000000  0.4412640000000 1.0
C      1  0.4534880000000  0.5854400000000  0.5332290000000 1.0
C      1  0.5380710000000  0.4091130000000  0.4622870000000 1.0
C      1  0.4742210000000  0.4741580000000  0.4014540000000 1.0
C      1  0.5385920000000  0.5124490000000  0.6036590000000 1.0
C      1  0.4294210000000  0.5654550000000  0.4968410000000 1.0
C      1  0.5749640000000  0.4377740000000  0.5034240000000 1.0
C      1  0.5636380000000  0.5731480000000  0.5286720000000 1.0
C      1  0.4325550000000  0.4270080000000  0.4786610000000 1.0
C      1  0.4110160000000  0.4495520000000  0.5331280000000 1.0
C      1  0.5806370000000  0.5475470000000  0.4776710000000 1.0
C      1  0.5155690000000  0.4765770000000  0.4984490000000 1.0
C      1  0.4800380000000  0.5213760000000  0.4895180000000 1.0
C      1  0.4462610000000  0.4235680000000  0.5095870000000 1.0
C      1  0.5575760000000  0.5867210000000  0.4980560000000 1.0
C      1  0.5435450000000  0.5817940000000  0.4673800000000 1.0
C      1  0.4593080000000  0.4209720000000  0.5375280000000 1.0
C      1  0.4254830000000  0.4644950000000  0.4895820000000 1.0
C      1  0.5739010000000  0.5251570000000  0.5113080000000 1.0
C      1  0.4584280000000  0.5355650000000  0.5747200000000 1.0
C      1  0.5477020000000  0.4564870000000  0.4195840000000 1.0
C      1  0.4079790000000  0.5457810000000  0.5111140000000 1.0
C      1  0.5933250000000  0.4580750000000  0.4876040000000 1.0
C      1  0.4599800000000  0.5314260000000  0.4213170000000 1.0
C      1  0.5307700000000  0.4618300000000  0.5820660000000 1.0
C      1  0.5078020000000  0.5708190000000  0.5069220000000 1.0
C      1  0.4998520000000  0.4191360000000  0.4946060000000 1.0
C      1  0.4134120000000  0.5369160000000  0.4417090000000 1.0
C      1  0.5845160000000  0.4696670000000  0.5636280000000 1.0
C      1  0.5742740000000  0.5012380000000  0.5620870000000 1.0
C      1  0.4103970000000  0.5029720000000  0.4422130000000 1.0
C      1  0.4562110000000  0.4593500000000  0.5678640000000 1.0
C      1  0.5459550000000  0.5341040000000  0.4334250000000 1.0
C      1  0.4441720000000  0.4866590000000  0.4792710000000 1.0
C      1  0.5498030000000  0.5237220000000  0.5314400000000 1.0
C      1  0.5295620000000  0.4627400000000  0.4631120000000 1.0
C      1  0.4756710000000  0.5315950000000  0.5296800000000 1.0
C      1  0.5139160000000  0.5338430000000  0.4344130000000 1.0
C      1  0.4851430000000  0.4590490000000  0.5606360000000 1.0
C      1  0.4876170000000  0.4925900000000  0.4730830000000 1.0
C      1  0.5182550000000  0.5002050000000  0.5228080000000 1.0
C      1  0.5464320000000  0.4920570000000  0.5793360000000 1.0
C      1  0.4422260000000  0.5109430000000  0.4326410000000 1.0
C      1  0.5684090000000  0.4499660000000  0.5450380000000 1.0
C      1  0.4378330000000  0.5572810000000  0.4537630000000 1.0
C      1  0.4260450000000  0.5470960000000  0.5379160000000 1.0
C      1  0.5731980000000  0.4576780000000  0.4613510000000 1.0
C      1  0.5333740000000  0.4412620000000  0.4390300000000 1.0
C      1  0.4768250000000  0.5522010000000  0.5558120000000 1.0
C      1  0.5353670000000  0.5536350000000  0.5726170000000 1.0
C      1  0.4566950000000  0.4508050000000  0.4368210000000 1.0
C      1  0.5225310000000  0.4441860000000  0.4907590000000 1.0
C      1  0.4793820000000  0.5525390000000  0.5031320000000 1.0
C      1  0.5999700000000  0.5086970000000  0.5015080000000 1.0
C      1  0.4014530000000  0.4962610000000  0.5150290000000 1.0
C      1  0.4136370000000  0.4514790000000  0.4644730000000 1.0
C      1  0.5797730000000  0.5499600000000  0.5325050000000 1.0
C      1  0.5025550000000  0.5197550000000  0.4066370000000 1.0
C      1  0.4989450000000  0.4840960000000  0.5729760000000 1.0
C      1  0.4890270000000  0.4614720000000  0.5289610000000 1.0
C      1  0.5115460000000  0.5370970000000  0.4681750000000 1.0
C      1  0.5324430000000  0.4689220000000  0.4007170000000 1.0
C      1  0.4681550000000  0.5177580000000  0.6024730000000 1.0
C      1  0.5677590000000  0.4683550000000  0.5164410000000 1.0
C      1  0.4355040000000  0.5371790000000  0.4810960000000 1.0
C      1  0.4330410000000  0.5116510000000  0.4653700000000 1.0
C      1  0.5535490000000  0.4905850000000  0.5380730000000 1.0
C      1  0.4500300000000  0.4864450000000  0.5682240000000 1.0
C      1  0.5550460000000  0.5052760000000  0.4347700000000 1.0
C      1  0.5589060000000  0.5568890000000  0.4543150000000 1.0
C      1  0.4403250000000  0.4457680000000  0.5450560000000 1.0
C      1  0.4876130000000  0.4226470000000  0.5442870000000 1.0
C      1  0.5157900000000  0.5826480000000  0.4491210000000 1.0
END
