TITL C-2622960-5345-40 0.00559658882011005 125000 -516.852532508987 0 0 103 (C1) n - 1
REM
REM in /nfs/bkarasulu/CARBON/AIRSS/Generating-Clusters/AIREBO/with-SteepDescent/Higher-Symm/SD-CG/HFTN-CG
REM
REM
REM
REM
REM
REM ./C.cell (b20cbc046b6831c77cfcea5457e17084)
REM
REM compiler GCC version 9.2.1 20190827 (Red Hat 9.2.1-1)
REM options -cpp -mtune=generic -march=x86-64 -g -O0 -fpre-include=/usr/include/finclude/math-vector-fortran.h
REM seed -1544713797 748098897 514440411 -1679307009 -2056727313 -1216066130 -598469613 1089514237 1779047875 -898255995 -569538164 -83273245 -2075313582 -815000439 -1663041553 -811870164 -1944445827 -1495276568 1690168192 527874021 -1111537771 1822503321 1532918012 1299621487 -2030719515 -2133974546 -1993882402 641745312 1629086245 -1630364593 111360950 1217201672 1556476780
REM
CELL 1.54180   50.00000   50.00000   50.00000   90.00000   90.00000   90.00000
LATT -1
SFAC C  
C      1  0.4588570000000  0.4352590000000  0.4631300000000 1.0
C      1  0.4723780000000  0.4255380000000  0.5166560000000 1.0
C      1  0.4639130000000  0.4785230000000  0.5782010000000 1.0
C      1  0.4575220000000  0.5459280000000  0.5599300000000 1.0
C      1  0.4588750000000  0.5761900000000  0.5027770000000 1.0
C      1  0.4642910000000  0.5504960000000  0.4423630000000 1.0
C      1  0.4633850000000  0.4883190000000  0.4246200000000 1.0
C      1  0.5072290000000  0.4298980000000  0.5562350000000 1.0
C      1  0.5084680000000  0.4883040000000  0.5898070000000 1.0
C      1  0.5018820000000  0.5723400000000  0.5543150000000 1.0
C      1  0.5025290000000  0.5885190000000  0.4798300000000 1.0
C      1  0.5048310000000  0.5392470000000  0.4224650000000 1.0
C      1  0.5050500000000  0.4560230000000  0.4179130000000 1.0
C      1  0.5017650000000  0.4098740000000  0.4663930000000 1.0
C      1  0.5163620000000  0.5487310000000  0.5059600000000 1.0
C      1  0.5105310000000  0.5166910000000  0.4690420000000 1.0
C      1  0.5168130000000  0.4848510000000  0.4588710000000 1.0
C      1  0.5108670000000  0.4614180000000  0.4827960000000 1.0
C      1  0.5185080000000  0.4620700000000  0.5140830000000 1.0
C      1  0.5123150000000  0.4961470000000  0.5413980000000 1.0
C      1  0.5062540000000  0.5260070000000  0.5264330000000 1.0
C      1  0.4672790000000  0.5194400000000  0.5318770000000 1.0
C      1  0.4661150000000  0.5370540000000  0.5042110000000 1.0
C      1  0.4664250000000  0.5218590000000  0.4750630000000 1.0
C      1  0.4736350000000  0.4913630000000  0.4624240000000 1.0
C      1  0.4723970000000  0.4654130000000  0.4919940000000 1.0
C      1  0.4684250000000  0.4661530000000  0.5228790000000 1.0
C      1  0.4673680000000  0.4903320000000  0.5405510000000 1.0
C      1  0.4873530000000  0.5263080000000  0.4486200000000 1.0
C      1  0.4893010000000  0.4744520000000  0.4417590000000 1.0
C      1  0.4874530000000  0.4367940000000  0.4814610000000 1.0
C      1  0.4926010000000  0.4483730000000  0.5317230000000 1.0
C      1  0.4898620000000  0.4963510000000  0.5653530000000 1.0
C      1  0.4836610000000  0.5484960000000  0.5383200000000 1.0
C      1  0.4874830000000  0.5608350000000  0.4926400000000 1.0
C      1  0.5189940000000  0.5481440000000  0.4587570000000 1.0
C      1  0.5206560000000  0.4938710000000  0.4263060000000 1.0
C      1  0.5159560000000  0.4451580000000  0.4547700000000 1.0
C      1  0.5238160000000  0.4301900000000  0.5147440000000 1.0
C      1  0.5169670000000  0.4685360000000  0.5561760000000 1.0
C      1  0.5134460000000  0.5318860000000  0.5591630000000 1.0
C      1  0.5135070000000  0.5789660000000  0.5168460000000 1.0
C      1  0.5274710000000  0.5612020000000  0.5625110000000 1.0
C      1  0.5278750000000  0.5951680000000  0.4951260000000 1.0
C      1  0.5324710000000  0.5503340000000  0.4278310000000 1.0
C      1  0.5306420000000  0.4674310000000  0.4085850000000 1.0
C      1  0.5303570000000  0.4149760000000  0.4600940000000 1.0
C      1  0.5315050000000  0.4183900000000  0.5540140000000 1.0
C      1  0.5348880000000  0.4746790000000  0.5844110000000 1.0
C      1  0.5957520000000  0.4960640000000  0.5279980000000 1.0
C      1  0.5912680000000  0.5223570000000  0.5187850000000 1.0
C      1  0.6005770000000  0.5276230000000  0.4927610000000 1.0
C      1  0.5888950000000  0.5107880000000  0.4734430000000 1.0
C      1  0.5997950000000  0.4848010000000  0.4714360000000 1.0
C      1  0.5901620000000  0.4660480000000  0.4899240000000 1.0
C      1  0.5800230000000  0.4762120000000  0.5154520000000 1.0
C      1  0.4364040000000  0.5312280000000  0.4625040000000 1.0
C      1  0.4406390000000  0.4974580000000  0.4569110000000 1.0
C      1  0.4437590000000  0.4697640000000  0.4764190000000 1.0
C      1  0.4374430000000  0.4606030000000  0.5099970000000 1.0
C      1  0.4348050000000  0.4801940000000  0.5382820000000 1.0
C      1  0.4354310000000  0.5139380000000  0.5424380000000 1.0
C      1  0.4352740000000  0.5383080000000  0.5187180000000 1.0
C      1  0.5610980000000  0.4567080000000  0.4862520000000 1.0
C      1  0.5481910000000  0.4784590000000  0.5172390000000 1.0
C      1  0.5439500000000  0.5056130000000  0.5358520000000 1.0
C      1  0.5631100000000  0.5299890000000  0.5218870000000 1.0
C      1  0.5417050000000  0.5273010000000  0.4985650000000 1.0
C      1  0.5561360000000  0.5121880000000  0.4715130000000 1.0
C      1  0.5454840000000  0.4802900000000  0.4765870000000 1.0
C      1  0.5547730000000  0.5354160000000  0.4466990000000 1.0
C      1  0.5518960000000  0.4697060000000  0.4309120000000 1.0
C      1  0.5570310000000  0.4266970000000  0.4740270000000 1.0
C      1  0.5527240000000  0.4329360000000  0.5418310000000 1.0
C      1  0.5549950000000  0.4931430000000  0.5655080000000 1.0
C      1  0.5543640000000  0.5574430000000  0.5495670000000 1.0
C      1  0.5498530000000  0.5738300000000  0.4940380000000 1.0
C      1  0.4513720000000  0.4624450000000  0.4440740000000 1.0
C      1  0.4506710000000  0.4324900000000  0.4961830000000 1.0
C      1  0.4368700000000  0.4718390000000  0.5673550000000 1.0
C      1  0.4538960000000  0.5123810000000  0.5709470000000 1.0
C      1  0.4473250000000  0.5637720000000  0.5327770000000 1.0
C      1  0.4521000000000  0.5591310000000  0.4740700000000 1.0
C      1  0.4510470000000  0.5201800000000  0.4338590000000 1.0
C      1  0.5487990000000  0.5595420000000  0.4696930000000 1.0
C      1  0.5508180000000  0.5022070000000  0.4394290000000 1.0
C      1  0.5480250000000  0.4484530000000  0.4494460000000 1.0
C      1  0.5540890000000  0.4313130000000  0.5078640000000 1.0
C      1  0.5498530000000  0.4604090000000  0.5568890000000 1.0
C      1  0.5468620000000  0.5265230000000  0.5625150000000 1.0
C      1  0.5550610000000  0.5612330000000  0.5189400000000 1.0
C      1  0.4904460000000  0.5646090000000  0.4588890000000 1.0
C      1  0.4911100000000  0.5078160000000  0.4203290000000 1.0
C      1  0.4848490000000  0.4407420000000  0.4418730000000 1.0
C      1  0.5002430000000  0.4180670000000  0.5067980000000 1.0
C      1  0.4864010000000  0.4566300000000  0.5641360000000 1.0
C      1  0.4837420000000  0.5285620000000  0.5728600000000 1.0
C      1  0.4826670000000  0.5805110000000  0.5268900000000 1.0
C      1  0.4959020000000  0.5090890000000  0.4988040000000 1.0
C      1  0.5282280000000  0.4984540000000  0.4994520000000 1.0
C      1  0.4072890000000  0.5045220000000  0.4985910000000 1.0
C      1  0.4638060000000  0.4976090000000  0.4987630000000 1.0
C      1  0.4327870000000  0.5113160000000  0.5029110000000 1.0
END
