TITL C-2622961-1971-575 -0.00192855316732878 125000 -722.535806287546 0 0 132 (C1) n - 1
REM
REM in /nfs/bkarasulu/CARBON/AIRSS/Generating-Clusters/AIREBO/with-SteepDescent/Higher-Symm/SD-CG/HFTN-CG
REM
REM
REM
REM
REM
REM ./C.cell (b20cbc046b6831c77cfcea5457e17084)
REM
REM compiler GCC version 9.2.1 20190827 (Red Hat 9.2.1-1)
REM options -cpp -mtune=generic -march=x86-64 -g -O0 -fpre-include=/usr/include/finclude/math-vector-fortran.h
REM seed 1467508348 967448639 -942893987 1081813109 -1494339561 -2120477314 1761469849 2121792895 -1441245977 -1459714912 557981313 -1818922392 643667619 -1821413620 1319382217 -783376795 -177062212 826452460 -180798763 593325566 478423330 -1109596656 -974378060 377145689 1349373 -474007299 38784826 -62124512 1853703574 159643703 1685598083 -458197255 -1627967172
REM
CELL 1.54180   50.00000   50.00000   50.00000   90.00000   90.00000   90.00000
LATT -1
SFAC C  
C      1  0.5236060000000  0.4821360000000  0.5521710000000 1.0
C      1  0.5245890000000  0.5031830000000  0.4370010000000 1.0
C      1  0.4761870000000  0.4935700000000  0.5603830000000 1.0
C      1  0.4585150000000  0.5132190000000  0.4413020000000 1.0
C      1  0.5246210000000  0.5563400000000  0.5075780000000 1.0
C      1  0.5323630000000  0.4467730000000  0.4844430000000 1.0
C      1  0.4756640000000  0.5595090000000  0.5003030000000 1.0
C      1  0.4616350000000  0.4426370000000  0.5159020000000 1.0
C      1  0.4131270000000  0.4682850000000  0.4839320000000 1.0
C      1  0.4140220000000  0.5249920000000  0.5040950000000 1.0
C      1  0.5913390000000  0.5201320000000  0.5023490000000 1.0
C      1  0.5842580000000  0.4659980000000  0.4895710000000 1.0
C      1  0.4126330000000  0.5019340000000  0.4786780000000 1.0
C      1  0.4108120000000  0.5169980000000  0.5370000000000 1.0
C      1  0.5803860000000  0.5089710000000  0.5306500000000 1.0
C      1  0.5826970000000  0.4979640000000  0.4779830000000 1.0
C      1  0.4675570000000  0.4236030000000  0.4416200000000 1.0
C      1  0.4634390000000  0.5810090000000  0.5556530000000 1.0
C      1  0.5324940000000  0.5744370000000  0.4456130000000 1.0
C      1  0.5437190000000  0.4250530000000  0.5569980000000 1.0
C      1  0.4677020000000  0.4503700000000  0.4249880000000 1.0
C      1  0.4684480000000  0.5614030000000  0.5805460000000 1.0
C      1  0.5371830000000  0.4459490000000  0.5835120000000 1.0
C      1  0.5402010000000  0.5535430000000  0.4257790000000 1.0
C      1  0.4152400000000  0.5242050000000  0.4544010000000 1.0
C      1  0.4172910000000  0.4913870000000  0.5514820000000 1.0
C      1  0.5728990000000  0.4770270000000  0.4530490000000 1.0
C      1  0.5702560000000  0.5289530000000  0.5552970000000 1.0
C      1  0.4115420000000  0.4536230000000  0.5134690000000 1.0
C      1  0.4213880000000  0.5507820000000  0.4831890000000 1.0
C      1  0.5820850000000  0.4424480000000  0.4704850000000 1.0
C      1  0.5811160000000  0.5471460000000  0.5197570000000 1.0
C      1  0.4287310000000  0.5501760000000  0.5216400000000 1.0
C      1  0.4323400000000  0.4410530000000  0.4768490000000 1.0
C      1  0.5732080000000  0.4499610000000  0.5170890000000 1.0
C      1  0.5726750000000  0.5398170000000  0.4817480000000 1.0
C      1  0.4355170000000  0.5261320000000  0.5586020000000 1.0
C      1  0.4304470000000  0.4874570000000  0.4534350000000 1.0
C      1  0.5785560000000  0.5162440000000  0.4500040000000 1.0
C      1  0.5734360000000  0.4894370000000  0.5577080000000 1.0
C      1  0.5169020000000  0.4718210000000  0.4263130000000 1.0
C      1  0.5137490000000  0.5328430000000  0.5745870000000 1.0
C      1  0.4948210000000  0.5363480000000  0.4137490000000 1.0
C      1  0.4865100000000  0.4671170000000  0.5799860000000 1.0
C      1  0.5132940000000  0.4251580000000  0.4663850000000 1.0
C      1  0.5062600000000  0.5754050000000  0.5289290000000 1.0
C      1  0.4975500000000  0.4136630000000  0.5387420000000 1.0
C      1  0.4869570000000  0.5722320000000  0.4705940000000 1.0
C      1  0.4399210000000  0.4591710000000  0.5266970000000 1.0
C      1  0.4538140000000  0.5470870000000  0.4773830000000 1.0
C      1  0.5498690000000  0.5453800000000  0.5251230000000 1.0
C      1  0.5541350000000  0.4365690000000  0.4619200000000 1.0
C      1  0.4415150000000  0.5325480000000  0.4521600000000 1.0
C      1  0.4473810000000  0.4783440000000  0.5505400000000 1.0
C      1  0.5410250000000  0.5352520000000  0.5544150000000 1.0
C      1  0.5416710000000  0.4654460000000  0.4487490000000 1.0
C      1  0.5218640000000  0.4399780000000  0.4174020000000 1.0
C      1  0.5219220000000  0.5652800000000  0.5772500000000 1.0
C      1  0.4807750000000  0.5632340000000  0.4179620000000 1.0
C      1  0.4749350000000  0.4362040000000  0.5791250000000 1.0
C      1  0.5224950000000  0.4226750000000  0.4353320000000 1.0
C      1  0.5228030000000  0.5786470000000  0.5561870000000 1.0
C      1  0.4828880000000  0.4158550000000  0.5667110000000 1.0
C      1  0.4756630000000  0.5749430000000  0.4393080000000 1.0
C      1  0.4777590000000  0.4139760000000  0.5149090000000 1.0
C      1  0.4621430000000  0.5922480000000  0.4824280000000 1.0
C      1  0.5199290000000  0.5996840000000  0.5106240000000 1.0
C      1  0.5403300000000  0.4083010000000  0.4782710000000 1.0
C      1  0.4803910000000  0.5153970000000  0.3964370000000 1.0
C      1  0.4661990000000  0.4870990000000  0.5985460000000 1.0
C      1  0.5304880000000  0.5079440000000  0.5900310000000 1.0
C      1  0.5268580000000  0.4864620000000  0.3972760000000 1.0
C      1  0.4510740000000  0.5080830000000  0.5764680000000 1.0
C      1  0.4440790000000  0.4924860000000  0.4226870000000 1.0
C      1  0.5431120000000  0.4938010000000  0.5686650000000 1.0
C      1  0.5525980000000  0.5155990000000  0.4280480000000 1.0
C      1  0.4452350000000  0.5737850000000  0.5054580000000 1.0
C      1  0.4474340000000  0.4229570000000  0.4953270000000 1.0
C      1  0.5527010000000  0.5657780000000  0.4908860000000 1.0
C      1  0.5549500000000  0.4325580000000  0.5016600000000 1.0
C      1  0.5467980000000  0.5060200000000  0.5305370000000 1.0
C      1  0.5395700000000  0.4891940000000  0.4712030000000 1.0
C      1  0.4569370000000  0.4951340000000  0.5243100000000 1.0
C      1  0.4585200000000  0.4957980000000  0.4823650000000 1.0
C      1  0.5432840000000  0.5217070000000  0.5016210000000 1.0
C      1  0.5535800000000  0.4785370000000  0.4971790000000 1.0
C      1  0.4606300000000  0.5228200000000  0.4958270000000 1.0
C      1  0.4375150000000  0.4811710000000  0.5019540000000 1.0
C      1  0.5003310000000  0.5417300000000  0.4657240000000 1.0
C      1  0.5004230000000  0.4450610000000  0.5329410000000 1.0
C      1  0.4950370000000  0.4533110000000  0.4718750000000 1.0
C      1  0.4872360000000  0.5472340000000  0.5300190000000 1.0
C      1  0.5055200000000  0.4620230000000  0.5541600000000 1.0
C      1  0.5011490000000  0.5226660000000  0.4411890000000 1.0
C      1  0.4957310000000  0.4718980000000  0.4529300000000 1.0
C      1  0.4948720000000  0.5200160000000  0.5494300000000 1.0
C      1  0.4358310000000  0.4620090000000  0.4307890000000 1.0
C      1  0.4387140000000  0.5538560000000  0.5701430000000 1.0
C      1  0.5706210000000  0.5437530000000  0.4327880000000 1.0
C      1  0.5620520000000  0.4588100000000  0.5671210000000 1.0
C      1  0.4388480000000  0.4343610000000  0.4466710000000 1.0
C      1  0.4339830000000  0.5718850000000  0.5456920000000 1.0
C      1  0.5705400000000  0.4385080000000  0.5465820000000 1.0
C      1  0.5615610000000  0.5622100000000  0.4583500000000 1.0
C      1  0.4711570000000  0.4925960000000  0.4071990000000 1.0
C      1  0.4714230000000  0.5191410000000  0.6003810000000 1.0
C      1  0.5370650000000  0.5116570000000  0.4000600000000 1.0
C      1  0.5232350000000  0.4877900000000  0.6087290000000 1.0
C      1  0.4705240000000  0.4034330000000  0.4850280000000 1.0
C      1  0.4649490000000  0.5995980000000  0.5135680000000 1.0
C      1  0.5402620000000  0.4066340000000  0.5123570000000 1.0
C      1  0.5319030000000  0.5905090000000  0.4882150000000 1.0
C      1  0.5166680000000  0.5857420000000  0.4654570000000 1.0
C      1  0.5286770000000  0.4103230000000  0.5376540000000 1.0
C      1  0.4832510000000  0.4118590000000  0.4620210000000 1.0
C      1  0.4793440000000  0.5923210000000  0.5358750000000 1.0
C      1  0.5162340000000  0.4629120000000  0.5959950000000 1.0
C      1  0.5254410000000  0.5377540000000  0.4087780000000 1.0
C      1  0.4850780000000  0.4696080000000  0.4144990000000 1.0
C      1  0.4854190000000  0.5412540000000  0.5914840000000 1.0
C      1  0.5208890000000  0.4698000000000  0.5005250000000 1.0
C      1  0.5114740000000  0.5283970000000  0.4916510000000 1.0
C      1  0.4876240000000  0.5228100000000  0.5102670000000 1.0
C      1  0.4890430000000  0.4594490000000  0.5048370000000 1.0
C      1  0.5105320000000  0.4962460000000  0.4810000000000 1.0
C      1  0.5141450000000  0.5023130000000  0.5318140000000 1.0
C      1  0.4866720000000  0.4909210000000  0.5174950000000 1.0
C      1  0.4836070000000  0.5011310000000  0.4608050000000 1.0
C      1  0.5594010000000  0.4753080000000  0.5304660000000 1.0
C      1  0.5500830000000  0.5184350000000  0.4684590000000 1.0
C      1  0.4482440000000  0.5249040000000  0.5268290000000 1.0
C      1  0.4504480000000  0.4662330000000  0.4676340000000 1.0
END
