TITL C-2622953-3516-479 0.000727234849321114 125000 -1003.16460322001 0 0 192 (C1) n - 1
REM
REM in /nfs/bkarasulu/CARBON/AIRSS/Generating-Clusters/AIREBO/with-SteepDescent/Higher-Symm/SD-CG/HFTN-CG
REM
REM
REM
REM
REM
REM ./C.cell (b20cbc046b6831c77cfcea5457e17084)
REM
REM compiler GCC version 9.2.1 20190827 (Red Hat 9.2.1-1)
REM options -cpp -mtune=generic -march=x86-64 -g -O0 -fpre-include=/usr/include/finclude/math-vector-fortran.h
REM seed -1697876758 -1504796513 1107098486 1465703359 537935585 -1074530258 -1458765651 -1612015098 -1854075190 1424769593 -1062754023 -720277395 855002989 324374596 112468992 -991917065 -1289037985 -273792506 879319922 -1052967265 1922879910 -2093005490 1006411595 1836120760 687122591 -1166933899 -370610895 -207597869 -312880974 440372080 1720787921 428440305 -847201889
REM
CELL 1.54180   50.00000   50.00000   50.00000   90.00000   90.00000   90.00000
LATT -1
SFAC C  
C      1  0.5109500000000  0.5938000000000  0.4509220000000 1.0
C      1  0.4723830000000  0.4099390000000  0.4562430000000 1.0
C      1  0.4531190000000  0.5898570000000  0.4873200000000 1.0
C      1  0.4695780000000  0.3951740000000  0.5323190000000 1.0
C      1  0.4893200000000  0.5935460000000  0.5485260000000 1.0
C      1  0.5280160000000  0.4077580000000  0.5447680000000 1.0
C      1  0.5454140000000  0.5922990000000  0.5111470000000 1.0
C      1  0.5396130000000  0.4070450000000  0.4766060000000 1.0
C      1  0.5693350000000  0.5109670000000  0.4846670000000 1.0
C      1  0.5356210000000  0.4838610000000  0.4415480000000 1.0
C      1  0.4837080000000  0.5153110000000  0.4331590000000 1.0
C      1  0.4388710000000  0.4858270000000  0.4630910000000 1.0
C      1  0.4348040000000  0.5106870000000  0.5150590000000 1.0
C      1  0.4658400000000  0.4847120000000  0.5564910000000 1.0
C      1  0.5136780000000  0.5094970000000  0.5743320000000 1.0
C      1  0.5572720000000  0.4837610000000  0.5352150000000 1.0
C      1  0.5279020000000  0.5569920000000  0.5338750000000 1.0
C      1  0.5405010000000  0.4395550000000  0.5024060000000 1.0
C      1  0.5347760000000  0.5575930000000  0.4716940000000 1.0
C      1  0.5003310000000  0.4418010000000  0.4613460000000 1.0
C      1  0.4719760000000  0.5577710000000  0.4683930000000 1.0
C      1  0.4540110000000  0.4412770000000  0.4978820000000 1.0
C      1  0.4665250000000  0.5596610000000  0.5298860000000 1.0
C      1  0.4969350000000  0.4402020000000  0.5392320000000 1.0
C      1  0.5555160000000  0.4727150000000  0.4189950000000 1.0
C      1  0.4845740000000  0.5283280000000  0.4037010000000 1.0
C      1  0.4175140000000  0.4754590000000  0.4412270000000 1.0
C      1  0.4043230000000  0.5252100000000  0.5191190000000 1.0
C      1  0.4447240000000  0.4750060000000  0.5810200000000 1.0
C      1  0.5217790000000  0.5302980000000  0.5988770000000 1.0
C      1  0.5826360000000  0.4743320000000  0.5538340000000 1.0
C      1  0.5972530000000  0.5272660000000  0.4818920000000 1.0
C      1  0.4887070000000  0.4937590000000  0.4664290000000 1.0
C      1  0.4675910000000  0.5137010000000  0.4814740000000 1.0
C      1  0.4658290000000  0.4977090000000  0.5100580000000 1.0
C      1  0.4849400000000  0.5096860000000  0.5324630000000 1.0
C      1  0.5108750000000  0.4934130000000  0.5321410000000 1.0
C      1  0.5329560000000  0.5071410000000  0.5144470000000 1.0
C      1  0.5340810000000  0.4923380000000  0.4877600000000 1.0
C      1  0.5160120000000  0.5070570000000  0.4674360000000 1.0
C      1  0.4571830000000  0.5080660000000  0.4045170000000 1.0
C      1  0.4001230000000  0.4953170000000  0.4627170000000 1.0
C      1  0.4077250000000  0.5006930000000  0.5427250000000 1.0
C      1  0.4665830000000  0.4996290000000  0.5925730000000 1.0
C      1  0.5470890000000  0.5078000000000  0.5953660000000 1.0
C      1  0.5929290000000  0.5000950000000  0.5333200000000 1.0
C      1  0.5959140000000  0.5053110000000  0.4557300000000 1.0
C      1  0.5349630000000  0.4949250000000  0.4032960000000 1.0
C      1  0.4563860000000  0.5856350000000  0.4573600000000 1.0
C      1  0.4331360000000  0.4150310000000  0.4944160000000 1.0
C      1  0.4602620000000  0.5886170000000  0.5465710000000 1.0
C      1  0.5050550000000  0.4161570000000  0.5618660000000 1.0
C      1  0.5429660000000  0.5868060000000  0.5402240000000 1.0
C      1  0.5609660000000  0.4127780000000  0.4979080000000 1.0
C      1  0.5386000000000  0.5859410000000  0.4533130000000 1.0
C      1  0.4967050000000  0.4162340000000  0.4394870000000 1.0
C      1  0.5903020000000  0.4253760000000  0.5658450000000 1.0
C      1  0.6082470000000  0.5782170000000  0.4857810000000 1.0
C      1  0.5654790000000  0.4232740000000  0.4142640000000 1.0
C      1  0.4870440000000  0.5767030000000  0.3898520000000 1.0
C      1  0.4125690000000  0.4277090000000  0.4269820000000 1.0
C      1  0.3913480000000  0.5745790000000  0.5157420000000 1.0
C      1  0.4355710000000  0.4244200000000  0.5892110000000 1.0
C      1  0.5134620000000  0.5783100000000  0.6083640000000 1.0
C      1  0.5007780000000  0.5983510000000  0.4013820000000 1.0
C      1  0.4314620000000  0.4070460000000  0.4245360000000 1.0
C      1  0.4032880000000  0.5946830000000  0.5001560000000 1.0
C      1  0.4353820000000  0.4017110000000  0.5726770000000 1.0
C      1  0.4999900000000  0.6002030000000  0.5971780000000 1.0
C      1  0.5725610000000  0.4039410000000  0.5695060000000 1.0
C      1  0.5949090000000  0.5989800000000  0.4992950000000 1.0
C      1  0.5669240000000  0.4023880000000  0.4329620000000 1.0
C      1  0.4407180000000  0.5506850000000  0.5096400000000 1.0
C      1  0.4644310000000  0.4449090000000  0.5480780000000 1.0
C      1  0.5064630000000  0.5541420000000  0.5601230000000 1.0
C      1  0.5481460000000  0.4450260000000  0.5350910000000 1.0
C      1  0.5605960000000  0.5540990000000  0.4935550000000 1.0
C      1  0.5330900000000  0.4458450000000  0.4531460000000 1.0
C      1  0.4919070000000  0.5549970000000  0.4409790000000 1.0
C      1  0.4488310000000  0.4472570000000  0.4648030000000 1.0
C      1  0.5636910000000  0.5158090000000  0.5258400000000 1.0
C      1  0.5598310000000  0.4813820000000  0.4729040000000 1.0
C      1  0.5233310000000  0.5142460000000  0.4373700000000 1.0
C      1  0.4722010000000  0.4842170000000  0.4401810000000 1.0
C      1  0.4341670000000  0.5153910000000  0.4754560000000 1.0
C      1  0.4351770000000  0.4807630000000  0.5312010000000 1.0
C      1  0.4758170000000  0.5162490000000  0.5643610000000 1.0
C      1  0.5246690000000  0.4828770000000  0.5579530000000 1.0
C      1  0.5149690000000  0.5333340000000  0.4817950000000 1.0
C      1  0.4925830000000  0.4677820000000  0.4808930000000 1.0
C      1  0.4863120000000  0.5381590000000  0.4904670000000 1.0
C      1  0.4734560000000  0.4682060000000  0.5051730000000 1.0
C      1  0.4890510000000  0.5372720000000  0.5212910000000 1.0
C      1  0.5015600000000  0.4666890000000  0.5196050000000 1.0
C      1  0.5193990000000  0.5341610000000  0.5122210000000 1.0
C      1  0.5209260000000  0.4650250000000  0.4950540000000 1.0
C      1  0.5830540000000  0.4878280000000  0.5045060000000 1.0
C      1  0.5633900000000  0.5023950000000  0.4462380000000 1.0
C      1  0.5045860000000  0.4928570000000  0.4184530000000 1.0
C      1  0.4453400000000  0.5049500000000  0.4362460000000 1.0
C      1  0.4144760000000  0.4939610000000  0.4935180000000 1.0
C      1  0.4388870000000  0.5053450000000  0.5544410000000 1.0
C      1  0.4950760000000  0.4865830000000  0.5843900000000 1.0
C      1  0.5511320000000  0.5040570000000  0.5618050000000 1.0
C      1  0.5553610000000  0.4015250000000  0.5464950000000 1.0
C      1  0.5666680000000  0.5981480000000  0.4936240000000 1.0
C      1  0.5427040000000  0.4013120000000  0.4488690000000 1.0
C      1  0.4942340000000  0.6001310000000  0.4293400000000 1.0
C      1  0.4457700000000  0.4033090000000  0.4495570000000 1.0
C      1  0.4317520000000  0.5957700000000  0.5049190000000 1.0
C      1  0.4602040000000  0.3994530000000  0.5587640000000 1.0
C      1  0.5065620000000  0.6018790000000  0.5692120000000 1.0
C      1  0.4020650000000  0.4505700000000  0.4867480000000 1.0
C      1  0.4234900000000  0.5487940000000  0.5625430000000 1.0
C      1  0.4917820000000  0.4489650000000  0.5972510000000 1.0
C      1  0.5605160000000  0.5522670000000  0.5753080000000 1.0
C      1  0.5962600000000  0.4491850000000  0.5080770000000 1.0
C      1  0.5819560000000  0.5468860000000  0.4396720000000 1.0
C      1  0.5087460000000  0.4513510000000  0.4051630000000 1.0
C      1  0.4409250000000  0.5489650000000  0.4250620000000 1.0
C      1  0.4882490000000  0.5242270000000  0.6016590000000 1.0
C      1  0.5643260000000  0.4803670000000  0.5823320000000 1.0
C      1  0.6030350000000  0.5260860000000  0.5138500000000 1.0
C      1  0.5852210000000  0.4784660000000  0.4358860000000 1.0
C      1  0.5176090000000  0.5234500000000  0.3967150000000 1.0
C      1  0.4364910000000  0.4815590000000  0.4132010000000 1.0
C      1  0.3961060000000  0.5215120000000  0.4857670000000 1.0
C      1  0.4146610000000  0.4754760000000  0.5645000000000 1.0
C      1  0.4160330000000  0.4448870000000  0.4561230000000 1.0
C      1  0.4147700000000  0.5553170000000  0.5311220000000 1.0
C      1  0.4615520000000  0.4451270000000  0.5819650000000 1.0
C      1  0.5285670000000  0.5601550000000  0.5839020000000 1.0
C      1  0.5819640000000  0.4437410000000  0.5384690000000 1.0
C      1  0.5858350000000  0.5574040000000  0.4710040000000 1.0
C      1  0.5384700000000  0.4432130000000  0.4196700000000 1.0
C      1  0.4717230000000  0.5581420000000  0.4138720000000 1.0
C      1  0.4488890000000  0.5314760000000  0.5370400000000 1.0
C      1  0.4890640000000  0.4651200000000  0.5609950000000 1.0
C      1  0.5320090000000  0.5315920000000  0.5561170000000 1.0
C      1  0.5602810000000  0.4661780000000  0.5099180000000 1.0
C      1  0.5532520000000  0.5306960000000  0.4621240000000 1.0
C      1  0.5086200000000  0.4679890000000  0.4412940000000 1.0
C      1  0.4632770000000  0.5294020000000  0.4516240000000 1.0
C      1  0.4370320000000  0.4694210000000  0.4891740000000 1.0
C      1  0.5037280000000  0.5791650000000  0.5248550000000 1.0
C      1  0.5200600000000  0.4165030000000  0.5168130000000 1.0
C      1  0.5214970000000  0.5776050000000  0.4957850000000 1.0
C      1  0.5109130000000  0.4194350000000  0.4846770000000 1.0
C      1  0.4957200000000  0.5812180000000  0.4750240000000 1.0
C      1  0.4776460000000  0.4199180000000  0.4859720000000 1.0
C      1  0.4778900000000  0.5775850000000  0.5033080000000 1.0
C      1  0.4872590000000  0.4165540000000  0.5167770000000 1.0
C      1  0.4898970000000  0.4769480000000  0.3937860000000 1.0
C      1  0.4184170000000  0.5245200000000  0.4293010000000 1.0
C      1  0.3927010000000  0.4741600000000  0.5093850000000 1.0
C      1  0.4360640000000  0.5239630000000  0.5813780000000 1.0
C      1  0.5113520000000  0.4730590000000  0.6086290000000 1.0
C      1  0.5771250000000  0.5258080000000  0.5645060000000 1.0
C      1  0.6075060000000  0.4737850000000  0.4892550000000 1.0
C      1  0.5700400000000  0.5222710000000  0.4194630000000 1.0
C      1  0.5257830000000  0.4518440000000  0.5529870000000 1.0
C      1  0.5584430000000  0.5470430000000  0.5226830000000 1.0
C      1  0.5542780000000  0.4508020000000  0.4734190000000 1.0
C      1  0.5190830000000  0.5454990000000  0.4440410000000 1.0
C      1  0.4717410000000  0.4532730000000  0.4469340000000 1.0
C      1  0.4432010000000  0.5457720000000  0.4819850000000 1.0
C      1  0.4436690000000  0.4516880000000  0.5285630000000 1.0
C      1  0.4785420000000  0.5468440000000  0.5590120000000 1.0
C      1  0.5409020000000  0.4645800000000  0.5989420000000 1.0
C      1  0.5938600000000  0.5393270000000  0.5394720000000 1.0
C      1  0.6002590000000  0.4635980000000  0.4600420000000 1.0
C      1  0.5435170000000  0.5337600000000  0.4069380000000 1.0
C      1  0.4610010000000  0.4661870000000  0.4000370000000 1.0
C      1  0.4039760000000  0.5344560000000  0.4564990000000 1.0
C      1  0.4010440000000  0.4616400000000  0.5388540000000 1.0
C      1  0.4623390000000  0.5390650000000  0.5947110000000 1.0
C      1  0.4785940000000  0.4470460000000  0.4168610000000 1.0
C      1  0.4290230000000  0.5531390000000  0.4542090000000 1.0
C      1  0.4146060000000  0.4423220000000  0.5157250000000 1.0
C      1  0.4509130000000  0.5593810000000  0.5721140000000 1.0
C      1  0.5222150000000  0.4452420000000  0.5831660000000 1.0
C      1  0.5726340000000  0.5615680000000  0.5484780000000 1.0
C      1  0.5842510000000  0.4439930000000  0.4781950000000 1.0
C      1  0.5493450000000  0.5521910000000  0.4348810000000 1.0
C      1  0.4342490000000  0.5832150000000  0.5317440000000 1.0
C      1  0.4781050000000  0.4167850000000  0.5729830000000 1.0
C      1  0.5336270000000  0.5894910000000  0.5674320000000 1.0
C      1  0.5715160000000  0.4142330000000  0.5251230000000 1.0
C      1  0.5649680000000  0.5840680000000  0.4676350000000 1.0
C      1  0.5235180000000  0.4145460000000  0.4302850000000 1.0
C      1  0.4680460000000  0.5870880000000  0.4313690000000 1.0
C      1  0.4259490000000  0.4145690000000  0.4679440000000 1.0
END
