TITL C-2622962-9663-118 0.0306425376976237 125000 -121.16746348927 0 0 23 (C1) n - 1
REM
REM in /nfs/bkarasulu/CARBON/AIRSS/Generating-Clusters/AIREBO/with-SteepDescent/Higher-Symm/SD-CG/HFTN-CG
REM
REM
REM
REM
REM
REM ./C.cell (b20cbc046b6831c77cfcea5457e17084)
REM
REM compiler GCC version 9.2.1 20190827 (Red Hat 9.2.1-1)
REM options -cpp -mtune=generic -march=x86-64 -g -O0 -fpre-include=/usr/include/finclude/math-vector-fortran.h
REM seed 821610748 -1781129819 -991200397 1424502462 -1701872572 -862119181 -296343998 832582562 708108621 -1496305771 -1679513190 -284630657 -642560978 78289654 879932262 -1546164166 -1668614283 1319057594 977822384 -230658651 2069196556 -1278368235 -1521014844 -1656054902 -1386467258 -536978421 1998968714 -572385882 158514570 1799002712 995195063 -651704765 -1783780843
REM
CELL 1.54180   50.00000   50.00000   50.00000   90.00000   90.00000   90.00000
LATT -1
SFAC C  
C      1  0.4662170000000  0.4914570000000  0.5318920000000 1.0
C      1  0.4708250000000  0.4858500000000  0.4992550000000 1.0
C      1  0.5086120000000  0.4931620000000  0.5570460000000 1.0
C      1  0.5562210000000  0.4757510000000  0.4673840000000 1.0
C      1  0.4775460000000  0.5402380000000  0.5064300000000 1.0
C      1  0.5266070000000  0.4914230000000  0.5317220000000 1.0
C      1  0.5108470000000  0.4383970000000  0.5053010000000 1.0
C      1  0.4569800000000  0.5138790000000  0.5095040000000 1.0
C      1  0.5034030000000  0.5377480000000  0.5144650000000 1.0
C      1  0.5500850000000  0.5075930000000  0.4573190000000 1.0
C      1  0.4290920000000  0.5305750000000  0.5040870000000 1.0
C      1  0.4026680000000  0.5264530000000  0.5032760000000 1.0
C      1  0.4972830000000  0.4676820000000  0.4944620000000 1.0
C      1  0.4724570000000  0.4792780000000  0.4659340000000 1.0
C      1  0.5540420000000  0.5294350000000  0.4422290000000 1.0
C      1  0.5243070000000  0.5208560000000  0.5162270000000 1.0
C      1  0.4815250000000  0.4898720000000  0.5533460000000 1.0
C      1  0.4503870000000  0.5519700000000  0.5002910000000 1.0
C      1  0.5194610000000  0.4658970000000  0.5186920000000 1.0
C      1  0.5605230000000  0.4993140000000  0.4888900000000 1.0
C      1  0.5026530000000  0.4751300000000  0.4632470000000 1.0
C      1  0.5269350000000  0.4824560000000  0.4557200000000 1.0
C      1  0.5513240000000  0.5055830000000  0.5132800000000 1.0
END
