TITL C-2622968-4806-644 -1.97649948923726e-05 125000 -1042.80888732217 0 0 180 (C1) n - 1
REM
REM in /nfs/bkarasulu/CARBON/AIRSS/Generating-Clusters/AIREBO/with-SteepDescent/Higher-Symm/SD-CG/HFTN-CG
REM
REM
REM
REM
REM
REM ./C.cell (b20cbc046b6831c77cfcea5457e17084)
REM
REM compiler GCC version 9.2.1 20190827 (Red Hat 9.2.1-1)
REM options -cpp -mtune=generic -march=x86-64 -g -O0 -fpre-include=/usr/include/finclude/math-vector-fortran.h
REM seed -970715261 -1223504700 -1052434249 -943741788 -1522654750 1519984501 1619255981 1905860569 -1964186999 -64075747 2101197450 -1759067668 -282095359 1060123370 -30854750 433254104 -1072053852 -757376121 -793444077 -1789426633 -977490189 1148574574 -359936668 2011253423 -994248636 -1680214455 -163839624 -332567022 -2003668415 -904972696 75451355 473392729 1288938072
REM
CELL 1.54180   50.00000   50.00000   50.00000   90.00000   90.00000   90.00000
LATT -1
SFAC C  
C      1  0.5937420000000  0.5497080000000  0.5360720000000 1.0
C      1  0.5895200000000  0.5579200000000  0.5068610000000 1.0
C      1  0.5913660000000  0.5568930000000  0.4729550000000 1.0
C      1  0.5873090000000  0.5296510000000  0.4579080000000 1.0
C      1  0.5921780000000  0.4966460000000  0.4513140000000 1.0
C      1  0.5934210000000  0.4627630000000  0.4539800000000 1.0
C      1  0.5873140000000  0.4492420000000  0.4820710000000 1.0
C      1  0.5893270000000  0.4429580000000  0.5135430000000 1.0
C      1  0.5805290000000  0.4608730000000  0.5376310000000 1.0
C      1  0.5812030000000  0.4895750000000  0.5558500000000 1.0
C      1  0.5820640000000  0.5210130000000  0.5425110000000 1.0
C      1  0.4366120000000  0.5897410000000  0.5038610000000 1.0
C      1  0.4345780000000  0.5773220000000  0.4477240000000 1.0
C      1  0.4441130000000  0.5381330000000  0.4152610000000 1.0
C      1  0.4447130000000  0.4863760000000  0.4091670000000 1.0
C      1  0.4332540000000  0.4340470000000  0.4257910000000 1.0
C      1  0.4314690000000  0.4033340000000  0.4714340000000 1.0
C      1  0.4354260000000  0.4126490000000  0.5245320000000 1.0
C      1  0.4400060000000  0.4392800000000  0.5669000000000 1.0
C      1  0.4451650000000  0.4845850000000  0.5900620000000 1.0
C      1  0.4400760000000  0.5359380000000  0.5885420000000 1.0
C      1  0.4367650000000  0.5824450000000  0.5587530000000 1.0
C      1  0.4696070000000  0.4858810000000  0.6136690000000 1.0
C      1  0.4692130000000  0.5350630000000  0.5923790000000 1.0
C      1  0.4699070000000  0.5858550000000  0.5655640000000 1.0
C      1  0.4646200000000  0.5986600000000  0.5065950000000 1.0
C      1  0.4651340000000  0.5895660000000  0.4475940000000 1.0
C      1  0.4688920000000  0.5375900000000  0.3932790000000 1.0
C      1  0.4699670000000  0.4893350000000  0.3862050000000 1.0
C      1  0.4669210000000  0.4311260000000  0.4205740000000 1.0
C      1  0.4647510000000  0.3965430000000  0.4671790000000 1.0
C      1  0.4678700000000  0.4021750000000  0.5269780000000 1.0
C      1  0.4667910000000  0.4226070000000  0.5782290000000 1.0
C      1  0.5179030000000  0.5367900000000  0.5526560000000 1.0
C      1  0.5295400000000  0.5644030000000  0.5430810000000 1.0
C      1  0.5192400000000  0.5562870000000  0.4903130000000 1.0
C      1  0.5275510000000  0.5350280000000  0.4686310000000 1.0
C      1  0.5239040000000  0.5135810000000  0.4424950000000 1.0
C      1  0.5197810000000  0.4790120000000  0.4415940000000 1.0
C      1  0.5220600000000  0.4504400000000  0.4599160000000 1.0
C      1  0.5105250000000  0.4369090000000  0.4889000000000 1.0
C      1  0.5173920000000  0.4411270000000  0.5219390000000 1.0
C      1  0.5185180000000  0.4601760000000  0.5501210000000 1.0
C      1  0.5250500000000  0.5095790000000  0.5660710000000 1.0
C      1  0.4955430000000  0.5361790000000  0.3931030000000 1.0
C      1  0.4984390000000  0.4929620000000  0.4029850000000 1.0
C      1  0.4933940000000  0.4289530000000  0.4171820000000 1.0
C      1  0.4908150000000  0.3917460000000  0.4640940000000 1.0
C      1  0.4940220000000  0.3943850000000  0.5289540000000 1.0
C      1  0.4955770000000  0.4297300000000  0.5783410000000 1.0
C      1  0.4963920000000  0.4895210000000  0.6122330000000 1.0
C      1  0.4905410000000  0.5440030000000  0.6095360000000 1.0
C      1  0.4938150000000  0.5927310000000  0.5756850000000 1.0
C      1  0.4906110000000  0.6062050000000  0.4926010000000 1.0
C      1  0.4896240000000  0.5871770000000  0.4353360000000 1.0
C      1  0.4529530000000  0.5249420000000  0.4550150000000 1.0
C      1  0.4530380000000  0.4996410000000  0.4497210000000 1.0
C      1  0.4396140000000  0.4744470000000  0.4581170000000 1.0
C      1  0.4490960000000  0.4541110000000  0.4826640000000 1.0
C      1  0.4354820000000  0.4537900000000  0.5104370000000 1.0
C      1  0.4496680000000  0.4632760000000  0.5364170000000 1.0
C      1  0.4532920000000  0.4870580000000  0.5501640000000 1.0
C      1  0.4383500000000  0.5097200000000  0.5449810000000 1.0
C      1  0.4451200000000  0.5340360000000  0.5329240000000 1.0
C      1  0.4309620000000  0.5391420000000  0.5064890000000 1.0
C      1  0.4351210000000  0.5437370000000  0.4770920000000 1.0
C      1  0.5484920000000  0.4700160000000  0.5444200000000 1.0
C      1  0.5491990000000  0.5002630000000  0.5512470000000 1.0
C      1  0.5530300000000  0.5201230000000  0.5261790000000 1.0
C      1  0.5384410000000  0.5496910000000  0.5178510000000 1.0
C      1  0.5620740000000  0.5463260000000  0.4976840000000 1.0
C      1  0.5542860000000  0.5271140000000  0.4802330000000 1.0
C      1  0.5572020000000  0.5156800000000  0.4504290000000 1.0
C      1  0.5604100000000  0.4847560000000  0.4537180000000 1.0
C      1  0.5455230000000  0.4690020000000  0.4703590000000 1.0
C      1  0.5594880000000  0.4593020000000  0.4918520000000 1.0
C      1  0.5461650000000  0.4576880000000  0.5152060000000 1.0
C      1  0.5164520000000  0.3900090000000  0.5088270000000 1.0
C      1  0.5196330000000  0.4172680000000  0.5706330000000 1.0
C      1  0.5134140000000  0.4693040000000  0.5991960000000 1.0
C      1  0.5170440000000  0.5371230000000  0.6091420000000 1.0
C      1  0.5224480000000  0.5907240000000  0.5723040000000 1.0
C      1  0.5160010000000  0.6107110000000  0.5083190000000 1.0
C      1  0.5135440000000  0.5930500000000  0.4479490000000 1.0
C      1  0.5143940000000  0.5577320000000  0.4045290000000 1.0
C      1  0.5424170000000  0.5037760000000  0.3890500000000 1.0
C      1  0.5172590000000  0.4409540000000  0.4039890000000 1.0
C      1  0.5170020000000  0.3936680000000  0.4473180000000 1.0
C      1  0.4096790000000  0.5405470000000  0.5521900000000 1.0
C      1  0.4115200000000  0.5541370000000  0.5260660000000 1.0
C      1  0.4080170000000  0.5540400000000  0.4662390000000 1.0
C      1  0.4014860000000  0.5370570000000  0.4420290000000 1.0
C      1  0.4079570000000  0.5089330000000  0.4349260000000 1.0
C      1  0.4072880000000  0.4776580000000  0.4484820000000 1.0
C      1  0.4097560000000  0.4500770000000  0.4682510000000 1.0
C      1  0.4041300000000  0.4483520000000  0.5018470000000 1.0
C      1  0.4048140000000  0.4517220000000  0.5357340000000 1.0
C      1  0.4045160000000  0.4736370000000  0.5576130000000 1.0
C      1  0.4094740000000  0.5068120000000  0.5567620000000 1.0
C      1  0.4971530000000  0.4953100000000  0.5572430000000 1.0
C      1  0.4905870000000  0.5376160000000  0.5492920000000 1.0
C      1  0.4819390000000  0.5543690000000  0.5246880000000 1.0
C      1  0.4917510000000  0.5451870000000  0.4993850000000 1.0
C      1  0.4835210000000  0.5471960000000  0.4708780000000 1.0
C      1  0.4927320000000  0.5228330000000  0.4524590000000 1.0
C      1  0.4920360000000  0.4909350000000  0.4502850000000 1.0
C      1  0.4787070000000  0.4647730000000  0.4588270000000 1.0
C      1  0.4827480000000  0.4529010000000  0.4875770000000 1.0
C      1  0.4855130000000  0.4529390000000  0.5223920000000 1.0
C      1  0.4929310000000  0.4832090000000  0.5299230000000 1.0
C      1  0.5373220000000  0.5921560000000  0.4352130000000 1.0
C      1  0.5423890000000  0.5436910000000  0.4137420000000 1.0
C      1  0.5467450000000  0.4777020000000  0.3974220000000 1.0
C      1  0.5417850000000  0.4252280000000  0.4150940000000 1.0
C      1  0.5422080000000  0.4062430000000  0.4664410000000 1.0
C      1  0.5448960000000  0.3988830000000  0.5218760000000 1.0
C      1  0.5417630000000  0.4249570000000  0.5849800000000 1.0
C      1  0.5426780000000  0.4805710000000  0.5982410000000 1.0
C      1  0.5471670000000  0.5387030000000  0.5934180000000 1.0
C      1  0.5432250000000  0.6011310000000  0.5500910000000 1.0
C      1  0.5383660000000  0.6044780000000  0.4891440000000 1.0
C      1  0.5725590000000  0.5558440000000  0.5785570000000 1.0
C      1  0.5681420000000  0.5903390000000  0.5395050000000 1.0
C      1  0.5635640000000  0.5940310000000  0.4862650000000 1.0
C      1  0.5569010000000  0.5674610000000  0.4342490000000 1.0
C      1  0.5689840000000  0.5224630000000  0.4128220000000 1.0
C      1  0.5691310000000  0.4727350000000  0.4135080000000 1.0
C      1  0.5596030000000  0.4244200000000  0.4431410000000 1.0
C      1  0.5631450000000  0.4029340000000  0.4930610000000 1.0
C      1  0.5655700000000  0.4137140000000  0.5444590000000 1.0
C      1  0.5596770000000  0.4533460000000  0.5864880000000 1.0
C      1  0.5612620000000  0.5076730000000  0.5894750000000 1.0
C      1  0.5782160000000  0.5440300000000  0.4309540000000 1.0
C      1  0.5798260000000  0.4977690000000  0.4209720000000 1.0
C      1  0.5766510000000  0.4516740000000  0.4318860000000 1.0
C      1  0.5784880000000  0.4208450000000  0.4699140000000 1.0
C      1  0.5806140000000  0.4157060000000  0.5181740000000 1.0
C      1  0.5683260000000  0.4384180000000  0.5584820000000 1.0
C      1  0.5799510000000  0.4793560000000  0.5872130000000 1.0
C      1  0.5795070000000  0.5269400000000  0.5735950000000 1.0
C      1  0.5818760000000  0.5692570000000  0.5546410000000 1.0
C      1  0.5757080000000  0.5869630000000  0.5111200000000 1.0
C      1  0.5718750000000  0.5772690000000  0.4634230000000 1.0
C      1  0.4215950000000  0.4295500000000  0.4556050000000 1.0
C      1  0.4193890000000  0.4179850000000  0.4982100000000 1.0
C      1  0.4208840000000  0.4287840000000  0.5458890000000 1.0
C      1  0.4259120000000  0.4637460000000  0.5778180000000 1.0
C      1  0.4291540000000  0.5101130000000  0.5843290000000 1.0
C      1  0.4267190000000  0.5539210000000  0.5710870000000 1.0
C      1  0.4243820000000  0.5805670000000  0.5282180000000 1.0
C      1  0.4229590000000  0.5816190000000  0.4794240000000 1.0
C      1  0.4227000000000  0.5560930000000  0.4292060000000 1.0
C      1  0.4286970000000  0.5113190000000  0.4146560000000 1.0
C      1  0.4251660000000  0.4656510000000  0.4218940000000 1.0
C      1  0.4729540000000  0.4895430000000  0.4252480000000 1.0
C      1  0.4558310000000  0.4513640000000  0.4431140000000 1.0
C      1  0.4565050000000  0.4257220000000  0.4746080000000 1.0
C      1  0.4608840000000  0.4313600000000  0.5132200000000 1.0
C      1  0.4697670000000  0.4420970000000  0.5505280000000 1.0
C      1  0.4738400000000  0.4809830000000  0.5742630000000 1.0
C      1  0.4801620000000  0.5211550000000  0.5702300000000 1.0
C      1  0.4583280000000  0.5605950000000  0.5458000000000 1.0
C      1  0.4842780000000  0.5850200000000  0.5256760000000 1.0
C      1  0.4587940000000  0.5626420000000  0.4664450000000 1.0
C      1  0.4724650000000  0.5418390000000  0.4328610000000 1.0
C      1  0.5187940000000  0.4251300000000  0.4401510000000 1.0
C      1  0.5131950000000  0.4063070000000  0.4841860000000 1.0
C      1  0.5202130000000  0.4131070000000  0.5404670000000 1.0
C      1  0.5000160000000  0.4593120000000  0.5743460000000 1.0
C      1  0.5222730000000  0.5077870000000  0.5982320000000 1.0
C      1  0.5339190000000  0.5631140000000  0.5768040000000 1.0
C      1  0.5150920000000  0.5923750000000  0.5331910000000 1.0
C      1  0.5139740000000  0.5862450000000  0.4772170000000 1.0
C      1  0.4913250000000  0.5632180000000  0.4221150000000 1.0
C      1  0.5197860000000  0.5186040000000  0.4096430000000 1.0
C      1  0.5206060000000  0.4697640000000  0.4094480000000 1.0
C      1  0.4597540000000  0.5039720000000  0.4939350000000 1.0
C      1  0.4828460000000  0.5012200000000  0.5055700000000 1.0
C      1  0.5389580000000  0.4983160000000  0.5081310000000 1.0
C      1  0.5127830000000  0.4980360000000  0.5080490000000 1.0
END
