TITL C-2622955-8511-823 -7.1141193308101e-06 125000 -205.698621472535 0 0 36 (C1) n - 1
REM
REM in /nfs/bkarasulu/CARBON/AIRSS/Generating-Clusters/AIREBO/with-SteepDescent/Higher-Symm/SD-CG/HFTN-CG
REM
REM
REM
REM
REM
REM ./C.cell (b20cbc046b6831c77cfcea5457e17084)
REM
REM compiler GCC version 9.2.1 20190827 (Red Hat 9.2.1-1)
REM options -cpp -mtune=generic -march=x86-64 -g -O0 -fpre-include=/usr/include/finclude/math-vector-fortran.h
REM seed 337180711 499181584 1817926735 1084571059 2009651233 928322459 2128943763 -16909853 435496695 -8757693 -532540679 -1311962623 879251994 1614179194 223217309 1298571742 -2065042719 -1457014699 195006240 -118675562 1426766129 -1952110979 -2032902871 -1346196227 268791336 -1848489009 1748326826 -72710647 467879773 -846982553 -1819461264 -1143530266 190736338
REM
CELL 1.54180   50.00000   50.00000   50.00000   90.00000   90.00000   90.00000
LATT -1
SFAC C  
C      1  0.4870160000000  0.5814290000000  0.4922450000000 1.0
C      1  0.4176960000000  0.4867750000000  0.4910390000000 1.0
C      1  0.5128280000000  0.4194850000000  0.4932230000000 1.0
C      1  0.5813370000000  0.5129510000000  0.4921480000000 1.0
C      1  0.4877890000000  0.4195770000000  0.4934330000000 1.0
C      1  0.4179320000000  0.5119040000000  0.4915680000000 1.0
C      1  0.5121440000000  0.5817300000000  0.4921300000000 1.0
C      1  0.5816620000000  0.4878440000000  0.4924030000000 1.0
C      1  0.5123840000000  0.4631450000000  0.5375510000000 1.0
C      1  0.5369170000000  0.5122620000000  0.5374340000000 1.0
C      1  0.4882250000000  0.5347040000000  0.5367760000000 1.0
C      1  0.4649620000000  0.4878170000000  0.5371870000000 1.0
C      1  0.5144750000000  0.5347410000000  0.5386640000000 1.0
C      1  0.5351260000000  0.4858550000000  0.5387310000000 1.0
C      1  0.4857750000000  0.4635380000000  0.5388430000000 1.0
C      1  0.4644190000000  0.5142450000000  0.5391140000000 1.0
C      1  0.4485310000000  0.4875620000000  0.4656600000000 1.0
C      1  0.5126120000000  0.4475390000000  0.4647580000000 1.0
C      1  0.5519710000000  0.5124870000000  0.4650390000000 1.0
C      1  0.4873420000000  0.5516470000000  0.4655950000000 1.0
C      1  0.4485220000000  0.5124510000000  0.4658820000000 1.0
C      1  0.5121900000000  0.5515210000000  0.4659990000000 1.0
C      1  0.5521000000000  0.4876250000000  0.4655490000000 1.0
C      1  0.4877490000000  0.4475510000000  0.4648890000000 1.0
C      1  0.5568210000000  0.4668940000000  0.4902740000000 1.0
C      1  0.5332190000000  0.5569220000000  0.4902550000000 1.0
C      1  0.4427200000000  0.5329510000000  0.4904350000000 1.0
C      1  0.4664370000000  0.4434350000000  0.4887340000000 1.0
C      1  0.5569030000000  0.5340030000000  0.4884750000000 1.0
C      1  0.5340070000000  0.4435050000000  0.4885430000000 1.0
C      1  0.4430010000000  0.4664000000000  0.4898110000000 1.0
C      1  0.4658900000000  0.5569290000000  0.4890350000000 1.0
C      1  0.5356850000000  0.5348520000000  0.5137930000000 1.0
C      1  0.4647330000000  0.5360230000000  0.5141300000000 1.0
C      1  0.4652370000000  0.4658250000000  0.5132550000000 1.0
C      1  0.5336430000000  0.4658790000000  0.5129830000000 1.0
END
