TITL C-2622956-4641-640 -8.82256732235455e-05 125000 -795.548690258489 0 0 140 (C1) n - 1
REM
REM in /nfs/bkarasulu/CARBON/AIRSS/Generating-Clusters/AIREBO/with-SteepDescent/Higher-Symm/SD-CG/HFTN-CG
REM
REM
REM
REM
REM
REM ./C.cell (b20cbc046b6831c77cfcea5457e17084)
REM
REM compiler GCC version 9.2.1 20190827 (Red Hat 9.2.1-1)
REM options -cpp -mtune=generic -march=x86-64 -g -O0 -fpre-include=/usr/include/finclude/math-vector-fortran.h
REM seed -380823089 1608880039 -1460716975 2042674369 1616415182 -195315067 1426490500 -1449559178 -2048084883 -831494077 -2103082447 1041316161 -501127036 -1201587821 328123588 310424726 1292382286 1772056903 1954243539 7174628 -732774307 -1106630940 -1820701093 -565549043 -1889900935 -2080952216 146585364 -1699488356 -437711130 1823633652 490284345 -1967398255 464507709
REM
CELL 1.54180   50.00000   50.00000   50.00000   90.00000   90.00000   90.00000
LATT -1
SFAC C  
C      1  0.4687250000000  0.4757280000000  0.4897500000000 1.0
C      1  0.5092460000000  0.4645900000000  0.4884330000000 1.0
C      1  0.5345620000000  0.4952780000000  0.4901980000000 1.0
C      1  0.5060700000000  0.5361910000000  0.4835160000000 1.0
C      1  0.4682710000000  0.5226050000000  0.4880010000000 1.0
C      1  0.5283890000000  0.4732070000000  0.5142490000000 1.0
C      1  0.4874610000000  0.4644610000000  0.5146110000000 1.0
C      1  0.4653460000000  0.5007090000000  0.5128420000000 1.0
C      1  0.4895580000000  0.5352480000000  0.5114920000000 1.0
C      1  0.5266750000000  0.5217030000000  0.5064910000000 1.0
C      1  0.4663380000000  0.5556660000000  0.5363850000000 1.0
C      1  0.4370120000000  0.4830460000000  0.5346770000000 1.0
C      1  0.5119970000000  0.4265480000000  0.5399260000000 1.0
C      1  0.5614220000000  0.4787930000000  0.5359220000000 1.0
C      1  0.5357490000000  0.5602010000000  0.5423240000000 1.0
C      1  0.5509880000000  0.5479200000000  0.4635800000000 1.0
C      1  0.5607830000000  0.4813840000000  0.4638020000000 1.0
C      1  0.4946510000000  0.4289500000000  0.4576110000000 1.0
C      1  0.4324500000000  0.4835010000000  0.4638740000000 1.0
C      1  0.4613640000000  0.5526750000000  0.4477600000000 1.0
C      1  0.5959540000000  0.5191180000000  0.5101800000000 1.0
C      1  0.5093710000000  0.5974420000000  0.5094860000000 1.0
C      1  0.4081590000000  0.5436650000000  0.5125130000000 1.0
C      1  0.4306140000000  0.4298990000000  0.5061470000000 1.0
C      1  0.5642050000000  0.4172210000000  0.5117180000000 1.0
C      1  0.4020360000000  0.5261540000000  0.4909440000000 1.0
C      1  0.4876700000000  0.5980080000000  0.4918450000000 1.0
C      1  0.5947700000000  0.5400630000000  0.4915040000000 1.0
C      1  0.5743830000000  0.4316980000000  0.4891580000000 1.0
C      1  0.4479120000000  0.4156110000000  0.4893160000000 1.0
C      1  0.4237360000000  0.5294400000000  0.5315680000000 1.0
C      1  0.4439500000000  0.4363010000000  0.5314110000000 1.0
C      1  0.5461400000000  0.4267650000000  0.5384470000000 1.0
C      1  0.5756810000000  0.5239870000000  0.5295070000000 1.0
C      1  0.5104680000000  0.5820410000000  0.5387580000000 1.0
C      1  0.5805300000000  0.5317850000000  0.4659510000000 1.0
C      1  0.5532180000000  0.4338870000000  0.4704490000000 1.0
C      1  0.4620710000000  0.4223330000000  0.4601370000000 1.0
C      1  0.4178870000000  0.5338100000000  0.4678220000000 1.0
C      1  0.4921130000000  0.5841430000000  0.4669350000000 1.0
C      1  0.5395180000000  0.4596450000000  0.4737390000000 1.0
C      1  0.5525060000000  0.5179870000000  0.4772210000000 1.0
C      1  0.4834840000000  0.5573320000000  0.4693070000000 1.0
C      1  0.4373160000000  0.5106400000000  0.4802680000000 1.0
C      1  0.4760730000000  0.4431820000000  0.4830580000000 1.0
C      1  0.4549330000000  0.4615140000000  0.5240560000000 1.0
C      1  0.4512280000000  0.5299240000000  0.5231650000000 1.0
C      1  0.5142380000000  0.5583760000000  0.5153640000000 1.0
C      1  0.5528500000000  0.5074640000000  0.5229600000000 1.0
C      1  0.5272940000000  0.4424060000000  0.5160450000000 1.0
C      1  0.4388620000000  0.5153460000000  0.5781050000000 1.0
C      1  0.4640520000000  0.4454640000000  0.5755400000000 1.0
C      1  0.5381580000000  0.4529660000000  0.5795390000000 1.0
C      1  0.5547650000000  0.5235830000000  0.5785170000000 1.0
C      1  0.4986590000000  0.5578370000000  0.5806930000000 1.0
C      1  0.5586640000000  0.5139230000000  0.4213170000000 1.0
C      1  0.5314500000000  0.4473540000000  0.4217350000000 1.0
C      1  0.4651770000000  0.4467060000000  0.4187340000000 1.0
C      1  0.4219170000000  0.5279640000000  0.4286830000000 1.0
C      1  0.5057570000000  0.5653110000000  0.4230590000000 1.0
C      1  0.4191230000000  0.4592810000000  0.4676730000000 1.0
C      1  0.5045750000000  0.3981640000000  0.4949210000000 1.0
C      1  0.5915170000000  0.4791090000000  0.4714890000000 1.0
C      1  0.5446810000000  0.5754040000000  0.4718900000000 1.0
C      1  0.4366170000000  0.5926240000000  0.4907410000000 1.0
C      1  0.5902250000000  0.4689090000000  0.5254670000000 1.0
C      1  0.4901850000000  0.4086590000000  0.5306120000000 1.0
C      1  0.4065640000000  0.4746990000000  0.5101320000000 1.0
C      1  0.4607900000000  0.5870440000000  0.5305950000000 1.0
C      1  0.5628680000000  0.5847480000000  0.5153140000000 1.0
C      1  0.4812400000000  0.5195130000000  0.4573440000000 1.0
C      1  0.4713930000000  0.4909140000000  0.4624060000000 1.0
C      1  0.4975810000000  0.4751330000000  0.4621020000000 1.0
C      1  0.5228640000000  0.4934690000000  0.4609090000000 1.0
C      1  0.5135230000000  0.5219420000000  0.4556780000000 1.0
C      1  0.5159220000000  0.5167550000000  0.5352030000000 1.0
C      1  0.5235200000000  0.4884980000000  0.5418260000000 1.0
C      1  0.4999360000000  0.4695300000000  0.5423890000000 1.0
C      1  0.4754380000000  0.4901590000000  0.5426630000000 1.0
C      1  0.4850650000000  0.5206800000000  0.5412220000000 1.0
C      1  0.5102690000000  0.4732610000000  0.4149340000000 1.0
C      1  0.5268450000000  0.5029200000000  0.4163350000000 1.0
C      1  0.5095950000000  0.5318810000000  0.4172620000000 1.0
C      1  0.4868380000000  0.5081760000000  0.4084250000000 1.0
C      1  0.4760290000000  0.4780040000000  0.4151250000000 1.0
C      1  0.4858580000000  0.4712740000000  0.5796390000000 1.0
C      1  0.4702360000000  0.5018790000000  0.5804720000000 1.0
C      1  0.4929490000000  0.5256020000000  0.5828410000000 1.0
C      1  0.5228270000000  0.5124760000000  0.5827110000000 1.0
C      1  0.5187790000000  0.4797710000000  0.5805340000000 1.0
C      1  0.6003030000000  0.4896610000000  0.5024050000000 1.0
C      1  0.5363310000000  0.5805930000000  0.5007000000000 1.0
C      1  0.4208320000000  0.5667080000000  0.5023150000000 1.0
C      1  0.4144530000000  0.4515350000000  0.4952190000000 1.0
C      1  0.5333420000000  0.4114410000000  0.5038480000000 1.0
C      1  0.4095530000000  0.4978170000000  0.4954440000000 1.0
C      1  0.4615390000000  0.5963070000000  0.5038690000000 1.0
C      1  0.5805350000000  0.5610800000000  0.5027090000000 1.0
C      1  0.5919360000000  0.4561280000000  0.4948010000000 1.0
C      1  0.4788560000000  0.4138430000000  0.5005120000000 1.0
C      1  0.4770070000000  0.5584890000000  0.4191850000000 1.0
C      1  0.4259620000000  0.5032410000000  0.4298010000000 1.0
C      1  0.4909040000000  0.4310440000000  0.4179180000000 1.0
C      1  0.5591250000000  0.4580390000000  0.4187760000000 1.0
C      1  0.5562920000000  0.5437540000000  0.4121390000000 1.0
C      1  0.5286850000000  0.5595950000000  0.5814920000000 1.0
C      1  0.5723990000000  0.5001690000000  0.5831720000000 1.0
C      1  0.5202540000000  0.4293050000000  0.5880870000000 1.0
C      1  0.4400470000000  0.4603520000000  0.5862100000000 1.0
C      1  0.4411490000000  0.5447030000000  0.5819260000000 1.0
C      1  0.5481030000000  0.4866710000000  0.5647670000000 1.0
C      1  0.5229140000000  0.5353660000000  0.5583310000000 1.0
C      1  0.4682950000000  0.5383090000000  0.5640740000000 1.0
C      1  0.4510490000000  0.4809100000000  0.5629790000000 1.0
C      1  0.5035610000000  0.4462670000000  0.5648770000000 1.0
C      1  0.4520790000000  0.4842180000000  0.4369220000000 1.0
C      1  0.4717170000000  0.5276920000000  0.4283740000000 1.0
C      1  0.5356310000000  0.5395100000000  0.4377550000000 1.0
C      1  0.5433810000000  0.4824850000000  0.4363970000000 1.0
C      1  0.4976200000000  0.4558690000000  0.4401670000000 1.0
C      1  0.5762030000000  0.5063040000000  0.4465450000000 1.0
C      1  0.5095990000000  0.5857190000000  0.4436130000000 1.0
C      1  0.4315230000000  0.5536180000000  0.4482420000000 1.0
C      1  0.4473850000000  0.4353730000000  0.4373630000000 1.0
C      1  0.5273980000000  0.4305430000000  0.4485340000000 1.0
C      1  0.4214580000000  0.5070310000000  0.5530840000000 1.0
C      1  0.4872160000000  0.5731080000000  0.5567980000000 1.0
C      1  0.5620120000000  0.5417290000000  0.5535630000000 1.0
C      1  0.5574870000000  0.4487900000000  0.5560830000000 1.0
C      1  0.4559180000000  0.4262410000000  0.5554290000000 1.0
C      1  0.5358950000000  0.5915470000000  0.4519840000000 1.0
C      1  0.4214690000000  0.5734530000000  0.4702490000000 1.0
C      1  0.4213020000000  0.4422630000000  0.4451930000000 1.0
C      1  0.5247550000000  0.4066950000000  0.4712770000000 1.0
C      1  0.6043500000000  0.4896040000000  0.4454250000000 1.0
C      1  0.4650300000000  0.5989790000000  0.5577310000000 1.0
C      1  0.5755350000000  0.5635600000000  0.5345770000000 1.0
C      1  0.5872230000000  0.4524500000000  0.5506470000000 1.0
C      1  0.4717320000000  0.4036970000000  0.5498460000000 1.0
C      1  0.4039750000000  0.4810210000000  0.5394500000000 1.0
END
