TITL C-2622965-4321-4 0.000288071757269353 125000 -774.673678699196 0 0 146 (C1) n - 1
REM
REM in /nfs/bkarasulu/CARBON/AIRSS/Generating-Clusters/AIREBO/with-SteepDescent/Higher-Symm/SD-CG/HFTN-CG
REM
REM
REM
REM
REM
REM ./C.cell (b20cbc046b6831c77cfcea5457e17084)
REM
REM compiler GCC version 9.2.1 20190827 (Red Hat 9.2.1-1)
REM options -cpp -mtune=generic -march=x86-64 -g -O0 -fpre-include=/usr/include/finclude/math-vector-fortran.h
REM seed -492584744 2032432375 -1317114609 -2059535745 -401999988 1640985731 1019553029 1335049893 1882806948 -1918012084 -1583155081 1789222916 1348114926 1798566768 -1315481240 -1765451613 -420526808 -627855280 454310266 1774294110 1894110753 -287305127 808081279 118603857 -1709249677 -1877675062 741771884 1593485340 -1888350804 -1308620884 889895264 696629013 311976777
REM
CELL 1.54180   50.00000   50.00000   50.00000   90.00000   90.00000   90.00000
LATT -1
SFAC C  
C      1  0.5719050000000  0.4470020000000  0.5513440000000 1.0
C      1  0.5868790000000  0.5351810000000  0.5481400000000 1.0
C      1  0.4998780000000  0.5925880000000  0.5434140000000 1.0
C      1  0.4273810000000  0.5495470000000  0.5506710000000 1.0
C      1  0.4188200000000  0.4711540000000  0.5502050000000 1.0
C      1  0.4606420000000  0.4101710000000  0.5329470000000 1.0
C      1  0.5701760000000  0.4494200000000  0.4525310000000 1.0
C      1  0.5876980000000  0.5283170000000  0.4503040000000 1.0
C      1  0.5083340000000  0.5938040000000  0.4373720000000 1.0
C      1  0.4333950000000  0.5541690000000  0.4561020000000 1.0
C      1  0.3935500000000  0.4809160000000  0.4713190000000 1.0
C      1  0.4799610000000  0.4140680000000  0.4544540000000 1.0
C      1  0.5859900000000  0.5213930000000  0.5163610000000 1.0
C      1  0.5149950000000  0.5800960000000  0.5158270000000 1.0
C      1  0.4407340000000  0.5503910000000  0.5193910000000 1.0
C      1  0.4216540000000  0.4765080000000  0.5167470000000 1.0
C      1  0.4879180000000  0.4192240000000  0.5167500000000 1.0
C      1  0.5610180000000  0.4430860000000  0.5193650000000 1.0
C      1  0.5808900000000  0.5206580000000  0.4827290000000 1.0
C      1  0.5121130000000  0.5806930000000  0.4843660000000 1.0
C      1  0.4475550000000  0.5575350000000  0.4868370000000 1.0
C      1  0.4191590000000  0.4684610000000  0.4861830000000 1.0
C      1  0.4910630000000  0.4216760000000  0.4856770000000 1.0
C      1  0.5644660000000  0.4489920000000  0.4860540000000 1.0
C      1  0.4535890000000  0.4421680000000  0.4266040000000 1.0
C      1  0.5088440000000  0.4264490000000  0.4376770000000 1.0
C      1  0.5768310000000  0.4768570000000  0.4427840000000 1.0
C      1  0.5628320000000  0.5469870000000  0.4370880000000 1.0
C      1  0.4805900000000  0.5759120000000  0.4350550000000 1.0
C      1  0.4208760000000  0.5232790000000  0.4491580000000 1.0
C      1  0.4383920000000  0.4456150000000  0.5611970000000 1.0
C      1  0.5215590000000  0.4258060000000  0.5700590000000 1.0
C      1  0.5739510000000  0.4787400000000  0.5633700000000 1.0
C      1  0.5630250000000  0.5528130000000  0.5648250000000 1.0
C      1  0.4716530000000  0.5805610000000  0.5528910000000 1.0
C      1  0.4256180000000  0.5189710000000  0.5622940000000 1.0
C      1  0.4127780000000  0.5267950000000  0.4824440000000 1.0
C      1  0.4300090000000  0.4379240000000  0.4758080000000 1.0
C      1  0.5181380000000  0.4167180000000  0.4656930000000 1.0
C      1  0.5875650000000  0.4739070000000  0.4876300000000 1.0
C      1  0.5516260000000  0.5702800000000  0.4569480000000 1.0
C      1  0.4784180000000  0.5828440000000  0.4885340000000 1.0
C      1  0.4141330000000  0.5294090000000  0.5163540000000 1.0
C      1  0.4304230000000  0.4382370000000  0.5098190000000 1.0
C      1  0.5139750000000  0.4176360000000  0.5385450000000 1.0
C      1  0.5976870000000  0.4832390000000  0.5170470000000 1.0
C      1  0.5583200000000  0.5749050000000  0.5423910000000 1.0
C      1  0.4678860000000  0.5886270000000  0.5198320000000 1.0
C      1  0.5262140000000  0.5532060000000  0.5333800000000 1.0
C      1  0.4655640000000  0.5368030000000  0.5382710000000 1.0
C      1  0.4488580000000  0.4904880000000  0.5316160000000 1.0
C      1  0.4804700000000  0.4444350000000  0.5383520000000 1.0
C      1  0.5393770000000  0.4632300000000  0.5360120000000 1.0
C      1  0.5562850000000  0.5182890000000  0.5301410000000 1.0
C      1  0.5181500000000  0.5516550000000  0.4666280000000 1.0
C      1  0.4681810000000  0.5387460000000  0.4673960000000 1.0
C      1  0.4409710000000  0.4842010000000  0.4668940000000 1.0
C      1  0.4843690000000  0.4497020000000  0.4675980000000 1.0
C      1  0.5353740000000  0.4591280000000  0.4716130000000 1.0
C      1  0.5560800000000  0.5101970000000  0.4619240000000 1.0
C      1  0.4542470000000  0.5302150000000  0.5768200000000 1.0
C      1  0.4462410000000  0.4714220000000  0.5819170000000 1.0
C      1  0.4960060000000  0.4382800000000  0.5877270000000 1.0
C      1  0.5461160000000  0.4690080000000  0.5783680000000 1.0
C      1  0.5504200000000  0.5262910000000  0.5820120000000 1.0
C      1  0.5018100000000  0.5476850000000  0.5793440000000 1.0
C      1  0.4528330000000  0.5219200000000  0.4221190000000 1.0
C      1  0.4538920000000  0.4734600000000  0.4237310000000 1.0
C      1  0.5006380000000  0.4521760000000  0.4184610000000 1.0
C      1  0.5400640000000  0.4727920000000  0.4170380000000 1.0
C      1  0.5454240000000  0.5231730000000  0.4201600000000 1.0
C      1  0.5004140000000  0.5536790000000  0.4186170000000 1.0
C      1  0.4738990000000  0.5130850000000  0.4000920000000 1.0
C      1  0.4729850000000  0.4852040000000  0.3994590000000 1.0
C      1  0.4971300000000  0.4722970000000  0.3969400000000 1.0
C      1  0.5218590000000  0.4850790000000  0.3950770000000 1.0
C      1  0.5228650000000  0.5130800000000  0.3967740000000 1.0
C      1  0.4983260000000  0.5266430000000  0.3984720000000 1.0
C      1  0.4751820000000  0.5111850000000  0.5956440000000 1.0
C      1  0.4737910000000  0.4835000000000  0.5958680000000 1.0
C      1  0.4981260000000  0.4692810000000  0.6002180000000 1.0
C      1  0.5238430000000  0.4823620000000  0.5977710000000 1.0
C      1  0.5251030000000  0.5100670000000  0.5981680000000 1.0
C      1  0.5004660000000  0.5227140000000  0.5972370000000 1.0
C      1  0.5323380000000  0.5550770000000  0.5811110000000 1.0
C      1  0.4722310000000  0.5571150000000  0.5723190000000 1.0
C      1  0.4238310000000  0.4934540000000  0.5830120000000 1.0
C      1  0.4625610000000  0.4349900000000  0.5826510000000 1.0
C      1  0.5461890000000  0.4382240000000  0.5828670000000 1.0
C      1  0.5744700000000  0.5051760000000  0.5837320000000 1.0
C      1  0.5343290000000  0.5552590000000  0.4181390000000 1.0
C      1  0.4666070000000  0.5511730000000  0.4158870000000 1.0
C      1  0.4305860000000  0.4980410000000  0.4284170000000 1.0
C      1  0.4755900000000  0.4328540000000  0.4123950000000 1.0
C      1  0.5364330000000  0.4394170000000  0.4225180000000 1.0
C      1  0.5649190000000  0.4950180000000  0.4201860000000 1.0
C      1  0.4983450000000  0.4574020000000  0.5621980000000 1.0
C      1  0.5210200000000  0.4764620000000  0.5584010000000 1.0
C      1  0.5360670000000  0.5264190000000  0.5519570000000 1.0
C      1  0.4891370000000  0.5235740000000  0.5589150000000 1.0
C      1  0.4625510000000  0.5026490000000  0.5587200000000 1.0
C      1  0.4695920000000  0.4700170000000  0.5584620000000 1.0
C      1  0.5136910000000  0.4666520000000  0.4463740000000 1.0
C      1  0.5331960000000  0.4931770000000  0.4433870000000 1.0
C      1  0.5226700000000  0.5254610000000  0.4453360000000 1.0
C      1  0.4833870000000  0.5367670000000  0.4427140000000 1.0
C      1  0.4626130000000  0.5031650000000  0.4487520000000 1.0
C      1  0.4806550000000  0.4746050000000  0.4447160000000 1.0
C      1  0.5640270000000  0.4880400000000  0.5166840000000 1.0
C      1  0.5508760000000  0.5636510000000  0.5129210000000 1.0
C      1  0.4813740000000  0.5592090000000  0.5206220000000 1.0
C      1  0.4402530000000  0.5113540000000  0.5116140000000 1.0
C      1  0.4590390000000  0.4551000000000  0.5164170000000 1.0
C      1  0.5210830000000  0.4413530000000  0.5185510000000 1.0
C      1  0.5582940000000  0.4882200000000  0.4861210000000 1.0
C      1  0.5464680000000  0.5532990000000  0.4853860000000 1.0
C      1  0.4867080000000  0.5511450000000  0.4912150000000 1.0
C      1  0.4415910000000  0.5124390000000  0.4813460000000 1.0
C      1  0.4573810000000  0.4527100000000  0.4848470000000 1.0
C      1  0.5285910000000  0.4332870000000  0.4919930000000 1.0
C      1  0.4793930000000  0.4804490000000  0.5212940000000 1.0
C      1  0.5072980000000  0.4701370000000  0.5135330000000 1.0
C      1  0.5304120000000  0.4894980000000  0.5218230000000 1.0
C      1  0.5284340000000  0.5185700000000  0.5137970000000 1.0
C      1  0.5031140000000  0.5331570000000  0.5228960000000 1.0
C      1  0.4793430000000  0.5130420000000  0.5197770000000 1.0
C      1  0.4709370000000  0.4837940000000  0.4823560000000 1.0
C      1  0.4998470000000  0.4726580000000  0.4839640000000 1.0
C      1  0.5259950000000  0.4882550000000  0.4821880000000 1.0
C      1  0.5356560000000  0.5208960000000  0.4843870000000 1.0
C      1  0.5033370000000  0.5249370000000  0.4797910000000 1.0
C      1  0.4735470000000  0.5136150000000  0.4896530000000 1.0
C      1  0.5332730000000  0.5912930000000  0.5426910000000 1.0
C      1  0.4413560000000  0.5785010000000  0.5385300000000 1.0
C      1  0.4110500000000  0.5018890000000  0.5367520000000 1.0
C      1  0.4390360000000  0.4267280000000  0.5361670000000 1.0
C      1  0.5464270000000  0.4253370000000  0.5451510000000 1.0
C      1  0.5897550000000  0.5015850000000  0.5437570000000 1.0
C      1  0.5275440000000  0.5888560000000  0.4566350000000 1.0
C      1  0.4588670000000  0.5768520000000  0.4612200000000 1.0
C      1  0.3944630000000  0.5074920000000  0.4636280000000 1.0
C      1  0.4531070000000  0.4301730000000  0.4520810000000 1.0
C      1  0.5517600000000  0.4232330000000  0.4678380000000 1.0
C      1  0.5932800000000  0.4963540000000  0.4624300000000 1.0
C      1  0.5140150000000  0.5063280000000  0.5547220000000 1.0
C      1  0.4956270000000  0.5067240000000  0.4414380000000 1.0
END
