TITL C-2622967-6265-392 -0.00354696276398961 125000 -953.327664076823 0 0 177 (C1) n - 1
REM
REM in /nfs/bkarasulu/CARBON/AIRSS/Generating-Clusters/AIREBO/with-SteepDescent/Higher-Symm/SD-CG/HFTN-CG
REM
REM
REM
REM
REM
REM ./C.cell (b20cbc046b6831c77cfcea5457e17084)
REM
REM compiler GCC version 9.2.1 20190827 (Red Hat 9.2.1-1)
REM options -cpp -mtune=generic -march=x86-64 -g -O0 -fpre-include=/usr/include/finclude/math-vector-fortran.h
REM seed -209542069 -730529123 -1338660538 -105967227 1393338754 653765724 -161770156 224925482 544294017 -962933780 -557019432 -2077991456 -1731093470 939365684 799116132 138622331 -1234528827 -1623948069 -1783945572 -658619944 415104874 -57690849 -1429985807 -1681427698 -398642368 -587464071 -2072010021 -444325094 -1602419085 1206770536 1779569904 -26605591 1910551078
REM
CELL 1.54180   50.00000   50.00000   50.00000   90.00000   90.00000   90.00000
LATT -1
SFAC C  
C      1  0.4600630000000  0.5984950000000  0.5110840000000 1.0
C      1  0.4591110000000  0.3982610000000  0.4816270000000 1.0
C      1  0.5343120000000  0.6070680000000  0.5112530000000 1.0
C      1  0.5323200000000  0.3977070000000  0.4910780000000 1.0
C      1  0.4667680000000  0.4764110000000  0.4899610000000 1.0
C      1  0.4709710000000  0.5190810000000  0.5105090000000 1.0
C      1  0.5221360000000  0.4783700000000  0.4905610000000 1.0
C      1  0.5279640000000  0.5225770000000  0.5101740000000 1.0
C      1  0.5668570000000  0.4994820000000  0.4732950000000 1.0
C      1  0.5756880000000  0.4727480000000  0.5418210000000 1.0
C      1  0.4343380000000  0.5181710000000  0.4717530000000 1.0
C      1  0.4227560000000  0.4677070000000  0.5342500000000 1.0
C      1  0.6049710000000  0.4989860000000  0.4630330000000 1.0
C      1  0.6035550000000  0.5009860000000  0.5438510000000 1.0
C      1  0.4009720000000  0.4943890000000  0.4658750000000 1.0
C      1  0.3959090000000  0.4978210000000  0.5375150000000 1.0
C      1  0.4843810000000  0.5023910000000  0.4132760000000 1.0
C      1  0.4828900000000  0.5039730000000  0.5831940000000 1.0
C      1  0.5170730000000  0.5117490000000  0.4135620000000 1.0
C      1  0.5290850000000  0.5041980000000  0.5965800000000 1.0
C      1  0.4830170000000  0.5664500000000  0.5819390000000 1.0
C      1  0.4807920000000  0.4487720000000  0.4180980000000 1.0
C      1  0.5146440000000  0.5598460000000  0.5713420000000 1.0
C      1  0.5106620000000  0.4569170000000  0.4154060000000 1.0
C      1  0.4400610000000  0.4806580000000  0.5105860000000 1.0
C      1  0.4375480000000  0.5142260000000  0.5053770000000 1.0
C      1  0.5525190000000  0.4774530000000  0.5058100000000 1.0
C      1  0.5593410000000  0.5107600000000  0.5044820000000 1.0
C      1  0.5858920000000  0.5315240000000  0.5090620000000 1.0
C      1  0.5817430000000  0.4646620000000  0.4940290000000 1.0
C      1  0.4091380000000  0.5324060000000  0.5007690000000 1.0
C      1  0.3929080000000  0.4580700000000  0.4969750000000 1.0
C      1  0.4330600000000  0.4851250000000  0.4707500000000 1.0
C      1  0.4206410000000  0.5159760000000  0.5348250000000 1.0
C      1  0.5802710000000  0.4790370000000  0.4508680000000 1.0
C      1  0.5706210000000  0.5033550000000  0.5357050000000 1.0
C      1  0.5568220000000  0.4400430000000  0.5549990000000 1.0
C      1  0.5581020000000  0.5564500000000  0.4595450000000 1.0
C      1  0.4515400000000  0.4371070000000  0.5486470000000 1.0
C      1  0.4405700000000  0.5631300000000  0.4474830000000 1.0
C      1  0.4320530000000  0.4253530000000  0.4705200000000 1.0
C      1  0.4391380000000  0.5688930000000  0.5278120000000 1.0
C      1  0.5580870000000  0.4177090000000  0.4593110000000 1.0
C      1  0.5548850000000  0.5893180000000  0.5493920000000 1.0
C      1  0.5685020000000  0.5775460000000  0.4349720000000 1.0
C      1  0.5715570000000  0.4192800000000  0.5764440000000 1.0
C      1  0.4432660000000  0.5704100000000  0.4158730000000 1.0
C      1  0.4596760000000  0.4341080000000  0.5786640000000 1.0
C      1  0.5327330000000  0.5029620000000  0.4509150000000 1.0
C      1  0.5293570000000  0.4908890000000  0.5480540000000 1.0
C      1  0.4643670000000  0.4943570000000  0.4611730000000 1.0
C      1  0.4615710000000  0.5047050000000  0.5398640000000 1.0
C      1  0.5571780000000  0.5858310000000  0.4979310000000 1.0
C      1  0.5550320000000  0.4171790000000  0.5062330000000 1.0
C      1  0.4460870000000  0.5804830000000  0.4874780000000 1.0
C      1  0.4433110000000  0.4133540000000  0.5069940000000 1.0
C      1  0.5791170000000  0.4388490000000  0.4758200000000 1.0
C      1  0.5744840000000  0.5478930000000  0.5317980000000 1.0
C      1  0.4029400000000  0.4431970000000  0.4750740000000 1.0
C      1  0.4112870000000  0.5530310000000  0.5251000000000 1.0
C      1  0.3880150000000  0.4866090000000  0.4900350000000 1.0
C      1  0.3911080000000  0.5064200000000  0.5096610000000 1.0
C      1  0.6022710000000  0.4884740000000  0.4907800000000 1.0
C      1  0.6033360000000  0.5058490000000  0.5131010000000 1.0
C      1  0.4183310000000  0.4599340000000  0.4567810000000 1.0
C      1  0.4260630000000  0.5406020000000  0.5528560000000 1.0
C      1  0.5770050000000  0.4509340000000  0.4485060000000 1.0
C      1  0.5783000000000  0.5441370000000  0.5607490000000 1.0
C      1  0.4801920000000  0.4218910000000  0.4389990000000 1.0
C      1  0.4755630000000  0.5907950000000  0.5593650000000 1.0
C      1  0.5043270000000  0.4170880000000  0.4540410000000 1.0
C      1  0.5056350000000  0.5855800000000  0.5508200000000 1.0
C      1  0.5177270000000  0.4833320000000  0.5743010000000 1.0
C      1  0.5187510000000  0.5310880000000  0.4414890000000 1.0
C      1  0.4924560000000  0.4706490000000  0.5633070000000 1.0
C      1  0.4875380000000  0.5298910000000  0.4332250000000 1.0
C      1  0.4154350000000  0.4226040000000  0.5178250000000 1.0
C      1  0.4189100000000  0.5722890000000  0.4707940000000 1.0
C      1  0.5772210000000  0.4267080000000  0.5295050000000 1.0
C      1  0.5800030000000  0.5704950000000  0.4808030000000 1.0
C      1  0.5449930000000  0.4127950000000  0.5384210000000 1.0
C      1  0.5469660000000  0.5881890000000  0.4656100000000 1.0
C      1  0.4636780000000  0.4123800000000  0.5310410000000 1.0
C      1  0.4658520000000  0.5823860000000  0.4598740000000 1.0
C      1  0.4590250000000  0.5384880000000  0.5974420000000 1.0
C      1  0.4523030000000  0.4713770000000  0.3856460000000 1.0
C      1  0.5544590000000  0.5346370000000  0.5996240000000 1.0
C      1  0.5442480000000  0.4842260000000  0.3879240000000 1.0
C      1  0.5203500000000  0.5857570000000  0.4448190000000 1.0
C      1  0.5133210000000  0.4031470000000  0.5710820000000 1.0
C      1  0.4905930000000  0.5955220000000  0.4387960000000 1.0
C      1  0.4860200000000  0.4045570000000  0.5556030000000 1.0
C      1  0.4389440000000  0.5306760000000  0.5817440000000 1.0
C      1  0.4352500000000  0.4731810000000  0.4044190000000 1.0
C      1  0.5713310000000  0.5181000000000  0.5774720000000 1.0
C      1  0.5605690000000  0.4939850000000  0.4040890000000 1.0
C      1  0.5874810000000  0.5169420000000  0.4438080000000 1.0
C      1  0.5889570000000  0.4941090000000  0.5724430000000 1.0
C      1  0.4152790000000  0.5020490000000  0.4397220000000 1.0
C      1  0.4160770000000  0.4866010000000  0.5613470000000 1.0
C      1  0.4580550000000  0.4375510000000  0.4881920000000 1.0
C      1  0.4612890000000  0.5574240000000  0.5073590000000 1.0
C      1  0.5403950000000  0.4356690000000  0.4817300000000 1.0
C      1  0.5511660000000  0.5676000000000  0.5234900000000 1.0
C      1  0.4010740000000  0.5533460000000  0.4792000000000 1.0
C      1  0.4049900000000  0.4479690000000  0.5206270000000 1.0
C      1  0.5982210000000  0.5530050000000  0.4910540000000 1.0
C      1  0.5811440000000  0.4557330000000  0.5233570000000 1.0
C      1  0.4552930000000  0.5950530000000  0.5403610000000 1.0
C      1  0.4576420000000  0.4110150000000  0.4533100000000 1.0
C      1  0.5308550000000  0.6019490000000  0.5389960000000 1.0
C      1  0.5291090000000  0.4026390000000  0.4626130000000 1.0
C      1  0.5210790000000  0.5947450000000  0.4837080000000 1.0
C      1  0.5177150000000  0.4109640000000  0.5181220000000 1.0
C      1  0.4896420000000  0.5993960000000  0.4723870000000 1.0
C      1  0.4913890000000  0.3943360000000  0.5248230000000 1.0
C      1  0.5704600000000  0.4653380000000  0.5732500000000 1.0
C      1  0.5700050000000  0.5378860000000  0.4338260000000 1.0
C      1  0.4420490000000  0.4658810000000  0.5622630000000 1.0
C      1  0.4336840000000  0.5299560000000  0.4398560000000 1.0
C      1  0.4829200000000  0.5477750000000  0.4845000000000 1.0
C      1  0.4846400000000  0.4512090000000  0.5313340000000 1.0
C      1  0.5087860000000  0.5633180000000  0.4878910000000 1.0
C      1  0.5087620000000  0.4419510000000  0.5122910000000 1.0
C      1  0.5147930000000  0.4823790000000  0.3970620000000 1.0
C      1  0.5241970000000  0.5364130000000  0.5942030000000 1.0
C      1  0.4819620000000  0.4738330000000  0.3946460000000 1.0
C      1  0.4916930000000  0.5354080000000  0.5928070000000 1.0
C      1  0.4648320000000  0.4756200000000  0.5780760000000 1.0
C      1  0.4536950000000  0.5165260000000  0.4172160000000 1.0
C      1  0.5506150000000  0.4778890000000  0.5956910000000 1.0
C      1  0.5552030000000  0.5426940000000  0.4101120000000 1.0
C      1  0.4791050000000  0.4549220000000  0.4678830000000 1.0
C      1  0.4879810000000  0.5450390000000  0.5244170000000 1.0
C      1  0.5129310000000  0.4523930000000  0.4706420000000 1.0
C      1  0.5214650000000  0.5510170000000  0.5237360000000 1.0
C      1  0.5176030000000  0.5160300000000  0.4784510000000 1.0
C      1  0.5167420000000  0.4732580000000  0.5229870000000 1.0
C      1  0.4864330000000  0.5199290000000  0.4653950000000 1.0
C      1  0.4781130000000  0.4819010000000  0.5215390000000 1.0
C      1  0.5539660000000  0.4384090000000  0.4346860000000 1.0
C      1  0.5563330000000  0.5643470000000  0.5634060000000 1.0
C      1  0.4360140000000  0.4422730000000  0.4412920000000 1.0
C      1  0.4518490000000  0.5589370000000  0.5568170000000 1.0
C      1  0.5054000000000  0.5802700000000  0.5172290000000 1.0
C      1  0.4990720000000  0.4252950000000  0.4858100000000 1.0
C      1  0.4874410000000  0.6016280000000  0.5037240000000 1.0
C      1  0.4854640000000  0.4000940000000  0.4941280000000 1.0
C      1  0.4886850000000  0.4869980000000  0.4408930000000 1.0
C      1  0.4872500000000  0.5177560000000  0.5535840000000 1.0
C      1  0.5151500000000  0.4793360000000  0.4481700000000 1.0
C      1  0.5123900000000  0.5140420000000  0.5363120000000 1.0
C      1  0.4615700000000  0.4580400000000  0.4400630000000 1.0
C      1  0.4802610000000  0.5479820000000  0.5547630000000 1.0
C      1  0.5269800000000  0.4491170000000  0.4398340000000 1.0
C      1  0.5346850000000  0.5430230000000  0.5538180000000 1.0
C      1  0.4543520000000  0.5428400000000  0.4710310000000 1.0
C      1  0.4544270000000  0.4502580000000  0.5174060000000 1.0
C      1  0.5494870000000  0.5286690000000  0.4772850000000 1.0
C      1  0.5417180000000  0.4559120000000  0.5298670000000 1.0
C      1  0.4950980000000  0.4369720000000  0.5603920000000 1.0
C      1  0.4895330000000  0.5627190000000  0.4349690000000 1.0
C      1  0.5273620000000  0.4309760000000  0.5693700000000 1.0
C      1  0.5241210000000  0.5563040000000  0.4582640000000 1.0
C      1  0.5291220000000  0.5398370000000  0.4039600000000 1.0
C      1  0.5211260000000  0.4756770000000  0.6132920000000 1.0
C      1  0.4762080000000  0.5298670000000  0.3949530000000 1.0
C      1  0.4888570000000  0.4766790000000  0.6025920000000 1.0
C      1  0.4418800000000  0.5055810000000  0.5661230000000 1.0
C      1  0.4461720000000  0.4875940000000  0.4332130000000 1.0
C      1  0.5482470000000  0.5166240000000  0.5537810000000 1.0
C      1  0.5600540000000  0.4991840000000  0.4343240000000 1.0
C      1  0.4683860000000  0.5593760000000  0.4091860000000 1.0
C      1  0.4851260000000  0.4443830000000  0.5922670000000 1.0
C      1  0.5010380000000  0.5521200000000  0.4030850000000 1.0
C      1  0.5177740000000  0.4532450000000  0.5888180000000 1.0
C      1  0.4972180000000  0.4994460000000  0.5000690000000 1.0
END
