TITL C-2622965-4321-567 -0.00502613315093589 125000 -808.617769920271 0 0 144 (C1) n - 1
REM
REM in /nfs/bkarasulu/CARBON/AIRSS/Generating-Clusters/AIREBO/with-SteepDescent/Higher-Symm/SD-CG/HFTN-CG
REM
REM
REM
REM
REM
REM ./C.cell (b20cbc046b6831c77cfcea5457e17084)
REM
REM compiler GCC version 9.2.1 20190827 (Red Hat 9.2.1-1)
REM options -cpp -mtune=generic -march=x86-64 -g -O0 -fpre-include=/usr/include/finclude/math-vector-fortran.h
REM seed -1701946889 -620451605 -1439784734 2047310456 384280113 1994496671 837936682 1499693458 413928788 -1273364662 -2080771526 -332170468 1496723607 -712518931 220640929 -1246675116 310992323 1515555720 1560608298 -498823298 589541803 -1698343629 -435739359 -760242107 2040753152 -2008773077 912589516 166398253 -1171684634 -2127221475 450466666 -652087488 -622772001
REM
CELL 1.54180   50.00000   50.00000   50.00000   90.00000   90.00000   90.00000
LATT -1
SFAC C  
C      1  0.5684230000000  0.5092410000000  0.5313840000000 1.0
C      1  0.5327010000000  0.5677920000000  0.5118850000000 1.0
C      1  0.5078990000000  0.5339990000000  0.5746120000000 1.0
C      1  0.4249400000000  0.5074830000000  0.4669370000000 1.0
C      1  0.5716080000000  0.4906070000000  0.4665500000000 1.0
C      1  0.4333330000000  0.4937940000000  0.5284440000000 1.0
C      1  0.4692700000000  0.5713770000000  0.4910810000000 1.0
C      1  0.5316020000000  0.4273530000000  0.4902140000000 1.0
C      1  0.4718790000000  0.4295200000000  0.5050920000000 1.0
C      1  0.4970920000000  0.5401920000000  0.4233930000000 1.0
C      1  0.5078470000000  0.4669290000000  0.4259850000000 1.0
C      1  0.4947650000000  0.4718390000000  0.5697090000000 1.0
C      1  0.5272800000000  0.5065370000000  0.5689550000000 1.0
C      1  0.5053080000000  0.5742310000000  0.5305960000000 1.0
C      1  0.5756870000000  0.5291570000000  0.5044330000000 1.0
C      1  0.4560300000000  0.5020550000000  0.4209540000000 1.0
C      1  0.4668330000000  0.4919880000000  0.5708570000000 1.0
C      1  0.5263880000000  0.4960370000000  0.4272480000000 1.0
C      1  0.4963100000000  0.5694170000000  0.4720890000000 1.0
C      1  0.4914170000000  0.4269590000000  0.5334180000000 1.0
C      1  0.5055260000000  0.4318100000000  0.4683400000000 1.0
C      1  0.4344310000000  0.5282760000000  0.4916010000000 1.0
C      1  0.4289760000000  0.4670510000000  0.5092720000000 1.0
C      1  0.5676030000000  0.4704400000000  0.4933150000000 1.0
C      1  0.6002920000000  0.5515400000000  0.4778710000000 1.0
C      1  0.4774410000000  0.5989900000000  0.5511490000000 1.0
C      1  0.5477080000000  0.4792890000000  0.5989970000000 1.0
C      1  0.4068230000000  0.5452660000000  0.5243660000000 1.0
C      1  0.5982890000000  0.4492430000000  0.5229540000000 1.0
C      1  0.4030600000000  0.4500110000000  0.4717400000000 1.0
C      1  0.5213760000000  0.6025460000000  0.4580820000000 1.0
C      1  0.4764200000000  0.4006870000000  0.4510470000000 1.0
C      1  0.5261320000000  0.4007000000000  0.5524750000000 1.0
C      1  0.4522960000000  0.4655270000000  0.4042000000000 1.0
C      1  0.5492790000000  0.5229250000000  0.4012950000000 1.0
C      1  0.4543590000000  0.5279830000000  0.5956330000000 1.0
C      1  0.4739850000000  0.5519500000000  0.6000170000000 1.0
C      1  0.5437100000000  0.5976850000000  0.4810940000000 1.0
C      1  0.5945450000000  0.4739200000000  0.5437880000000 1.0
C      1  0.5259130000000  0.5472570000000  0.4064720000000 1.0
C      1  0.5245460000000  0.4561890000000  0.5947980000000 1.0
C      1  0.4744750000000  0.4451740000000  0.4010260000000 1.0
C      1  0.4565100000000  0.5944940000000  0.5272410000000 1.0
C      1  0.4559830000000  0.4038340000000  0.4781120000000 1.0
C      1  0.5459750000000  0.4045070000000  0.5267570000000 1.0
C      1  0.3970880000000  0.4743230000000  0.4497260000000 1.0
C      1  0.4029260000000  0.5254900000000  0.5516690000000 1.0
C      1  0.5960220000000  0.5263210000000  0.4554490000000 1.0
C      1  0.4545640000000  0.5221890000000  0.5632610000000 1.0
C      1  0.5658300000000  0.4567860000000  0.5221870000000 1.0
C      1  0.5257020000000  0.5693740000000  0.4597910000000 1.0
C      1  0.5435940000000  0.5245260000000  0.4342030000000 1.0
C      1  0.4501140000000  0.4725610000000  0.4368030000000 1.0
C      1  0.5418670000000  0.4776500000000  0.5659860000000 1.0
C      1  0.4337470000000  0.4558080000000  0.4801620000000 1.0
C      1  0.5677230000000  0.5444470000000  0.4764900000000 1.0
C      1  0.4391150000000  0.5414020000000  0.5196810000000 1.0
C      1  0.4773820000000  0.5658870000000  0.5455420000000 1.0
C      1  0.5223080000000  0.4322420000000  0.5426380000000 1.0
C      1  0.4768880000000  0.4332950000000  0.4546610000000 1.0
C      1  0.5637180000000  0.5211220000000  0.4547420000000 1.0
C      1  0.5222860000000  0.4532250000000  0.5623610000000 1.0
C      1  0.4582720000000  0.5621360000000  0.5206510000000 1.0
C      1  0.4338370000000  0.5218580000000  0.5422500000000 1.0
C      1  0.4297320000000  0.4758760000000  0.4573970000000 1.0
C      1  0.5622870000000  0.4787570000000  0.5451570000000 1.0
C      1  0.4770250000000  0.4546670000000  0.4335220000000 1.0
C      1  0.4766750000000  0.5453260000000  0.5673640000000 1.0
C      1  0.5254670000000  0.5491350000000  0.4397420000000 1.0
C      1  0.5473140000000  0.5644370000000  0.4813650000000 1.0
C      1  0.5439810000000  0.4366670000000  0.5202120000000 1.0
C      1  0.4549380000000  0.4370120000000  0.4769030000000 1.0
C      1  0.4712650000000  0.5749740000000  0.4513380000000 1.0
C      1  0.4420440000000  0.4712620000000  0.5768060000000 1.0
C      1  0.5763520000000  0.4510680000000  0.4691210000000 1.0
C      1  0.5301580000000  0.5789050000000  0.5501450000000 1.0
C      1  0.4706930000000  0.4247080000000  0.5592740000000 1.0
C      1  0.5309670000000  0.4225980000000  0.4506830000000 1.0
C      1  0.5474400000000  0.4704570000000  0.4223280000000 1.0
C      1  0.4496800000000  0.5310920000000  0.4320070000000 1.0
C      1  0.5476150000000  0.5311110000000  0.5765930000000 1.0
C      1  0.4240860000000  0.4420870000000  0.5294950000000 1.0
C      1  0.5785550000000  0.5478740000000  0.5307150000000 1.0
C      1  0.4232230000000  0.5487050000000  0.4697610000000 1.0
C      1  0.4435650000000  0.5759170000000  0.4714360000000 1.0
C      1  0.5757680000000  0.4704540000000  0.4411530000000 1.0
C      1  0.4693910000000  0.4528430000000  0.5777860000000 1.0
C      1  0.5582860000000  0.5749650000000  0.5321580000000 1.0
C      1  0.5576070000000  0.4227170000000  0.4700520000000 1.0
C      1  0.4518850000000  0.4237160000000  0.5309610000000 1.0
C      1  0.4230910000000  0.4703530000000  0.5485860000000 1.0
C      1  0.4193130000000  0.5286370000000  0.4425360000000 1.0
C      1  0.5752250000000  0.5293720000000  0.5572330000000 1.0
C      1  0.5295770000000  0.4420340000000  0.4233240000000 1.0
C      1  0.5289530000000  0.5592310000000  0.5777760000000 1.0
C      1  0.4690190000000  0.5483880000000  0.4340310000000 1.0
C      1  0.4355820000000  0.5893770000000  0.5025060000000 1.0
C      1  0.4973390000000  0.4367480000000  0.5885880000000 1.0
C      1  0.5907030000000  0.5010230000000  0.4333620000000 1.0
C      1  0.5650930000000  0.5922150000000  0.5036130000000 1.0
C      1  0.4350870000000  0.4143040000000  0.5029250000000 1.0
C      1  0.5654200000000  0.4091290000000  0.5010170000000 1.0
C      1  0.4994800000000  0.4310880000000  0.4103540000000 1.0
C      1  0.5106980000000  0.5765720000000  0.4147920000000 1.0
C      1  0.4983350000000  0.5687340000000  0.5914800000000 1.0
C      1  0.4139710000000  0.4976270000000  0.5668320000000 1.0
C      1  0.5897950000000  0.4995610000000  0.5649420000000 1.0
C      1  0.4096940000000  0.4979130000000  0.4308450000000 1.0
C      1  0.4991960000000  0.5890670000000  0.4374490000000 1.0
C      1  0.5853290000000  0.4331790000000  0.4966600000000 1.0
C      1  0.4339180000000  0.5020480000000  0.5907160000000 1.0
C      1  0.5024750000000  0.5874270000000  0.5680360000000 1.0
C      1  0.5034000000000  0.4120550000000  0.4337590000000 1.0
C      1  0.5011890000000  0.4119350000000  0.5696520000000 1.0
C      1  0.4089150000000  0.4318270000000  0.4998730000000 1.0
C      1  0.4156610000000  0.5654710000000  0.4983770000000 1.0
C      1  0.5852920000000  0.5678390000000  0.5036770000000 1.0
C      1  0.5657270000000  0.4980010000000  0.4142710000000 1.0
C      1  0.5653490000000  0.5032400000000  0.5855440000000 1.0
C      1  0.4277100000000  0.4886790000000  0.4083010000000 1.0
C      1  0.4834050000000  0.5417120000000  0.4973960000000 1.0
C      1  0.5006170000000  0.4764970000000  0.5384640000000 1.0
C      1  0.5425070000000  0.4980350000000  0.4793410000000 1.0
C      1  0.5230430000000  0.5386720000000  0.4995280000000 1.0
C      1  0.4783570000000  0.4617520000000  0.4974760000000 1.0
C      1  0.5177250000000  0.4558970000000  0.4972240000000 1.0
C      1  0.4988180000000  0.4822840000000  0.4524670000000 1.0
C      1  0.4977390000000  0.5220440000000  0.4494150000000 1.0
C      1  0.5016630000000  0.5244810000000  0.5443250000000 1.0
C      1  0.4629880000000  0.5029440000000  0.5225290000000 1.0
C      1  0.5396870000000  0.4986380000000  0.5192130000000 1.0
C      1  0.4565050000000  0.5009300000000  0.4731070000000 1.0
C      1  0.5051510000000  0.5381740000000  0.4738610000000 1.0
C      1  0.5375590000000  0.4751720000000  0.5008130000000 1.0
C      1  0.4812410000000  0.5000150000000  0.5437240000000 1.0
C      1  0.5020030000000  0.5439770000000  0.5229330000000 1.0
C      1  0.4966100000000  0.4626580000000  0.4731860000000 1.0
C      1  0.4977620000000  0.4551360000000  0.5210590000000 1.0
C      1  0.4575770000000  0.4812070000000  0.4994710000000 1.0
C      1  0.4648670000000  0.5202470000000  0.4976780000000 1.0
C      1  0.5454250000000  0.5211950000000  0.4999480000000 1.0
C      1  0.5223010000000  0.5027760000000  0.4599510000000 1.0
C      1  0.5206810000000  0.4990020000000  0.5392200000000 1.0
C      1  0.4739790000000  0.5017090000000  0.4494110000000 1.0
END
