TITL C-2622956-4641-110 0.000791432521970248 125000 -293.833720603175 0 0 54 (C1) n - 1
REM
REM in /nfs/bkarasulu/CARBON/AIRSS/Generating-Clusters/AIREBO/with-SteepDescent/Higher-Symm/SD-CG/HFTN-CG
REM
REM
REM
REM
REM
REM ./C.cell (b20cbc046b6831c77cfcea5457e17084)
REM
REM compiler GCC version 9.2.1 20190827 (Red Hat 9.2.1-1)
REM options -cpp -mtune=generic -march=x86-64 -g -O0 -fpre-include=/usr/include/finclude/math-vector-fortran.h
REM seed -711690295 -2019396113 1050227220 -1106000107 986409965 -267553515 -386931701 858768021 1035909951 -1041736760 -779533863 -1878023133 -56675131 1313413234 -936730843 -676341655 -1133957185 -682299550 1351586465 709865364 -1329073111 149388352 -1927757262 1153660677 -690691874 648488378 -1910806911 345102 499107553 1136822185 1906467911 -4672167 861732040
REM
CELL 1.54180   50.00000   50.00000   50.00000   90.00000   90.00000   90.00000
LATT -1
SFAC C  
C      1  0.4331240000000  0.4687730000000  0.5018430000000 1.0
C      1  0.4604720000000  0.4775460000000  0.4472270000000 1.0
C      1  0.5142570000000  0.4712310000000  0.4335810000000 1.0
C      1  0.5531410000000  0.4774250000000  0.4758890000000 1.0
C      1  0.5501810000000  0.4734400000000  0.5310820000000 1.0
C      1  0.5092370000000  0.4691710000000  0.5647990000000 1.0
C      1  0.4579410000000  0.4695430000000  0.5507060000000 1.0
C      1  0.4923360000000  0.4437420000000  0.4616060000000 1.0
C      1  0.5191090000000  0.4436740000000  0.4700000000000 1.0
C      1  0.5270570000000  0.4467350000000  0.5007460000000 1.0
C      1  0.5172550000000  0.4391100000000  0.5302900000000 1.0
C      1  0.4901040000000  0.4370340000000  0.5377220000000 1.0
C      1  0.4685190000000  0.4411410000000  0.5154230000000 1.0
C      1  0.4685630000000  0.4458070000000  0.4819260000000 1.0
C      1  0.4865340000000  0.4627130000000  0.4403440000000 1.0
C      1  0.5363490000000  0.4626340000000  0.4558500000000 1.0
C      1  0.5501760000000  0.4659780000000  0.5030050000000 1.0
C      1  0.5303480000000  0.4589700000000  0.5469270000000 1.0
C      1  0.4834110000000  0.4559780000000  0.5583240000000 1.0
C      1  0.4467260000000  0.4588180000000  0.5256770000000 1.0
C      1  0.4467300000000  0.4644480000000  0.4709570000000 1.0
C      1  0.5204960000000  0.4971520000000  0.4435730000000 1.0
C      1  0.5545320000000  0.5058040000000  0.4748210000000 1.0
C      1  0.5556170000000  0.4997840000000  0.5389330000000 1.0
C      1  0.5083270000000  0.4963450000000  0.5704220000000 1.0
C      1  0.4603840000000  0.4972880000000  0.5517820000000 1.0
C      1  0.4408590000000  0.4957730000000  0.4947160000000 1.0
C      1  0.4599020000000  0.5077920000000  0.4445220000000 1.0
C      1  0.5432470000000  0.5488730000000  0.5044540000000 1.0
C      1  0.5452580000000  0.5535680000000  0.5316290000000 1.0
C      1  0.4814520000000  0.5125610000000  0.5668260000000 1.0
C      1  0.4545230000000  0.5216830000000  0.5065320000000 1.0
C      1  0.4535900000000  0.5257160000000  0.4727720000000 1.0
C      1  0.5191570000000  0.5287420000000  0.4473220000000 1.0
C      1  0.5491600000000  0.5233340000000  0.4525090000000 1.0
C      1  0.4780910000000  0.5085270000000  0.5272880000000 1.0
C      1  0.4711770000000  0.4970770000000  0.4804270000000 1.0
C      1  0.4895200000000  0.5160920000000  0.4590170000000 1.0
C      1  0.5149110000000  0.5020490000000  0.4767550000000 1.0
C      1  0.5365590000000  0.5176230000000  0.4978770000000 1.0
C      1  0.5340600000000  0.5214630000000  0.5318490000000 1.0
C      1  0.5072160000000  0.5162000000000  0.5439170000000 1.0
C      1  0.4966340000000  0.4241680000000  0.4961410000000 1.0
C      1  0.5010630000000  0.3716380000000  0.4934180000000 1.0
C      1  0.5000280000000  0.6324450000000  0.4944330000000 1.0
C      1  0.4949900000000  0.4579910000000  0.4995350000000 1.0
C      1  0.5023290000000  0.6585330000000  0.4954970000000 1.0
C      1  0.4984590000000  0.3980130000000  0.4960410000000 1.0
C      1  0.4978080000000  0.6059430000000  0.4959490000000 1.0
C      1  0.4942190000000  0.4923920000000  0.5020450000000 1.0
C      1  0.4970300000000  0.5527620000000  0.4973950000000 1.0
C      1  0.4945550000000  0.5261960000000  0.4981150000000 1.0
C      1  0.5046590000000  0.3456780000000  0.4931760000000 1.0
C      1  0.4971890000000  0.5793210000000  0.4953760000000 1.0
END
