TITL C-2622967-6265-186 -0.000528593554116467 125000 -862.130189654937 0 0 156 (C1) n - 1
REM
REM in /nfs/bkarasulu/CARBON/AIRSS/Generating-Clusters/AIREBO/with-SteepDescent/Higher-Symm/SD-CG/HFTN-CG
REM
REM
REM
REM
REM
REM ./C.cell (b20cbc046b6831c77cfcea5457e17084)
REM
REM compiler GCC version 9.2.1 20190827 (Red Hat 9.2.1-1)
REM options -cpp -mtune=generic -march=x86-64 -g -O0 -fpre-include=/usr/include/finclude/math-vector-fortran.h
REM seed 1379665655 461008564 1872647740 703701184 -1627677984 -2046772090 -1887315500 -152380966 1972795167 556479695 -103753445 -125296531 147740610 -2145999019 -1014890918 888754052 -1321034807 20639933 660628378 1133836029 -1870437259 -2027661504 352034015 -1194736618 759342179 1541264911 -1920616620 -1598161015 1759283081 -1454494473 -624869648 -1759386441 -1955470294
REM
CELL 1.54180   50.00000   50.00000   50.00000   90.00000   90.00000   90.00000
LATT -1
SFAC C  
C      1  0.5078210000000  0.4735550000000  0.6086540000000 1.0
C      1  0.6091840000000  0.5052360000000  0.4690240000000 1.0
C      1  0.4724030000000  0.6099220000000  0.5147130000000 1.0
C      1  0.5044150000000  0.5376650000000  0.6144720000000 1.0
C      1  0.4905630000000  0.4621930000000  0.3973410000000 1.0
C      1  0.5079160000000  0.5260480000000  0.3906050000000 1.0
C      1  0.3869340000000  0.4928670000000  0.4677690000000 1.0
C      1  0.3961630000000  0.5131930000000  0.5295730000000 1.0
C      1  0.5994250000000  0.4889350000000  0.5328490000000 1.0
C      1  0.5298020000000  0.3986610000000  0.5100740000000 1.0
C      1  0.5426510000000  0.6003310000000  0.5049800000000 1.0
C      1  0.4847740000000  0.3810280000000  0.4773710000000 1.0
C      1  0.4580530000000  0.5002320000000  0.6056970000000 1.0
C      1  0.5210330000000  0.6087090000000  0.4851290000000 1.0
C      1  0.6063870000000  0.4686470000000  0.5108550000000 1.0
C      1  0.5256060000000  0.4923430000000  0.6195950000000 1.0
C      1  0.4685510000000  0.4801800000000  0.3915130000000 1.0
C      1  0.5193670000000  0.5036180000000  0.3903330000000 1.0
C      1  0.5067060000000  0.3759910000000  0.4608780000000 1.0
C      1  0.5063670000000  0.3953700000000  0.5232640000000 1.0
C      1  0.4930190000000  0.6051640000000  0.5345320000000 1.0
C      1  0.3871720000000  0.5368840000000  0.5132450000000 1.0
C      1  0.6020840000000  0.5262830000000  0.4915550000000 1.0
C      1  0.3963740000000  0.4730290000000  0.4895880000000 1.0
C      1  0.4480980000000  0.4687330000000  0.4239670000000 1.0
C      1  0.4403240000000  0.4475990000000  0.4701800000000 1.0
C      1  0.4724130000000  0.4269210000000  0.4374370000000 1.0
C      1  0.5401870000000  0.5339220000000  0.4359360000000 1.0
C      1  0.5488040000000  0.4730620000000  0.5740590000000 1.0
C      1  0.4594210000000  0.5321810000000  0.5816800000000 1.0
C      1  0.5675330000000  0.5492330000000  0.4607870000000 1.0
C      1  0.5706770000000  0.4550090000000  0.5225120000000 1.0
C      1  0.4339150000000  0.5547960000000  0.5325990000000 1.0
C      1  0.5220120000000  0.5804670000000  0.4504060000000 1.0
C      1  0.5226290000000  0.4457070000000  0.5391760000000 1.0
C      1  0.4739890000000  0.5773970000000  0.5557820000000 1.0
C      1  0.4729610000000  0.4562740000000  0.4326240000000 1.0
C      1  0.4602620000000  0.4214520000000  0.4642490000000 1.0
C      1  0.4276370000000  0.4653390000000  0.4490620000000 1.0
C      1  0.5228980000000  0.5563150000000  0.4265400000000 1.0
C      1  0.4746680000000  0.5593590000000  0.5823510000000 1.0
C      1  0.5234130000000  0.4564980000000  0.5702170000000 1.0
C      1  0.5471080000000  0.5736720000000  0.4652080000000 1.0
C      1  0.4617650000000  0.5735050000000  0.5270760000000 1.0
C      1  0.5431650000000  0.4363780000000  0.5202150000000 1.0
C      1  0.5673060000000  0.5185410000000  0.4495080000000 1.0
C      1  0.4401280000000  0.5348010000000  0.5546380000000 1.0
C      1  0.5710030000000  0.4680670000000  0.5513550000000 1.0
C      1  0.4955180000000  0.4573580000000  0.4768040000000 1.0
C      1  0.4772550000000  0.5023200000000  0.4607190000000 1.0
C      1  0.4518080000000  0.4678250000000  0.4906590000000 1.0
C      1  0.4983010000000  0.5453760000000  0.4815220000000 1.0
C      1  0.5023920000000  0.4621380000000  0.5244260000000 1.0
C      1  0.4980060000000  0.5463940000000  0.5215050000000 1.0
C      1  0.5262700000000  0.5129740000000  0.4541290000000 1.0
C      1  0.5199940000000  0.5057410000000  0.5405200000000 1.0
C      1  0.4706770000000  0.5006860000000  0.5497740000000 1.0
C      1  0.5493650000000  0.5330980000000  0.5101880000000 1.0
C      1  0.5318850000000  0.4890540000000  0.4934410000000 1.0
C      1  0.4612630000000  0.5162890000000  0.5045210000000 1.0
C      1  0.4626440000000  0.4977310000000  0.4866880000000 1.0
C      1  0.4877510000000  0.4742060000000  0.4542560000000 1.0
C      1  0.4768750000000  0.4546580000000  0.5051630000000 1.0
C      1  0.5388090000000  0.4920440000000  0.4663660000000 1.0
C      1  0.4491510000000  0.5140400000000  0.5332040000000 1.0
C      1  0.5405720000000  0.5052380000000  0.5184480000000 1.0
C      1  0.5015100000000  0.5198130000000  0.4647920000000 1.0
C      1  0.4942810000000  0.5253030000000  0.5480520000000 1.0
C      1  0.4955550000000  0.4872990000000  0.5371500000000 1.0
C      1  0.5247820000000  0.5491650000000  0.5019110000000 1.0
C      1  0.4729120000000  0.5426620000000  0.5000460000000 1.0
C      1  0.5124950000000  0.4708910000000  0.4975740000000 1.0
C      1  0.5032480000000  0.4717200000000  0.4259710000000 1.0
C      1  0.4205620000000  0.4904930000000  0.4632720000000 1.0
C      1  0.4810470000000  0.4105360000000  0.4848320000000 1.0
C      1  0.4992230000000  0.5462030000000  0.4115180000000 1.0
C      1  0.5014270000000  0.4817210000000  0.5762710000000 1.0
C      1  0.4990030000000  0.5366330000000  0.5797870000000 1.0
C      1  0.5764680000000  0.4997130000000  0.4764620000000 1.0
C      1  0.5658240000000  0.4935780000000  0.5302530000000 1.0
C      1  0.4243960000000  0.5059800000000  0.5158370000000 1.0
C      1  0.5389860000000  0.5740530000000  0.4929710000000 1.0
C      1  0.5310150000000  0.4272150000000  0.4928020000000 1.0
C      1  0.4793390000000  0.5816560000000  0.4990740000000 1.0
C      1  0.4557440000000  0.4972660000000  0.4150930000000 1.0
C      1  0.5050230000000  0.4289770000000  0.4752080000000 1.0
C      1  0.4255370000000  0.4859230000000  0.4954730000000 1.0
C      1  0.5269550000000  0.4810610000000  0.4066350000000 1.0
C      1  0.4825340000000  0.5078420000000  0.5872950000000 1.0
C      1  0.5302270000000  0.4985660000000  0.5689120000000 1.0
C      1  0.4994780000000  0.5849030000000  0.4755280000000 1.0
C      1  0.5001780000000  0.5720950000000  0.5380800000000 1.0
C      1  0.4777450000000  0.4141890000000  0.5176020000000 1.0
C      1  0.5692720000000  0.5311520000000  0.4872610000000 1.0
C      1  0.4211330000000  0.5383130000000  0.5113170000000 1.0
C      1  0.5762010000000  0.4812030000000  0.5015150000000 1.0
C      1  0.5675340000000  0.5470730000000  0.5333790000000 1.0
C      1  0.5292260000000  0.5731020000000  0.5557830000000 1.0
C      1  0.5475450000000  0.5251340000000  0.5762620000000 1.0
C      1  0.4256100000000  0.4528270000000  0.5283550000000 1.0
C      1  0.4260050000000  0.5461220000000  0.4789650000000 1.0
C      1  0.5761560000000  0.4471440000000  0.4704400000000 1.0
C      1  0.4720430000000  0.4337600000000  0.5452840000000 1.0
C      1  0.4870680000000  0.5617760000000  0.4539060000000 1.0
C      1  0.5295290000000  0.4214500000000  0.4533670000000 1.0
C      1  0.4504900000000  0.4776920000000  0.5646560000000 1.0
C      1  0.4583670000000  0.5168420000000  0.4399810000000 1.0
C      1  0.5492890000000  0.4612440000000  0.4290230000000 1.0
C      1  0.5559680000000  0.5745630000000  0.5416140000000 1.0
C      1  0.5722580000000  0.5282000000000  0.5576370000000 1.0
C      1  0.5295910000000  0.5510050000000  0.5760280000000 1.0
C      1  0.4511720000000  0.4435440000000  0.5224230000000 1.0
C      1  0.5569560000000  0.4235980000000  0.4720140000000 1.0
C      1  0.4508050000000  0.5660790000000  0.4890980000000 1.0
C      1  0.4245950000000  0.4717830000000  0.5489370000000 1.0
C      1  0.5662240000000  0.4755520000000  0.4548120000000 1.0
C      1  0.4296100000000  0.5222110000000  0.4550200000000 1.0
C      1  0.4770290000000  0.4586270000000  0.5681730000000 1.0
C      1  0.5297940000000  0.4392700000000  0.4285510000000 1.0
C      1  0.4729590000000  0.5423490000000  0.4327630000000 1.0
C      1  0.4681830000000  0.5587090000000  0.4051750000000 1.0
C      1  0.4030430000000  0.4904160000000  0.5477090000000 1.0
C      1  0.5557350000000  0.3965250000000  0.4929650000000 1.0
C      1  0.5078850000000  0.4356810000000  0.4097250000000 1.0
C      1  0.5208920000000  0.5577020000000  0.6057470000000 1.0
C      1  0.4882470000000  0.4523370000000  0.5996530000000 1.0
C      1  0.5928960000000  0.5102740000000  0.5542800000000 1.0
C      1  0.5976740000000  0.4873950000000  0.4451340000000 1.0
C      1  0.3954250000000  0.5196970000000  0.4550630000000 1.0
C      1  0.4436330000000  0.5977670000000  0.5014160000000 1.0
C      1  0.4660540000000  0.3625270000000  0.4848840000000 1.0
C      1  0.5590450000000  0.5976860000000  0.5274310000000 1.0
C      1  0.5566170000000  0.4708220000000  0.4001740000000 1.0
C      1  0.4865410000000  0.4031620000000  0.5484080000000 1.0
C      1  0.3927910000000  0.5494720000000  0.4861890000000 1.0
C      1  0.4586320000000  0.4831190000000  0.3665390000000 1.0
C      1  0.5432140000000  0.5081840000000  0.6054170000000 1.0
C      1  0.4411780000000  0.4859310000000  0.5933510000000 1.0
C      1  0.5147530000000  0.6040700000000  0.5559960000000 1.0
C      1  0.4766800000000  0.5910400000000  0.4435790000000 1.0
C      1  0.5236680000000  0.3914450000000  0.4462820000000 1.0
C      1  0.5964440000000  0.4491650000000  0.4890350000000 1.0
C      1  0.4027640000000  0.4529330000000  0.5107120000000 1.0
C      1  0.5953090000000  0.5455520000000  0.5137890000000 1.0
C      1  0.5725870000000  0.4229120000000  0.5243380000000 1.0
C      1  0.4299480000000  0.5867100000000  0.5271140000000 1.0
C      1  0.5655330000000  0.5207430000000  0.4171960000000 1.0
C      1  0.4275070000000  0.4177310000000  0.4726380000000 1.0
C      1  0.5794970000000  0.5787520000000  0.4560160000000 1.0
C      1  0.5283520000000  0.5878210000000  0.4196880000000 1.0
C      1  0.5203180000000  0.4255280000000  0.5660970000000 1.0
C      1  0.4743900000000  0.5915220000000  0.5849500000000 1.0
C      1  0.5799800000000  0.4705400000000  0.5823190000000 1.0
C      1  0.4270940000000  0.5297270000000  0.5837370000000 1.0
C      1  0.4887440000000  0.4158040000000  0.4186360000000 1.0
C      1  0.4172050000000  0.4550480000000  0.4201410000000 1.0
END
