TITL C-2622954-8726-280 -0.00323073004486086 125000 -608.516850936399 0 0 105 (C1) n - 1
REM
REM in /nfs/bkarasulu/CARBON/AIRSS/Generating-Clusters/AIREBO/with-SteepDescent/Higher-Symm/SD-CG/HFTN-CG
REM
REM
REM
REM
REM
REM ./C.cell (b20cbc046b6831c77cfcea5457e17084)
REM
REM compiler GCC version 9.2.1 20190827 (Red Hat 9.2.1-1)
REM options -cpp -mtune=generic -march=x86-64 -g -O0 -fpre-include=/usr/include/finclude/math-vector-fortran.h
REM seed 840067057 -857260687 -346104698 -984683504 1807910754 -169886316 -1053781877 -1098583939 171488722 -1247259182 1597546800 987737956 -1994227003 -1188018244 -1291180534 26626826 2079891065 -2111505749 -394283633 1124659294 1410680679 -1607768828 454489115 -188173655 -741227710 1524013566 659244342 834913460 1585197074 -333018648 1344770222 1021987359 649504819
REM
CELL 1.54180   50.00000   50.00000   50.00000   90.00000   90.00000   90.00000
LATT -1
SFAC C  
C      1  0.4956100000000  0.5306110000000  0.5094840000000 1.0
C      1  0.4744280000000  0.5044660000000  0.5107190000000 1.0
C      1  0.4925200000000  0.4760710000000  0.5133030000000 1.0
C      1  0.5248570000000  0.4856980000000  0.5148940000000 1.0
C      1  0.5263690000000  0.5171680000000  0.5040400000000 1.0
C      1  0.5588330000000  0.4578880000000  0.4649760000000 1.0
C      1  0.5634290000000  0.5305750000000  0.4641530000000 1.0
C      1  0.4836230000000  0.5541650000000  0.4499320000000 1.0
C      1  0.4215560000000  0.5125580000000  0.4512830000000 1.0
C      1  0.4685320000000  0.4376530000000  0.4633480000000 1.0
C      1  0.5090440000000  0.4201890000000  0.4275770000000 1.0
C      1  0.5801270000000  0.4813590000000  0.4591550000000 1.0
C      1  0.5295880000000  0.5726630000000  0.4348900000000 1.0
C      1  0.4375420000000  0.5574260000000  0.4327180000000 1.0
C      1  0.4201990000000  0.4849650000000  0.4449730000000 1.0
C      1  0.4977950000000  0.5230730000000  0.4178250000000 1.0
C      1  0.4705690000000  0.5150020000000  0.4209830000000 1.0
C      1  0.4691940000000  0.4862080000000  0.4186940000000 1.0
C      1  0.4961590000000  0.4747760000000  0.4159600000000 1.0
C      1  0.5124630000000  0.4989320000000  0.4108960000000 1.0
C      1  0.4718080000000  0.5737300000000  0.4926030000000 1.0
C      1  0.4210900000000  0.5002790000000  0.4970210000000 1.0
C      1  0.4845590000000  0.4238280000000  0.4875120000000 1.0
C      1  0.5645990000000  0.4444730000000  0.4939700000000 1.0
C      1  0.5630820000000  0.5525210000000  0.4901350000000 1.0
C      1  0.4093390000000  0.4682010000000  0.4652630000000 1.0
C      1  0.5058280000000  0.4034230000000  0.4494890000000 1.0
C      1  0.6001320000000  0.4841520000000  0.4791980000000 1.0
C      1  0.5411960000000  0.5835080000000  0.4541490000000 1.0
C      1  0.4540670000000  0.5688910000000  0.4516560000000 1.0
C      1  0.5674530000000  0.4848840000000  0.5348000000000 1.0
C      1  0.5369030000000  0.5568050000000  0.5339710000000 1.0
C      1  0.4516240000000  0.5513560000000  0.5431110000000 1.0
C      1  0.4406990000000  0.4755600000000  0.5324900000000 1.0
C      1  0.5044040000000  0.4371700000000  0.5294660000000 1.0
C      1  0.4397990000000  0.5396830000000  0.5184220000000 1.0
C      1  0.4447700000000  0.4559270000000  0.5050010000000 1.0
C      1  0.5269010000000  0.4377480000000  0.5094750000000 1.0
C      1  0.5754540000000  0.5079610000000  0.5167170000000 1.0
C      1  0.5223650000000  0.5697240000000  0.5086830000000 1.0
C      1  0.5041020000000  0.4500200000000  0.4265270000000 1.0
C      1  0.5745370000000  0.5046430000000  0.4451720000000 1.0
C      1  0.5091240000000  0.5468250000000  0.4338190000000 1.0
C      1  0.4437390000000  0.5274280000000  0.4362130000000 1.0
C      1  0.4445600000000  0.4754370000000  0.4309150000000 1.0
C      1  0.4502270000000  0.5374900000000  0.5683840000000 1.0
C      1  0.4512400000000  0.4681700000000  0.5616160000000 1.0
C      1  0.5147200000000  0.4446150000000  0.5596700000000 1.0
C      1  0.5587490000000  0.4961240000000  0.5637630000000 1.0
C      1  0.5196950000000  0.5518140000000  0.5607450000000 1.0
C      1  0.4771470000000  0.5633930000000  0.5409540000000 1.0
C      1  0.4247000000000  0.5032490000000  0.5466690000000 1.0
C      1  0.4726290000000  0.4303330000000  0.5419570000000 1.0
C      1  0.5607260000000  0.4524750000000  0.5466230000000 1.0
C      1  0.5642120000000  0.5415200000000  0.5472750000000 1.0
C      1  0.4909080000000  0.5787550000000  0.4714050000000 1.0
C      1  0.4170640000000  0.5202530000000  0.4779610000000 1.0
C      1  0.4451800000000  0.4174050000000  0.4742670000000 1.0
C      1  0.5583550000000  0.4176420000000  0.4951470000000 1.0
C      1  0.5929780000000  0.5456040000000  0.4754820000000 1.0
C      1  0.4777990000000  0.4925140000000  0.4803310000000 1.0
C      1  0.4934510000000  0.4648360000000  0.4811180000000 1.0
C      1  0.5168290000000  0.4847380000000  0.4829500000000 1.0
C      1  0.5246940000000  0.5128360000000  0.4702300000000 1.0
C      1  0.4950710000000  0.5181050000000  0.4793830000000 1.0
C      1  0.5187120000000  0.5503840000000  0.4809470000000 1.0
C      1  0.4536950000000  0.5322140000000  0.4882980000000 1.0
C      1  0.4531900000000  0.4627530000000  0.4727610000000 1.0
C      1  0.5287770000000  0.4470870000000  0.4768070000000 1.0
C      1  0.5630100000000  0.5068050000000  0.4871820000000 1.0
C      1  0.5328830000000  0.5383670000000  0.4550000000000 1.0
C      1  0.4684100000000  0.5252610000000  0.4595240000000 1.0
C      1  0.4584410000000  0.4922940000000  0.4567010000000 1.0
C      1  0.5006950000000  0.4449500000000  0.4577470000000 1.0
C      1  0.5472620000000  0.4819670000000  0.4818750000000 1.0
C      1  0.5057880000000  0.4079660000000  0.4776280000000 1.0
C      1  0.6013740000000  0.5052730000000  0.4980930000000 1.0
C      1  0.5466430000000  0.5781680000000  0.4864040000000 1.0
C      1  0.4474610000000  0.5705350000000  0.4791160000000 1.0
C      1  0.4189240000000  0.4732360000000  0.4912600000000 1.0
C      1  0.4753610000000  0.4938340000000  0.5951520000000 1.0
C      1  0.4963980000000  0.4740490000000  0.5940070000000 1.0
C      1  0.5216540000000  0.4880960000000  0.5945560000000 1.0
C      1  0.5162480000000  0.5164830000000  0.5948590000000 1.0
C      1  0.4876120000000  0.5200020000000  0.5958080000000 1.0
C      1  0.5293950000000  0.4103340000000  0.4922900000000 1.0
C      1  0.6109030000000  0.5301910000000  0.4887110000000 1.0
C      1  0.5142430000000  0.5900860000000  0.4826870000000 1.0
C      1  0.4248630000000  0.5501860000000  0.4896360000000 1.0
C      1  0.4339140000000  0.4256140000000  0.4959280000000 1.0
C      1  0.4439770000000  0.5065430000000  0.5188510000000 1.0
C      1  0.4765620000000  0.4460690000000  0.5120700000000 1.0
C      1  0.5481460000000  0.4631760000000  0.5171130000000 1.0
C      1  0.5527130000000  0.5332220000000  0.5152350000000 1.0
C      1  0.4900990000000  0.5606630000000  0.5144690000000 1.0
C      1  0.4760150000000  0.5410870000000  0.5813990000000 1.0
C      1  0.4522210000000  0.4898620000000  0.5798600000000 1.0
C      1  0.4934670000000  0.4519720000000  0.5767890000000 1.0
C      1  0.5429200000000  0.4785270000000  0.5791350000000 1.0
C      1  0.5316160000000  0.5330320000000  0.5781820000000 1.0
C      1  0.5563480000000  0.5236540000000  0.5676900000000 1.0
C      1  0.4926830000000  0.5566420000000  0.5635180000000 1.0
C      1  0.4374520000000  0.5122050000000  0.5701210000000 1.0
C      1  0.4683730000000  0.4465990000000  0.5645970000000 1.0
C      1  0.5406080000000  0.4531130000000  0.5664910000000 1.0
END
