TITL C-2622967-6265-174 0.0014993425942556 125000 -829.248522940589 0 0 152 (C1) n - 1
REM
REM in /nfs/bkarasulu/CARBON/AIRSS/Generating-Clusters/AIREBO/with-SteepDescent/Higher-Symm/SD-CG/HFTN-CG
REM
REM
REM
REM
REM
REM ./C.cell (b20cbc046b6831c77cfcea5457e17084)
REM
REM compiler GCC version 9.2.1 20190827 (Red Hat 9.2.1-1)
REM options -cpp -mtune=generic -march=x86-64 -g -O0 -fpre-include=/usr/include/finclude/math-vector-fortran.h
REM seed 1910052106 394455125 1472579754 1299091562 -1482865569 -1013125638 1327087847 -2062212804 1760912371 2131261161 393722153 -1169877887 -1795638891 1344023893 150508841 -1126745368 1150715609 -1135423508 -2003723770 1044805609 -1174521766 -1496757476 663998387 -492627937 -801185814 -177537279 1245589879 1712432582 -401157653 -2073315677 -1051098767 832267319 -574033617
REM
CELL 1.54180   50.00000   50.00000   50.00000   90.00000   90.00000   90.00000
LATT -1
SFAC C  
C      1  0.4679530000000  0.4254280000000  0.5177340000000 1.0
C      1  0.5268970000000  0.5730240000000  0.5421470000000 1.0
C      1  0.5022260000000  0.5039660000000  0.4089920000000 1.0
C      1  0.4874470000000  0.3905840000000  0.5164550000000 1.0
C      1  0.5698780000000  0.4269780000000  0.4916310000000 1.0
C      1  0.5861550000000  0.5611430000000  0.4697250000000 1.0
C      1  0.4671900000000  0.5827080000000  0.4823160000000 1.0
C      1  0.5688610000000  0.5816500000000  0.5097670000000 1.0
C      1  0.5841990000000  0.5165460000000  0.4470590000000 1.0
C      1  0.4282330000000  0.5505490000000  0.5112550000000 1.0
C      1  0.4898460000000  0.5047990000000  0.5298520000000 1.0
C      1  0.4380900000000  0.4888990000000  0.4715880000000 1.0
C      1  0.4852990000000  0.4771960000000  0.4853690000000 1.0
C      1  0.5682340000000  0.4766050000000  0.5487760000000 1.0
C      1  0.4419260000000  0.5802950000000  0.5131690000000 1.0
C      1  0.5081770000000  0.5297940000000  0.5219440000000 1.0
C      1  0.5028200000000  0.4829340000000  0.5107550000000 1.0
C      1  0.4439780000000  0.5339650000000  0.4466350000000 1.0
C      1  0.3958930000000  0.4801260000000  0.5481960000000 1.0
C      1  0.4672520000000  0.5487350000000  0.4619480000000 1.0
C      1  0.5326360000000  0.5255930000000  0.5963480000000 1.0
C      1  0.5453020000000  0.4577570000000  0.4859480000000 1.0
C      1  0.5512100000000  0.5076780000000  0.5752700000000 1.0
C      1  0.4794680000000  0.4356760000000  0.4327110000000 1.0
C      1  0.5160470000000  0.4635450000000  0.4593160000000 1.0
C      1  0.4425570000000  0.4044270000000  0.5246220000000 1.0
C      1  0.4041740000000  0.5322670000000  0.4974430000000 1.0
C      1  0.4923000000000  0.4930500000000  0.5678070000000 1.0
C      1  0.4552700000000  0.4470780000000  0.4237590000000 1.0
C      1  0.4528830000000  0.5399840000000  0.5605390000000 1.0
C      1  0.4812000000000  0.4631320000000  0.3885360000000 1.0
C      1  0.5421600000000  0.4326880000000  0.5540090000000 1.0
C      1  0.5247500000000  0.4821470000000  0.5952480000000 1.0
C      1  0.4868160000000  0.5767740000000  0.5738540000000 1.0
C      1  0.5705640000000  0.4618130000000  0.4430480000000 1.0
C      1  0.6064230000000  0.5071810000000  0.5327000000000 1.0
C      1  0.4592330000000  0.4920070000000  0.5598820000000 1.0
C      1  0.4738550000000  0.5917080000000  0.5123500000000 1.0
C      1  0.5256660000000  0.4894830000000  0.5620500000000 1.0
C      1  0.4431830000000  0.4749510000000  0.5250220000000 1.0
C      1  0.4858760000000  0.4348090000000  0.5801750000000 1.0
C      1  0.4753620000000  0.5407630000000  0.3951460000000 1.0
C      1  0.5049850000000  0.5554120000000  0.5617760000000 1.0
C      1  0.5536790000000  0.5685130000000  0.5626240000000 1.0
C      1  0.5541930000000  0.5050690000000  0.4581390000000 1.0
C      1  0.5381880000000  0.5964240000000  0.4650190000000 1.0
C      1  0.5678310000000  0.4804140000000  0.4950580000000 1.0
C      1  0.3958520000000  0.4777190000000  0.4982450000000 1.0
C      1  0.4853700000000  0.5082840000000  0.6041080000000 1.0
C      1  0.4868180000000  0.5085500000000  0.4722780000000 1.0
C      1  0.5270860000000  0.5188420000000  0.5453940000000 1.0
C      1  0.5420920000000  0.4667190000000  0.4376600000000 1.0
C      1  0.4047280000000  0.4816550000000  0.5748050000000 1.0
C      1  0.4387600000000  0.5125990000000  0.5455130000000 1.0
C      1  0.5337530000000  0.5713600000000  0.4896420000000 1.0
C      1  0.5555550000000  0.5075980000000  0.5105990000000 1.0
C      1  0.5555000000000  0.5499460000000  0.4344670000000 1.0
C      1  0.4535750000000  0.4679240000000  0.4934210000000 1.0
C      1  0.4562580000000  0.4815380000000  0.4438080000000 1.0
C      1  0.4180590000000  0.5497660000000  0.4726500000000 1.0
C      1  0.5812870000000  0.5454780000000  0.4463860000000 1.0
C      1  0.4925440000000  0.5593630000000  0.4056760000000 1.0
C      1  0.4646330000000  0.4563270000000  0.5857840000000 1.0
C      1  0.5830000000000  0.5533650000000  0.5204760000000 1.0
C      1  0.4821590000000  0.5776940000000  0.4521900000000 1.0
C      1  0.4465520000000  0.5372610000000  0.4863590000000 1.0
C      1  0.4294650000000  0.4360930000000  0.5530640000000 1.0
C      1  0.5015420000000  0.5280750000000  0.4287580000000 1.0
C      1  0.5127870000000  0.5951570000000  0.5204110000000 1.0
C      1  0.5347120000000  0.4791760000000  0.4139570000000 1.0
C      1  0.5656540000000  0.4470630000000  0.5639290000000 1.0
C      1  0.6012360000000  0.5172520000000  0.4859570000000 1.0
C      1  0.4812390000000  0.4219370000000  0.4597350000000 1.0
C      1  0.4331970000000  0.5133290000000  0.4268210000000 1.0
C      1  0.4594830000000  0.5640060000000  0.5373070000000 1.0
C      1  0.4842930000000  0.4730150000000  0.4516400000000 1.0
C      1  0.4765600000000  0.5408740000000  0.5190750000000 1.0
C      1  0.4862640000000  0.5385330000000  0.4882420000000 1.0
C      1  0.4167050000000  0.4956450000000  0.5302100000000 1.0
C      1  0.4377770000000  0.4304860000000  0.5034260000000 1.0
C      1  0.5368000000000  0.4640910000000  0.5421120000000 1.0
C      1  0.5874280000000  0.5327210000000  0.5422560000000 1.0
C      1  0.5495830000000  0.5588860000000  0.5241510000000 1.0
C      1  0.4022110000000  0.5060960000000  0.5042820000000 1.0
C      1  0.4320650000000  0.4402640000000  0.4742350000000 1.0
C      1  0.4096610000000  0.4987700000000  0.4379280000000 1.0
C      1  0.4991960000000  0.4597930000000  0.5661130000000 1.0
C      1  0.4924960000000  0.6067500000000  0.4627890000000 1.0
C      1  0.4507820000000  0.4141600000000  0.4681840000000 1.0
C      1  0.5113690000000  0.4148980000000  0.4635430000000 1.0
C      1  0.6133170000000  0.4972280000000  0.5072920000000 1.0
C      1  0.5483620000000  0.4144560000000  0.5063810000000 1.0
C      1  0.4897710000000  0.5252290000000  0.5570660000000 1.0
C      1  0.4078090000000  0.4717870000000  0.4373900000000 1.0
C      1  0.5295300000000  0.4907130000000  0.4698940000000 1.0
C      1  0.3957660000000  0.4624980000000  0.5227600000000 1.0
C      1  0.5331350000000  0.5662790000000  0.4501170000000 1.0
C      1  0.4763500000000  0.4444030000000  0.4837830000000 1.0
C      1  0.5136080000000  0.5070120000000  0.6075340000000 1.0
C      1  0.5974570000000  0.5476050000000  0.4923240000000 1.0
C      1  0.4708250000000  0.5233110000000  0.5838850000000 1.0
C      1  0.4632450000000  0.4998500000000  0.5167550000000 1.0
C      1  0.5878870000000  0.4503560000000  0.5411380000000 1.0
C      1  0.5742930000000  0.5023450000000  0.5372650000000 1.0
C      1  0.4226620000000  0.4486790000000  0.5243600000000 1.0
C      1  0.5888820000000  0.4894500000000  0.4767220000000 1.0
C      1  0.5465490000000  0.4127510000000  0.5344580000000 1.0
C      1  0.5663930000000  0.5362700000000  0.5642740000000 1.0
C      1  0.5283860000000  0.4926520000000  0.4991030000000 1.0
C      1  0.5896750000000  0.4480290000000  0.5095510000000 1.0
C      1  0.5646480000000  0.5804210000000  0.4786980000000 1.0
C      1  0.4720630000000  0.5875300000000  0.5534900000000 1.0
C      1  0.4752290000000  0.4808740000000  0.5946090000000 1.0
C      1  0.4311760000000  0.4885450000000  0.5788020000000 1.0
C      1  0.5061360000000  0.4712710000000  0.4051140000000 1.0
C      1  0.5152710000000  0.6065840000000  0.4880490000000 1.0
C      1  0.4877540000000  0.4140270000000  0.5588750000000 1.0
C      1  0.5225920000000  0.4182660000000  0.4927510000000 1.0
C      1  0.5158760000000  0.5161990000000  0.4558470000000 1.0
C      1  0.4543290000000  0.4957650000000  0.4133870000000 1.0
C      1  0.5369280000000  0.5356590000000  0.5105760000000 1.0
C      1  0.5009170000000  0.5767240000000  0.4870110000000 1.0
C      1  0.5168360000000  0.5358370000000  0.4833840000000 1.0
C      1  0.4912310000000  0.4173450000000  0.4980590000000 1.0
C      1  0.4314940000000  0.4089430000000  0.5494670000000 1.0
C      1  0.5074290000000  0.4486430000000  0.4299690000000 1.0
C      1  0.4754810000000  0.5136620000000  0.4020930000000 1.0
C      1  0.4585140000000  0.5097600000000  0.4888730000000 1.0
C      1  0.5329150000000  0.5418650000000  0.5664940000000 1.0
C      1  0.5417110000000  0.5227000000000  0.4344160000000 1.0
C      1  0.5678090000000  0.5228030000000  0.4827650000000 1.0
C      1  0.4355040000000  0.5751980000000  0.4807170000000 1.0
C      1  0.4940480000000  0.5669280000000  0.5175640000000 1.0
C      1  0.5467430000000  0.5451140000000  0.4730220000000 1.0
C      1  0.5090440000000  0.4558400000000  0.5238730000000 1.0
C      1  0.5573800000000  0.4563790000000  0.5161450000000 1.0
C      1  0.4824810000000  0.4435580000000  0.5413450000000 1.0
C      1  0.5425060000000  0.5047140000000  0.4096850000000 1.0
C      1  0.5570570000000  0.4393290000000  0.4625250000000 1.0
C      1  0.4202460000000  0.5168910000000  0.4641980000000 1.0
C      1  0.4859790000000  0.6086660000000  0.5366920000000 1.0
C      1  0.4121910000000  0.4676760000000  0.4773970000000 1.0
C      1  0.4336750000000  0.4562060000000  0.4458910000000 1.0
C      1  0.4582250000000  0.4660350000000  0.4033720000000 1.0
C      1  0.5301940000000  0.4288670000000  0.4457100000000 1.0
C      1  0.4546430000000  0.4589460000000  0.5533820000000 1.0
C      1  0.4931370000000  0.3918700000000  0.5433810000000 1.0
C      1  0.6118140000000  0.4701190000000  0.5031230000000 1.0
C      1  0.5866130000000  0.4838550000000  0.4484660000000 1.0
C      1  0.5150300000000  0.4505300000000  0.4907880000000 1.0
C      1  0.5046340000000  0.5611320000000  0.4362120000000 1.0
C      1  0.4261640000000  0.5424980000000  0.5404360000000 1.0
END
