TITL C-2622963-3633-360 -0.00274852104093363 125000 -574.162328173365 0 0 115 (C1) n - 1
REM
REM in /nfs/bkarasulu/CARBON/AIRSS/Generating-Clusters/AIREBO/with-SteepDescent/Higher-Symm/SD-CG/HFTN-CG
REM
REM
REM
REM
REM
REM ./C.cell (b20cbc046b6831c77cfcea5457e17084)
REM
REM compiler GCC version 9.2.1 20190827 (Red Hat 9.2.1-1)
REM options -cpp -mtune=generic -march=x86-64 -g -O0 -fpre-include=/usr/include/finclude/math-vector-fortran.h
REM seed 804006777 -1712264415 -163697317 -413261713 -1423222808 653951328 1963017141 -726603250 -1367289270 -957949769 -1450580804 -1128789685 -1539515098 -902162507 944969963 1737693603 604434560 -50911758 -927904387 565849228 -1148050987 -1394400407 -2011286515 515014828 -223053875 714097932 346033112 1436049020 -676307059 2103644847 -1701855542 -817182820 1519318715
REM
CELL 1.54180   50.00000   50.00000   50.00000   90.00000   90.00000   90.00000
LATT -1
SFAC C  
C      1  0.5331250000000  0.4434720000000  0.5342370000000 1.0
C      1  0.4583500000000  0.4236520000000  0.5363640000000 1.0
C      1  0.4654060000000  0.4234300000000  0.4619180000000 1.0
C      1  0.5461270000000  0.4382240000000  0.4630210000000 1.0
C      1  0.4656410000000  0.5581320000000  0.5382300000000 1.0
C      1  0.5389220000000  0.5795390000000  0.5332980000000 1.0
C      1  0.5428820000000  0.5813910000000  0.4595570000000 1.0
C      1  0.4621770000000  0.5729840000000  0.4619420000000 1.0
C      1  0.4585160000000  0.4849590000000  0.5344900000000 1.0
C      1  0.4603330000000  0.4841500000000  0.4665200000000 1.0
C      1  0.5340840000000  0.4831030000000  0.4580480000000 1.0
C      1  0.5217870000000  0.4856170000000  0.5471410000000 1.0
C      1  0.5252980000000  0.5139270000000  0.5292780000000 1.0
C      1  0.5380840000000  0.5150880000000  0.4683970000000 1.0
C      1  0.4704860000000  0.5162810000000  0.4607320000000 1.0
C      1  0.4629670000000  0.5183780000000  0.5342930000000 1.0
C      1  0.5649230000000  0.4815950000000  0.5511410000000 1.0
C      1  0.4448870000000  0.4787350000000  0.5715460000000 1.0
C      1  0.4167920000000  0.4971170000000  0.4567360000000 1.0
C      1  0.5528870000000  0.4842490000000  0.4229260000000 1.0
C      1  0.4211900000000  0.5203910000000  0.5546330000000 1.0
C      1  0.5502830000000  0.5274000000000  0.5677320000000 1.0
C      1  0.5737590000000  0.5219190000000  0.4462740000000 1.0
C      1  0.4480380000000  0.5215590000000  0.4266110000000 1.0
C      1  0.4267580000000  0.4878100000000  0.5463100000000 1.0
C      1  0.4428410000000  0.4899140000000  0.4379240000000 1.0
C      1  0.5672290000000  0.4890230000000  0.4528020000000 1.0
C      1  0.5421590000000  0.4946820000000  0.5727610000000 1.0
C      1  0.5574080000000  0.5110950000000  0.5401100000000 1.0
C      1  0.5436510000000  0.5147530000000  0.4348260000000 1.0
C      1  0.4372390000000  0.5232310000000  0.4586870000000 1.0
C      1  0.4516230000000  0.5117200000000  0.5656660000000 1.0
C      1  0.3999980000000  0.4564450000000  0.4781710000000 1.0
C      1  0.5115390000000  0.4871820000000  0.4297800000000 1.0
C      1  0.6013830000000  0.4524440000000  0.5339980000000 1.0
C      1  0.4820470000000  0.4839090000000  0.5590440000000 1.0
C      1  0.5664630000000  0.5234300000000  0.4851940000000 1.0
C      1  0.4857650000000  0.5093410000000  0.4311390000000 1.0
C      1  0.4342740000000  0.5254040000000  0.5174090000000 1.0
C      1  0.5132350000000  0.5435980000000  0.5953530000000 1.0
C      1  0.4657880000000  0.5287520000000  0.5837820000000 1.0
C      1  0.4203150000000  0.5476430000000  0.4672550000000 1.0
C      1  0.5314600000000  0.5361050000000  0.4184940000000 1.0
C      1  0.5727850000000  0.5297600000000  0.5244370000000 1.0
C      1  0.5374390000000  0.4625840000000  0.5801760000000 1.0
C      1  0.5833920000000  0.4702230000000  0.4666280000000 1.0
C      1  0.4588480000000  0.4636730000000  0.4291860000000 1.0
C      1  0.4193490000000  0.4644430000000  0.5301120000000 1.0
C      1  0.5792040000000  0.4413230000000  0.5140980000000 1.0
C      1  0.4872180000000  0.4523700000000  0.5696710000000 1.0
C      1  0.4230530000000  0.4454990000000  0.4849390000000 1.0
C      1  0.5138000000000  0.4533840000000  0.4266100000000 1.0
C      1  0.4322100000000  0.5556450000000  0.5167620000000 1.0
C      1  0.5183480000000  0.5673920000000  0.5776400000000 1.0
C      1  0.5687750000000  0.5534470000000  0.4857540000000 1.0
C      1  0.4813060000000  0.5430540000000  0.4320810000000 1.0
C      1  0.5581600000000  0.5513060000000  0.4545790000000 1.0
C      1  0.5415430000000  0.5593490000000  0.5597030000000 1.0
C      1  0.4366540000000  0.5501450000000  0.5484700000000 1.0
C      1  0.4519210000000  0.5531250000000  0.4366260000000 1.0
C      1  0.4492610000000  0.4519200000000  0.4661350000000 1.0
C      1  0.4561170000000  0.4491110000000  0.5588150000000 1.0
C      1  0.5616870000000  0.4514310000000  0.5385230000000 1.0
C      1  0.5445190000000  0.4534160000000  0.4334050000000 1.0
C      1  0.5132990000000  0.4226060000000  0.5160810000000 1.0
C      1  0.4799110000000  0.4206810000000  0.5097940000000 1.0
C      1  0.4938970000000  0.4155350000000  0.4787110000000 1.0
C      1  0.5266820000000  0.4219110000000  0.4856590000000 1.0
C      1  0.4888410000000  0.5761880000000  0.5211120000000 1.0
C      1  0.5173950000000  0.5852480000000  0.5074950000000 1.0
C      1  0.5138550000000  0.5829150000000  0.4737260000000 1.0
C      1  0.4828540000000  0.5832670000000  0.4877440000000 1.0
C      1  0.4755350000000  0.4556440000000  0.5316710000000 1.0
C      1  0.4692600000000  0.4550150000000  0.4923920000000 1.0
C      1  0.5177620000000  0.4556750000000  0.4662610000000 1.0
C      1  0.5235280000000  0.4608320000000  0.5104200000000 1.0
C      1  0.5217690000000  0.5468110000000  0.5242460000000 1.0
C      1  0.5309840000000  0.5469020000000  0.4746830000000 1.0
C      1  0.4811730000000  0.5465910000000  0.4718940000000 1.0
C      1  0.4750450000000  0.5400500000000  0.5110000000000 1.0
C      1  0.5015040000000  0.4310460000000  0.4493760000000 1.0
C      1  0.5603250000000  0.4255930000000  0.4907020000000 1.0
C      1  0.4966080000000  0.4318590000000  0.5442290000000 1.0
C      1  0.4492340000000  0.4280320000000  0.4978060000000 1.0
C      1  0.4995500000000  0.5658840000000  0.4507700000000 1.0
C      1  0.4562270000000  0.5663040000000  0.5003750000000 1.0
C      1  0.5035320000000  0.5609220000000  0.5477180000000 1.0
C      1  0.5423340000000  0.5678010000000  0.4971560000000 1.0
C      1  0.5444960000000  0.4749300000000  0.4923690000000 1.0
C      1  0.4997040000000  0.4780360000000  0.5238040000000 1.0
C      1  0.4587640000000  0.4845040000000  0.5004920000000 1.0
C      1  0.4933520000000  0.4793060000000  0.4649040000000 1.0
C      1  0.4732870000000  0.5127630000000  0.4937340000000 1.0
C      1  0.4952410000000  0.5169300000000  0.5449300000000 1.0
C      1  0.5270100000000  0.5023900000000  0.4979420000000 1.0
C      1  0.5043730000000  0.5156810000000  0.4638530000000 1.0
C      1  0.5351560000000  0.5272520000000  0.5966400000000 1.0
C      1  0.4076110000000  0.5142740000000  0.5240600000000 1.0
C      1  0.4682260000000  0.5078780000000  0.4042280000000 1.0
C      1  0.5917070000000  0.5124690000000  0.4735700000000 1.0
C      1  0.4721500000000  0.4874230000000  0.5897170000000 1.0
C      1  0.5947990000000  0.4701060000000  0.5508740000000 1.0
C      1  0.5277920000000  0.4953840000000  0.4037030000000 1.0
C      1  0.3984050000000  0.4807510000000  0.4657560000000 1.0
C      1  0.4336640000000  0.5697550000000  0.4761990000000 1.0
C      1  0.5116960000000  0.5378920000000  0.4408840000000 1.0
C      1  0.5553310000000  0.5521710000000  0.5230980000000 1.0
C      1  0.4927000000000  0.5380280000000  0.5706420000000 1.0
C      1  0.5693680000000  0.4584040000000  0.4884370000000 1.0
C      1  0.4841480000000  0.4588270000000  0.4402460000000 1.0
C      1  0.4406190000000  0.4488780000000  0.5220350000000 1.0
C      1  0.5194290000000  0.4482610000000  0.5637450000000 1.0
C      1  0.5048270000000  0.5475680000000  0.4963980000000 1.0
C      1  0.4984350000000  0.4520980000000  0.4936210000000 1.0
C      1  0.4974260000000  0.4926520000000  0.4950950000000 1.0
END
