TITL C-2622962-9663-675 -0.00125553901714043 125000 -870.506949544443 0 0 157 (C1) n - 1
REM
REM in /nfs/bkarasulu/CARBON/AIRSS/Generating-Clusters/AIREBO/with-SteepDescent/Higher-Symm/SD-CG/HFTN-CG
REM
REM
REM
REM
REM
REM ./C.cell (b20cbc046b6831c77cfcea5457e17084)
REM
REM compiler GCC version 9.2.1 20190827 (Red Hat 9.2.1-1)
REM options -cpp -mtune=generic -march=x86-64 -g -O0 -fpre-include=/usr/include/finclude/math-vector-fortran.h
REM seed -397519919 -741541247 -1445352376 1420428891 -1686099130 -1490297626 -138782817 513381591 -1251186066 -1661817804 1339766612 1074871456 1408116897 1361516871 -1871199658 1238116254 1225544520 -1194896988 -1011920654 1280870729 -2062228536 1067530252 -139511012 -362642091 -1213839843 977475951 -1774278697 1854153487 -2050841232 -1395594211 -1024924237 1894806370 -1708288897
REM
CELL 1.54180   50.00000   50.00000   50.00000   90.00000   90.00000   90.00000
LATT -1
SFAC C  
C      1  0.4983280000000  0.4154260000000  0.4877300000000 1.0
C      1  0.4862370000000  0.4013020000000  0.5267540000000 1.0
C      1  0.4853810000000  0.5871920000000  0.5352410000000 1.0
C      1  0.5078300000000  0.5904890000000  0.4687570000000 1.0
C      1  0.4671570000000  0.4079100000000  0.4990400000000 1.0
C      1  0.5291410000000  0.4162220000000  0.5032280000000 1.0
C      1  0.5341810000000  0.5926230000000  0.4846120000000 1.0
C      1  0.4704830000000  0.5850030000000  0.5095030000000 1.0
C      1  0.4828540000000  0.4346370000000  0.5608650000000 1.0
C      1  0.5244580000000  0.4402060000000  0.4479000000000 1.0
C      1  0.4772910000000  0.5578310000000  0.4498460000000 1.0
C      1  0.5186780000000  0.5531970000000  0.5440470000000 1.0
C      1  0.5398090000000  0.4443960000000  0.4770590000000 1.0
C      1  0.4399270000000  0.4465660000000  0.5185720000000 1.0
C      1  0.4596510000000  0.5521160000000  0.4715680000000 1.0
C      1  0.5378540000000  0.5478390000000  0.5186360000000 1.0
C      1  0.4572800000000  0.4189000000000  0.5641270000000 1.0
C      1  0.5332340000000  0.4098390000000  0.4466850000000 1.0
C      1  0.4673610000000  0.5859850000000  0.4325770000000 1.0
C      1  0.5293180000000  0.5804710000000  0.5613960000000 1.0
C      1  0.5607600000000  0.4272760000000  0.4564150000000 1.0
C      1  0.4326590000000  0.4319850000000  0.5465780000000 1.0
C      1  0.4349670000000  0.5754240000000  0.4734490000000 1.0
C      1  0.5599370000000  0.5725470000000  0.5222060000000 1.0
C      1  0.5548040000000  0.4911600000000  0.5756180000000 1.0
C      1  0.4462570000000  0.5010830000000  0.4210900000000 1.0
C      1  0.5719330000000  0.5121900000000  0.4187650000000 1.0
C      1  0.4389340000000  0.5043330000000  0.5926430000000 1.0
C      1  0.5800060000000  0.4899930000000  0.5631780000000 1.0
C      1  0.4168900000000  0.4954620000000  0.4372780000000 1.0
C      1  0.4176250000000  0.5066720000000  0.5682120000000 1.0
C      1  0.5947280000000  0.4986930000000  0.4400970000000 1.0
C      1  0.5053910000000  0.4322240000000  0.4252390000000 1.0
C      1  0.5144590000000  0.4305780000000  0.5685530000000 1.0
C      1  0.4987420000000  0.5663380000000  0.5682850000000 1.0
C      1  0.4990050000000  0.5769560000000  0.4319880000000 1.0
C      1  0.4286690000000  0.4272230000000  0.4974650000000 1.0
C      1  0.5578150000000  0.4479160000000  0.5019130000000 1.0
C      1  0.5753230000000  0.5700350000000  0.4954480000000 1.0
C      1  0.4204460000000  0.5766770000000  0.5022310000000 1.0
C      1  0.4553890000000  0.5244770000000  0.5361940000000 1.0
C      1  0.5627960000000  0.5339570000000  0.4657190000000 1.0
C      1  0.4529450000000  0.4636510000000  0.4698820000000 1.0
C      1  0.5594120000000  0.4731540000000  0.5333810000000 1.0
C      1  0.5330700000000  0.5346070000000  0.4497940000000 1.0
C      1  0.4758550000000  0.5227150000000  0.5592800000000 1.0
C      1  0.4794780000000  0.4681970000000  0.4516190000000 1.0
C      1  0.5289620000000  0.4700500000000  0.5482030000000 1.0
C      1  0.5149490000000  0.5461930000000  0.4955040000000 1.0
C      1  0.4750050000000  0.5454630000000  0.4949710000000 1.0
C      1  0.5196520000000  0.4591870000000  0.4971850000000 1.0
C      1  0.4689220000000  0.4566740000000  0.5122300000000 1.0
C      1  0.4945710000000  0.5497370000000  0.5230280000000 1.0
C      1  0.4957290000000  0.5199820000000  0.4918620000000 1.0
C      1  0.4871050000000  0.4520190000000  0.5369060000000 1.0
C      1  0.4878580000000  0.4590480000000  0.4893310000000 1.0
C      1  0.5754830000000  0.5031060000000  0.5321340000000 1.0
C      1  0.4366300000000  0.5085670000000  0.4590790000000 1.0
C      1  0.5594450000000  0.5032530000000  0.4646860000000 1.0
C      1  0.4376660000000  0.4963530000000  0.5435850000000 1.0
C      1  0.5333570000000  0.5026650000000  0.5568360000000 1.0
C      1  0.4648310000000  0.4955060000000  0.4490210000000 1.0
C      1  0.4764630000000  0.4934280000000  0.5635670000000 1.0
C      1  0.5486260000000  0.4945460000000  0.4361300000000 1.0
C      1  0.5594630000000  0.5813750000000  0.4736680000000 1.0
C      1  0.4305670000000  0.5669700000000  0.5254810000000 1.0
C      1  0.5473330000000  0.4329820000000  0.5265850000000 1.0
C      1  0.4466070000000  0.4211990000000  0.4752790000000 1.0
C      1  0.4705880000000  0.5747230000000  0.5599240000000 1.0
C      1  0.5251670000000  0.5719450000000  0.4380700000000 1.0
C      1  0.5087230000000  0.4143870000000  0.5385560000000 1.0
C      1  0.4794360000000  0.4320140000000  0.4349810000000 1.0
C      1  0.5509390000000  0.4064850000000  0.4815830000000 1.0
C      1  0.4476550000000  0.4084600000000  0.5270980000000 1.0
C      1  0.5329510000000  0.5893140000000  0.5131960000000 1.0
C      1  0.4628500000000  0.5901440000000  0.4834120000000 1.0
C      1  0.4647670000000  0.3908440000000  0.5485980000000 1.0
C      1  0.5204790000000  0.3960390000000  0.4708730000000 1.0
C      1  0.5140280000000  0.5915100000000  0.5340870000000 1.0
C      1  0.4808060000000  0.5954220000000  0.4624080000000 1.0
C      1  0.4539550000000  0.5467400000000  0.5692480000000 1.0
C      1  0.5488390000000  0.5612510000000  0.4249170000000 1.0
C      1  0.4576610000000  0.4484490000000  0.4247530000000 1.0
C      1  0.5421870000000  0.4456510000000  0.5770550000000 1.0
C      1  0.5615320000000  0.5626240000000  0.4516260000000 1.0
C      1  0.4272420000000  0.5499160000000  0.5487780000000 1.0
C      1  0.4366400000000  0.4428710000000  0.4509410000000 1.0
C      1  0.5619170000000  0.4451660000000  0.5525660000000 1.0
C      1  0.4757770000000  0.4695540000000  0.5854880000000 1.0
C      1  0.5222090000000  0.4556530000000  0.4113260000000 1.0
C      1  0.4803290000000  0.5440420000000  0.4195800000000 1.0
C      1  0.5281580000000  0.5292550000000  0.5642530000000 1.0
C      1  0.5806820000000  0.4841840000000  0.4745740000000 1.0
C      1  0.4221170000000  0.4681310000000  0.5338340000000 1.0
C      1  0.4296770000000  0.5360890000000  0.4707300000000 1.0
C      1  0.5602020000000  0.5270040000000  0.5133740000000 1.0
C      1  0.4441430000000  0.4835560000000  0.4919440000000 1.0
C      1  0.5743800000000  0.4733990000000  0.5045170000000 1.0
C      1  0.4403770000000  0.5199240000000  0.5095920000000 1.0
C      1  0.5783480000000  0.5391830000000  0.4913320000000 1.0
C      1  0.5032270000000  0.4725910000000  0.4339160000000 1.0
C      1  0.5068700000000  0.4634020000000  0.5731820000000 1.0
C      1  0.5012460000000  0.5272830000000  0.4405120000000 1.0
C      1  0.4995230000000  0.5354080000000  0.5742580000000 1.0
C      1  0.5097360000000  0.4859590000000  0.5984670000000 1.0
C      1  0.4974720000000  0.4859590000000  0.4037910000000 1.0
C      1  0.5154850000000  0.5147800000000  0.4026410000000 1.0
C      1  0.4923460000000  0.5154100000000  0.5997160000000 1.0
C      1  0.5990610000000  0.4960140000000  0.5080740000000 1.0
C      1  0.4116720000000  0.4867050000000  0.4911410000000 1.0
C      1  0.4092730000000  0.5130090000000  0.5127040000000 1.0
C      1  0.6047730000000  0.5222130000000  0.4896710000000 1.0
C      1  0.5878880000000  0.4633140000000  0.5602220000000 1.0
C      1  0.4210500000000  0.4719960000000  0.4615480000000 1.0
C      1  0.6099220000000  0.5125990000000  0.4589480000000 1.0
C      1  0.4118440000000  0.5263660000000  0.5439400000000 1.0
C      1  0.5406790000000  0.4724520000000  0.5917040000000 1.0
C      1  0.4667820000000  0.4756350000000  0.4144480000000 1.0
C      1  0.4596160000000  0.5252100000000  0.5950610000000 1.0
C      1  0.5424790000000  0.5291500000000  0.4175240000000 1.0
C      1  0.5132340000000  0.4944520000000  0.5305060000000 1.0
C      1  0.4810050000000  0.5193230000000  0.4618650000000 1.0
C      1  0.5175110000000  0.4988680000000  0.4412660000000 1.0
C      1  0.4854580000000  0.4832200000000  0.5368600000000 1.0
C      1  0.5219110000000  0.4909900000000  0.5032560000000 1.0
C      1  0.4574650000000  0.5112620000000  0.4849100000000 1.0
C      1  0.4568450000000  0.4854930000000  0.5209600000000 1.0
C      1  0.5303040000000  0.4959660000000  0.4715180000000 1.0
C      1  0.4280750000000  0.5567970000000  0.4452750000000 1.0
C      1  0.5712970000000  0.5545520000000  0.5469250000000 1.0
C      1  0.4207130000000  0.4571320000000  0.5651720000000 1.0
C      1  0.5694040000000  0.4494610000000  0.4371070000000 1.0
C      1  0.4496320000000  0.5585920000000  0.4216140000000 1.0
C      1  0.5497310000000  0.5545220000000  0.5691290000000 1.0
C      1  0.5521390000000  0.4576210000000  0.4165220000000 1.0
C      1  0.4500330000000  0.4484250000000  0.5785900000000 1.0
C      1  0.4077930000000  0.5348230000000  0.4887250000000 1.0
C      1  0.6095310000000  0.5362350000000  0.5202840000000 1.0
C      1  0.4004110000000  0.4741760000000  0.5158480000000 1.0
C      1  0.6104340000000  0.4736140000000  0.4878050000000 1.0
C      1  0.4976390000000  0.5354170000000  0.3955930000000 1.0
C      1  0.5180020000000  0.5354360000000  0.6095990000000 1.0
C      1  0.5103430000000  0.4643900000000  0.3815370000000 1.0
C      1  0.4886340000000  0.4668980000000  0.6171050000000 1.0
C      1  0.4107740000000  0.5288720000000  0.4364680000000 1.0
C      1  0.5895510000000  0.5331300000000  0.5397010000000 1.0
C      1  0.4065150000000  0.4780970000000  0.5789570000000 1.0
C      1  0.5870920000000  0.4691870000000  0.4462170000000 1.0
C      1  0.4452290000000  0.5299680000000  0.4077100000000 1.0
C      1  0.5389760000000  0.5446170000000  0.5994760000000 1.0
C      1  0.5610240000000  0.4838450000000  0.4060150000000 1.0
C      1  0.4448560000000  0.4770420000000  0.5974870000000 1.0
C      1  0.4842300000000  0.4379090000000  0.4663640000000 1.0
C      1  0.5173150000000  0.4454730000000  0.5277830000000 1.0
C      1  0.5200180000000  0.5587390000000  0.4689750000000 1.0
C      1  0.4611140000000  0.5557370000000  0.5240850000000 1.0
C      1  0.4984350000000  0.4884920000000  0.4803620000000 1.0
END
