TITL C-2622955-8511-655 0.0034692180624572 125000 -474.608469832621 0 0 87 (C1) n - 1
REM
REM in /nfs/bkarasulu/CARBON/AIRSS/Generating-Clusters/AIREBO/with-SteepDescent/Higher-Symm/SD-CG/HFTN-CG
REM
REM
REM
REM
REM
REM ./C.cell (b20cbc046b6831c77cfcea5457e17084)
REM
REM compiler GCC version 9.2.1 20190827 (Red Hat 9.2.1-1)
REM options -cpp -mtune=generic -march=x86-64 -g -O0 -fpre-include=/usr/include/finclude/math-vector-fortran.h
REM seed 935082700 447068110 1397764664 -1501047974 -1410576832 1497692432 1216011179 1455733278 -1816216032 -434734506 966863259 -136851816 -1351881657 -194167572 -1508673147 -1839067066 581386394 -1904149639 271187282 1472820260 783402943 -155182943 -2064631010 1206589330 -1816936855 -2066726921 -1858353599 879520235 1375084538 1669466408 1185456823 499547274 1051039330
REM
CELL 1.54180   50.00000   50.00000   50.00000   90.00000   90.00000   90.00000
LATT -1
SFAC C  
C      1  0.5683390000000  0.5034620000000  0.4723060000000 1.0
C      1  0.5652010000000  0.5201600000000  0.4952520000000 1.0
C      1  0.5508310000000  0.5025320000000  0.5165110000000 1.0
C      1  0.5618200000000  0.4748010000000  0.5082250000000 1.0
C      1  0.5674230000000  0.4759750000000  0.4802060000000 1.0
C      1  0.5259810000000  0.4131360000000  0.4724080000000 1.0
C      1  0.5219860000000  0.4984200000000  0.4073570000000 1.0
C      1  0.5155960000000  0.5878090000000  0.4684470000000 1.0
C      1  0.5159900000000  0.5610250000000  0.5711640000000 1.0
C      1  0.5037480000000  0.4336100000000  0.5830660000000 1.0
C      1  0.4915540000000  0.4885860000000  0.4111770000000 1.0
C      1  0.4862970000000  0.5799200000000  0.4591050000000 1.0
C      1  0.4921040000000  0.5685490000000  0.5585560000000 1.0
C      1  0.4864370000000  0.4554990000000  0.5868750000000 1.0
C      1  0.5024410000000  0.4143900000000  0.4885890000000 1.0
C      1  0.4685880000000  0.4705850000000  0.5718660000000 1.0
C      1  0.4785230000000  0.4279620000000  0.4944150000000 1.0
C      1  0.4690820000000  0.4858530000000  0.4258770000000 1.0
C      1  0.4633470000000  0.5657800000000  0.4612350000000 1.0
C      1  0.4695650000000  0.5568840000000  0.5468580000000 1.0
C      1  0.4375970000000  0.5320530000000  0.5315330000000 1.0
C      1  0.4411840000000  0.4801680000000  0.5420460000000 1.0
C      1  0.4424310000000  0.4550480000000  0.4958750000000 1.0
C      1  0.4361460000000  0.4898790000000  0.4563070000000 1.0
C      1  0.4317270000000  0.5391010000000  0.4782530000000 1.0
C      1  0.5227290000000  0.5158330000000  0.5724370000000 1.0
C      1  0.5280400000000  0.4524900000000  0.5347510000000 1.0
C      1  0.5165760000000  0.4521360000000  0.4411470000000 1.0
C      1  0.5240960000000  0.5335390000000  0.4493550000000 1.0
C      1  0.5263620000000  0.5561640000000  0.5095810000000 1.0
C      1  0.4429680000000  0.4490350000000  0.5284810000000 1.0
C      1  0.4384210000000  0.4583080000000  0.4622670000000 1.0
C      1  0.4305700000000  0.5229280000000  0.4505640000000 1.0
C      1  0.4338210000000  0.5558670000000  0.5077640000000 1.0
C      1  0.4357160000000  0.5087510000000  0.5562240000000 1.0
C      1  0.4659100000000  0.4774870000000  0.4834660000000 1.0
C      1  0.4603580000000  0.5066190000000  0.4710610000000 1.0
C      1  0.4598760000000  0.5293100000000  0.4946190000000 1.0
C      1  0.4649940000000  0.5119430000000  0.5300520000000 1.0
C      1  0.4645460000000  0.4804080000000  0.5173170000000 1.0
C      1  0.5009740000000  0.4104010000000  0.5963640000000 1.0
C      1  0.5213920000000  0.4057290000000  0.4454480000000 1.0
C      1  0.5316030000000  0.4940200000000  0.3812320000000 1.0
C      1  0.5273400000000  0.6088410000000  0.4542870000000 1.0
C      1  0.5149260000000  0.5542330000000  0.5989880000000 1.0
C      1  0.5578850000000  0.5485820000000  0.4993060000000 1.0
C      1  0.5506630000000  0.5126810000000  0.5445040000000 1.0
C      1  0.5527990000000  0.4512140000000  0.5186860000000 1.0
C      1  0.5571970000000  0.4549240000000  0.4636130000000 1.0
C      1  0.5508920000000  0.5126030000000  0.4492110000000 1.0
C      1  0.4667900000000  0.5543980000000  0.5165090000000 1.0
C      1  0.4707200000000  0.4992170000000  0.5610600000000 1.0
C      1  0.4753180000000  0.4481410000000  0.5175400000000 1.0
C      1  0.4690150000000  0.4679530000000  0.4509740000000 1.0
C      1  0.4633620000000  0.5359980000000  0.4542020000000 1.0
C      1  0.5183450000000  0.5886260000000  0.5023260000000 1.0
C      1  0.5171390000000  0.5264490000000  0.6013660000000 1.0
C      1  0.5234390000000  0.4385830000000  0.5645310000000 1.0
C      1  0.5131380000000  0.4268340000000  0.4297680000000 1.0
C      1  0.5212020000000  0.5293630000000  0.4166330000000 1.0
C      1  0.4937880000000  0.5483610000000  0.5037150000000 1.0
C      1  0.5001810000000  0.5131220000000  0.5511940000000 1.0
C      1  0.5027370000000  0.4637330000000  0.5196560000000 1.0
C      1  0.4992270000000  0.4646970000000  0.4613480000000 1.0
C      1  0.4921530000000  0.5253370000000  0.4563800000000 1.0
C      1  0.5516180000000  0.5554760000000  0.5323480000000 1.0
C      1  0.5435340000000  0.4921410000000  0.5656070000000 1.0
C      1  0.5590160000000  0.4286330000000  0.5036610000000 1.0
C      1  0.5420310000000  0.4638780000000  0.4411570000000 1.0
C      1  0.5548270000000  0.5467570000000  0.4554400000000 1.0
C      1  0.4395700000000  0.5716510000000  0.4779780000000 1.0
C      1  0.4505150000000  0.5391070000000  0.5616900000000 1.0
C      1  0.4450580000000  0.4548640000000  0.5619870000000 1.0
C      1  0.4562260000000  0.4321430000000  0.4753270000000 1.0
C      1  0.4454860000000  0.5035390000000  0.4266750000000 1.0
C      1  0.5131120000000  0.5298020000000  0.4827800000000 1.0
C      1  0.5118140000000  0.5262690000000  0.5222510000000 1.0
C      1  0.4991210000000  0.4871690000000  0.5359930000000 1.0
C      1  0.5072590000000  0.4770290000000  0.4921410000000 1.0
C      1  0.4985480000000  0.4966600000000  0.4663460000000 1.0
C      1  0.5345190000000  0.4674300000000  0.5646030000000 1.0
C      1  0.5494890000000  0.4296110000000  0.4770150000000 1.0
C      1  0.5432340000000  0.4898170000000  0.4303370000000 1.0
C      1  0.5353940000000  0.5627030000000  0.4774530000000 1.0
C      1  0.5380040000000  0.5418490000000  0.5567230000000 1.0
C      1  0.4417290000000  0.5027190000000  0.5055670000000 1.0
C      1  0.5228700000000  0.5038920000000  0.5002290000000 1.0
END
