TITL C-2622964-2985-326 -0.000647195399863299 125000 -636.61370530445 0 0 120 (C1) n - 1
REM
REM in /nfs/bkarasulu/CARBON/AIRSS/Generating-Clusters/AIREBO/with-SteepDescent/Higher-Symm/SD-CG/HFTN-CG
REM
REM
REM
REM
REM
REM ./C.cell (b20cbc046b6831c77cfcea5457e17084)
REM
REM compiler GCC version 9.2.1 20190827 (Red Hat 9.2.1-1)
REM options -cpp -mtune=generic -march=x86-64 -g -O0 -fpre-include=/usr/include/finclude/math-vector-fortran.h
REM seed 1198022167 70963767 -601833220 -1331225362 -1361441870 -55767870 720141598 1706450769 358058557 800164962 1267408039 -181048746 -986061791 -998612323 1727606759 -886761208 1638018893 1405550488 -1442334936 59995638 -2110094684 -43258802 681639031 1385789100 -1719339797 1046904116 -1816353697 1514156563 -414182568 1655535142 -427772153 354021168 1570469081
REM
CELL 1.54180   50.00000   50.00000   50.00000   90.00000   90.00000   90.00000
LATT -1
SFAC C  
C      1  0.4836190000000  0.4153940000000  0.4756680000000 1.0
C      1  0.4743680000000  0.4406840000000  0.5791130000000 1.0
C      1  0.4835300000000  0.5583170000000  0.5711000000000 1.0
C      1  0.4844990000000  0.5830940000000  0.4733190000000 1.0
C      1  0.4762520000000  0.5024030000000  0.4100520000000 1.0
C      1  0.4317010000000  0.5185870000000  0.5183570000000 1.0
C      1  0.4323860000000  0.5236820000000  0.4870900000000 1.0
C      1  0.4352600000000  0.4952610000000  0.4739200000000 1.0
C      1  0.4323950000000  0.4743370000000  0.4962190000000 1.0
C      1  0.4343740000000  0.4878680000000  0.5242290000000 1.0
C      1  0.5132530000000  0.4918480000000  0.5860010000000 1.0
C      1  0.5228870000000  0.6020230000000  0.5237690000000 1.0
C      1  0.5140830000000  0.5532600000000  0.4372030000000 1.0
C      1  0.5179250000000  0.4419550000000  0.4160990000000 1.0
C      1  0.5216110000000  0.4025830000000  0.5353310000000 1.0
C      1  0.5173040000000  0.5199960000000  0.4785020000000 1.0
C      1  0.5276750000000  0.4876250000000  0.4774770000000 1.0
C      1  0.5235680000000  0.4741630000000  0.5053090000000 1.0
C      1  0.5190620000000  0.4968090000000  0.5282700000000 1.0
C      1  0.5212640000000  0.5255170000000  0.5111320000000 1.0
C      1  0.5116440000000  0.5527140000000  0.4711290000000 1.0
C      1  0.5145360000000  0.4947130000000  0.4471010000000 1.0
C      1  0.5161680000000  0.4445330000000  0.4903600000000 1.0
C      1  0.5138080000000  0.4769930000000  0.5554040000000 1.0
C      1  0.5139680000000  0.5405670000000  0.5406850000000 1.0
C      1  0.4183430000000  0.4460240000000  0.4873770000000 1.0
C      1  0.4227820000000  0.4718720000000  0.5519080000000 1.0
C      1  0.4159200000000  0.5371370000000  0.5399840000000 1.0
C      1  0.4275330000000  0.5552870000000  0.4753670000000 1.0
C      1  0.4248770000000  0.4882410000000  0.4433790000000 1.0
C      1  0.5308100000000  0.4242540000000  0.5541260000000 1.0
C      1  0.5272290000000  0.5203570000000  0.5878080000000 1.0
C      1  0.5320160000000  0.5952870000000  0.4955850000000 1.0
C      1  0.5242610000000  0.5281570000000  0.4164940000000 1.0
C      1  0.5302530000000  0.4305740000000  0.4399440000000 1.0
C      1  0.4865150000000  0.5385390000000  0.4237780000000 1.0
C      1  0.4897060000000  0.4328640000000  0.4159610000000 1.0
C      1  0.4951710000000  0.3960510000000  0.5390520000000 1.0
C      1  0.4823430000000  0.5032590000000  0.5944780000000 1.0
C      1  0.4970050000000  0.6116910000000  0.5254730000000 1.0
C      1  0.4851670000000  0.4984190000000  0.5304600000000 1.0
C      1  0.4802430000000  0.5240190000000  0.5098150000000 1.0
C      1  0.4840550000000  0.5133900000000  0.4779200000000 1.0
C      1  0.4838900000000  0.4805090000000  0.4801030000000 1.0
C      1  0.4798110000000  0.4720840000000  0.5096170000000 1.0
C      1  0.5124060000000  0.4712700000000  0.4116920000000 1.0
C      1  0.5282970000000  0.4042560000000  0.5066750000000 1.0
C      1  0.5084250000000  0.4584110000000  0.5900350000000 1.0
C      1  0.5281360000000  0.5839870000000  0.5469990000000 1.0
C      1  0.5231420000000  0.5833920000000  0.4454150000000 1.0
C      1  0.4893300000000  0.5514020000000  0.4967670000000 1.0
C      1  0.4926660000000  0.5173470000000  0.4459610000000 1.0
C      1  0.4940320000000  0.4530420000000  0.4685320000000 1.0
C      1  0.4952420000000  0.4572050000000  0.5349010000000 1.0
C      1  0.4895950000000  0.5229830000000  0.5535110000000 1.0
C      1  0.5396820000000  0.5495140000000  0.5113890000000 1.0
C      1  0.5416040000000  0.5288440000000  0.4564220000000 1.0
C      1  0.5409070000000  0.4664580000000  0.4573410000000 1.0
C      1  0.5403640000000  0.4533960000000  0.5208260000000 1.0
C      1  0.5423710000000  0.5047100000000  0.5517300000000 1.0
C      1  0.4418830000000  0.4919390000000  0.5689700000000 1.0
C      1  0.4559950000000  0.5630390000000  0.5344080000000 1.0
C      1  0.4428260000000  0.5487410000000  0.4474630000000 1.0
C      1  0.4408160000000  0.4627850000000  0.4513430000000 1.0
C      1  0.4500880000000  0.4306430000000  0.5125510000000 1.0
C      1  0.4568390000000  0.4531590000000  0.4954430000000 1.0
C      1  0.4612710000000  0.4786370000000  0.5444110000000 1.0
C      1  0.4573360000000  0.5331890000000  0.5293910000000 1.0
C      1  0.4607460000000  0.5342970000000  0.4715810000000 1.0
C      1  0.4630350000000  0.4880120000000  0.4553620000000 1.0
C      1  0.5425080000000  0.4062630000000  0.4835850000000 1.0
C      1  0.5373460000000  0.4429970000000  0.5830900000000 1.0
C      1  0.5432570000000  0.5694760000000  0.5652450000000 1.0
C      1  0.5481410000000  0.5911200000000  0.4645050000000 1.0
C      1  0.5283830000000  0.4942290000000  0.4067120000000 1.0
C      1  0.5813980000000  0.4759520000000  0.4925640000000 1.0
C      1  0.5806440000000  0.4837720000000  0.5213420000000 1.0
C      1  0.5795680000000  0.5139130000000  0.5228850000000 1.0
C      1  0.5806900000000  0.5242790000000  0.4950540000000 1.0
C      1  0.5818880000000  0.5009770000000  0.4762340000000 1.0
C      1  0.5716120000000  0.5494400000000  0.4841560000000 1.0
C      1  0.5735740000000  0.4987270000000  0.4486160000000 1.0
C      1  0.5709280000000  0.4500770000000  0.4852590000000 1.0
C      1  0.5715710000000  0.4696080000000  0.5450250000000 1.0
C      1  0.5697620000000  0.5324370000000  0.5430040000000 1.0
C      1  0.5627590000000  0.5454140000000  0.4568750000000 1.0
C      1  0.5624630000000  0.4723990000000  0.4421940000000 1.0
C      1  0.5572480000000  0.4370470000000  0.5080840000000 1.0
C      1  0.5609530000000  0.4893590000000  0.5634270000000 1.0
C      1  0.5571260000000  0.5559300000000  0.5303510000000 1.0
C      1  0.5410870000000  0.5644620000000  0.4844120000000 1.0
C      1  0.5436950000000  0.5067350000000  0.4343790000000 1.0
C      1  0.5429850000000  0.4371420000000  0.4708000000000 1.0
C      1  0.5409200000000  0.4566910000000  0.5521630000000 1.0
C      1  0.5409680000000  0.5358320000000  0.5608100000000 1.0
C      1  0.5053690000000  0.5382050000000  0.5795070000000 1.0
C      1  0.5092110000000  0.5937040000000  0.4704150000000 1.0
C      1  0.4981450000000  0.5196270000000  0.3980240000000 1.0
C      1  0.5076600000000  0.4239120000000  0.4574760000000 1.0
C      1  0.5037290000000  0.4391190000000  0.5624200000000 1.0
C      1  0.4580570000000  0.5100750000000  0.5830550000000 1.0
C      1  0.4768910000000  0.5878290000000  0.5278900000000 1.0
C      1  0.4549210000000  0.5429760000000  0.4233680000000 1.0
C      1  0.4751900000000  0.4480120000000  0.4337630000000 1.0
C      1  0.4740900000000  0.4175090000000  0.5284910000000 1.0
C      1  0.4288500000000  0.5471030000000  0.5597170000000 1.0
C      1  0.4381370000000  0.5750180000000  0.4911760000000 1.0
C      1  0.4278730000000  0.5020160000000  0.4197040000000 1.0
C      1  0.4321330000000  0.4290780000000  0.4740890000000 1.0
C      1  0.4317310000000  0.4453820000000  0.5514740000000 1.0
C      1  0.4594910000000  0.5355890000000  0.5632510000000 1.0
C      1  0.4682650000000  0.5774860000000  0.4993540000000 1.0
C      1  0.4515570000000  0.5155670000000  0.4132620000000 1.0
C      1  0.4627450000000  0.4403570000000  0.4644830000000 1.0
C      1  0.4653350000000  0.4449310000000  0.5466070000000 1.0
C      1  0.4832400000000  0.4723140000000  0.5695780000000 1.0
C      1  0.4980190000000  0.5705990000000  0.5455360000000 1.0
C      1  0.4803340000000  0.5570460000000  0.4585350000000 1.0
C      1  0.4873330000000  0.4799610000000  0.4329670000000 1.0
C      1  0.4981150000000  0.4187090000000  0.5045000000000 1.0
END
