TITL C-2622958-629-243 0.000167271368591688 125000 -622.138072270899 0 0 112 (C1) n - 1
REM
REM in /nfs/bkarasulu/CARBON/AIRSS/Generating-Clusters/AIREBO/with-SteepDescent/Higher-Symm/SD-CG/HFTN-CG
REM
REM
REM
REM
REM
REM ./C.cell (b20cbc046b6831c77cfcea5457e17084)
REM
REM compiler GCC version 9.2.1 20190827 (Red Hat 9.2.1-1)
REM options -cpp -mtune=generic -march=x86-64 -g -O0 -fpre-include=/usr/include/finclude/math-vector-fortran.h
REM seed 287651017 -1431202785 -280555654 1542375520 -1188191632 -110022781 -873794607 206651519 18807810 1595487347 346161033 348059499 -446873654 -1132099866 -1245967432 -1839347437 -1347051384 -184348330 1888301581 764954939 -1251611042 1049458034 -234350692 -1252333552 750614541 -2074732068 198445436 1387480406 1466943599 797174147 1275547784 -476340773 -1296429448
REM
CELL 1.54180   50.00000   50.00000   50.00000   90.00000   90.00000   90.00000
LATT -1
SFAC C  
C      1  0.5378110000000  0.5236290000000  0.4920170000000 1.0
C      1  0.5305930000000  0.5334810000000  0.5197200000000 1.0
C      1  0.5013220000000  0.5298400000000  0.5318840000000 1.0
C      1  0.4729770000000  0.5184900000000  0.5193470000000 1.0
C      1  0.4664750000000  0.5226230000000  0.4901590000000 1.0
C      1  0.4919060000000  0.5277240000000  0.4717140000000 1.0
C      1  0.5189360000000  0.5412540000000  0.4737670000000 1.0
C      1  0.4186840000000  0.5304160000000  0.5177480000000 1.0
C      1  0.4363810000000  0.5274840000000  0.4475110000000 1.0
C      1  0.4974870000000  0.5342600000000  0.4127580000000 1.0
C      1  0.5631390000000  0.5224750000000  0.4467960000000 1.0
C      1  0.5903260000000  0.5380940000000  0.5259690000000 1.0
C      1  0.5369800000000  0.5342940000000  0.5811150000000 1.0
C      1  0.4632730000000  0.5310730000000  0.5763510000000 1.0
C      1  0.4927230000000  0.4960860000000  0.4765490000000 1.0
C      1  0.5158550000000  0.4870470000000  0.4595320000000 1.0
C      1  0.5312110000000  0.4929080000000  0.4865280000000 1.0
C      1  0.5328360000000  0.4910000000000  0.5179670000000 1.0
C      1  0.5089480000000  0.4964180000000  0.5350020000000 1.0
C      1  0.4783260000000  0.4873230000000  0.5253880000000 1.0
C      1  0.4643250000000  0.4888940000000  0.4939330000000 1.0
C      1  0.4867000000000  0.5764020000000  0.4449150000000 1.0
C      1  0.5368760000000  0.5671940000000  0.4843680000000 1.0
C      1  0.5429160000000  0.5719660000000  0.5171210000000 1.0
C      1  0.5164190000000  0.5712250000000  0.5384170000000 1.0
C      1  0.4862080000000  0.5601440000000  0.5287050000000 1.0
C      1  0.4653360000000  0.5719170000000  0.5045420000000 1.0
C      1  0.4641710000000  0.5753090000000  0.4704910000000 1.0
C      1  0.4472110000000  0.5072520000000  0.5610540000000 1.0
C      1  0.4164390000000  0.5091560000000  0.4986200000000 1.0
C      1  0.4588400000000  0.5033510000000  0.4385780000000 1.0
C      1  0.5186850000000  0.5141620000000  0.4165950000000 1.0
C      1  0.5672640000000  0.4970410000000  0.4691370000000 1.0
C      1  0.5739020000000  0.5133130000000  0.5407970000000 1.0
C      1  0.5151880000000  0.5103540000000  0.5822490000000 1.0
C      1  0.5260420000000  0.4226780000000  0.4785690000000 1.0
C      1  0.5294690000000  0.4410810000000  0.5033080000000 1.0
C      1  0.5108810000000  0.4334360000000  0.5248510000000 1.0
C      1  0.4842420000000  0.4277580000000  0.5239550000000 1.0
C      1  0.4678470000000  0.4247400000000  0.5018420000000 1.0
C      1  0.4763660000000  0.4240030000000  0.4750610000000 1.0
C      1  0.5026070000000  0.4247730000000  0.4637910000000 1.0
C      1  0.4793270000000  0.4336450000000  0.4243040000000 1.0
C      1  0.5611710000000  0.4225130000000  0.4460430000000 1.0
C      1  0.5694560000000  0.4169500000000  0.4956870000000 1.0
C      1  0.5490480000000  0.4306100000000  0.5524440000000 1.0
C      1  0.4881060000000  0.4281440000000  0.5710320000000 1.0
C      1  0.4322600000000  0.4270270000000  0.5333790000000 1.0
C      1  0.4297110000000  0.4276020000000  0.4686380000000 1.0
C      1  0.5250010000000  0.5486600000000  0.4446780000000 1.0
C      1  0.5707530000000  0.5253010000000  0.4853080000000 1.0
C      1  0.5525740000000  0.5392880000000  0.5380080000000 1.0
C      1  0.5011050000000  0.5352350000000  0.5643240000000 1.0
C      1  0.4530360000000  0.5309160000000  0.5380350000000 1.0
C      1  0.4416690000000  0.5372090000000  0.4858380000000 1.0
C      1  0.4757170000000  0.5318870000000  0.4461260000000 1.0
C      1  0.4865090000000  0.5232970000000  0.5928850000000 1.0
C      1  0.4210710000000  0.5227370000000  0.5463220000000 1.0
C      1  0.4188330000000  0.5207390000000  0.4705520000000 1.0
C      1  0.4697870000000  0.5239720000000  0.4135930000000 1.0
C      1  0.5392580000000  0.5277360000000  0.4314570000000 1.0
C      1  0.5959050000000  0.5316190000000  0.5002400000000 1.0
C      1  0.5609780000000  0.5268400000000  0.5679760000000 1.0
C      1  0.4569340000000  0.4809370000000  0.4616960000000 1.0
C      1  0.5113760000000  0.4869170000000  0.4285730000000 1.0
C      1  0.5462250000000  0.4827970000000  0.4509030000000 1.0
C      1  0.5619980000000  0.4888270000000  0.5271580000000 1.0
C      1  0.5168340000000  0.4871020000000  0.5631820000000 1.0
C      1  0.4618350000000  0.4823800000000  0.5510320000000 1.0
C      1  0.4320990000000  0.4825370000000  0.5030470000000 1.0
C      1  0.4757350000000  0.4658530000000  0.5749960000000 1.0
C      1  0.4239950000000  0.4670430000000  0.5309610000000 1.0
C      1  0.4280520000000  0.4669370000000  0.4624400000000 1.0
C      1  0.4797270000000  0.4761050000000  0.4218220000000 1.0
C      1  0.5523760000000  0.4530580000000  0.4383390000000 1.0
C      1  0.5765880000000  0.4807490000000  0.4975230000000 1.0
C      1  0.5450210000000  0.4684990000000  0.5643170000000 1.0
C      1  0.5037510000000  0.4332210000000  0.4368580000000 1.0
C      1  0.5526810000000  0.4142720000000  0.4719460000000 1.0
C      1  0.5598430000000  0.4357730000000  0.5140070000000 1.0
C      1  0.5221510000000  0.4345320000000  0.5499400000000 1.0
C      1  0.4717880000000  0.4296640000000  0.5489390000000 1.0
C      1  0.4401230000000  0.4287750000000  0.5071430000000 1.0
C      1  0.4548040000000  0.4294100000000  0.4578870000000 1.0
C      1  0.3983840000000  0.4635880000000  0.5362860000000 1.0
C      1  0.4241710000000  0.4580380000000  0.4333390000000 1.0
C      1  0.4994520000000  0.4602520000000  0.4023900000000 1.0
C      1  0.5658840000000  0.4542640000000  0.4695270000000 1.0
C      1  0.5926840000000  0.4644850000000  0.5198240000000 1.0
C      1  0.5370860000000  0.4534930000000  0.5907900000000 1.0
C      1  0.4504440000000  0.4514530000000  0.5856710000000 1.0
C      1  0.4672080000000  0.5545670000000  0.5556850000000 1.0
C      1  0.4356450000000  0.5559220000000  0.5086370000000 1.0
C      1  0.4530730000000  0.5537840000000  0.4514760000000 1.0
C      1  0.5018810000000  0.5578400000000  0.4305960000000 1.0
C      1  0.5576990000000  0.5488420000000  0.4675860000000 1.0
C      1  0.5719290000000  0.5638740000000  0.5285440000000 1.0
C      1  0.5230280000000  0.5593070000000  0.5669030000000 1.0
C      1  0.4580830000000  0.4560470000000  0.4385520000000 1.0
C      1  0.5237720000000  0.4553650000000  0.4256520000000 1.0
C      1  0.5469860000000  0.4654160000000  0.4908380000000 1.0
C      1  0.5656170000000  0.4573940000000  0.5396210000000 1.0
C      1  0.5080840000000  0.4556210000000  0.5725990000000 1.0
C      1  0.4465630000000  0.4520040000000  0.5514840000000 1.0
C      1  0.4246950000000  0.4515780000000  0.4913410000000 1.0
C      1  0.5330930000000  0.6023890000000  0.5024640000000 1.0
C      1  0.5171010000000  0.6006720000000  0.5273030000000 1.0
C      1  0.4922510000000  0.6138760000000  0.5286180000000 1.0
C      1  0.4716850000000  0.6043930000000  0.5123490000000 1.0
C      1  0.4742800000000  0.6044920000000  0.4832420000000 1.0
C      1  0.4972040000000  0.5968030000000  0.4649260000000 1.0
C      1  0.5226800000000  0.5948560000000  0.4754540000000 1.0
END
