TITL C-2622960-5345-155 -0.00122004469130973 125000 -679.21349746263 0 0 125 (C1) n - 1
REM
REM in /nfs/bkarasulu/CARBON/AIRSS/Generating-Clusters/AIREBO/with-SteepDescent/Higher-Symm/SD-CG/HFTN-CG
REM
REM
REM
REM
REM
REM ./C.cell (b20cbc046b6831c77cfcea5457e17084)
REM
REM compiler GCC version 9.2.1 20190827 (Red Hat 9.2.1-1)
REM options -cpp -mtune=generic -march=x86-64 -g -O0 -fpre-include=/usr/include/finclude/math-vector-fortran.h
REM seed -967960516 1730155612 255362199 1034833271 346731877 258618002 -2041656861 -464239958 1094409736 1060648563 329695014 -1036997001 -1788097330 324504296 828595079 -783942311 1902426816 955849538 -1317947788 1453390798 2144981484 -1565704831 2047745329 -1126720640 75266514 1195378238 -2057022082 -399940767 183077393 -1099508154 -1071425194 -1005000315 1696699227
REM
CELL 1.54180   50.00000   50.00000   50.00000   90.00000   90.00000   90.00000
LATT -1
SFAC C  
C      1  0.5134740000000  0.5583550000000  0.4180150000000 1.0
C      1  0.4228500000000  0.5144720000000  0.5603210000000 1.0
C      1  0.5547540000000  0.4163460000000  0.4939300000000 1.0
C      1  0.4870740000000  0.5592120000000  0.5667810000000 1.0
C      1  0.5069060000000  0.4462650000000  0.5770930000000 1.0
C      1  0.4856300000000  0.4425480000000  0.4303100000000 1.0
C      1  0.5805040000000  0.5026310000000  0.4522440000000 1.0
C      1  0.4318120000000  0.4879480000000  0.4395880000000 1.0
C      1  0.5768730000000  0.4880720000000  0.5572700000000 1.0
C      1  0.4398020000000  0.4224050000000  0.4859850000000 1.0
C      1  0.5585100000000  0.5752820000000  0.4864610000000 1.0
C      1  0.4447230000000  0.5836860000000  0.5121540000000 1.0
C      1  0.5285370000000  0.4776130000000  0.4412640000000 1.0
C      1  0.4382300000000  0.5423490000000  0.4728270000000 1.0
C      1  0.4804720000000  0.4367850000000  0.5306600000000 1.0
C      1  0.4689260000000  0.4657360000000  0.5420800000000 1.0
C      1  0.5279720000000  0.5270020000000  0.5596430000000 1.0
C      1  0.4654620000000  0.5244460000000  0.4327580000000 1.0
C      1  0.5568380000000  0.5386310000000  0.5253970000000 1.0
C      1  0.4392870000000  0.4582000000000  0.5269750000000 1.0
C      1  0.5524960000000  0.4633520000000  0.4768360000000 1.0
C      1  0.5272670000000  0.4438000000000  0.4650180000000 1.0
C      1  0.4616480000000  0.5599660000000  0.4707780000000 1.0
C      1  0.5334560000000  0.5560750000000  0.5428750000000 1.0
C      1  0.5634210000000  0.4592270000000  0.4478970000000 1.0
C      1  0.4613730000000  0.5721400000000  0.4449690000000 1.0
C      1  0.4592320000000  0.4490750000000  0.5700890000000 1.0
C      1  0.4444180000000  0.4349340000000  0.5477660000000 1.0
C      1  0.5689180000000  0.5403590000000  0.5560120000000 1.0
C      1  0.4183520000000  0.5419420000000  0.4464930000000 1.0
C      1  0.5565340000000  0.5716510000000  0.5629260000000 1.0
C      1  0.4569450000000  0.4123100000000  0.5326760000000 1.0
C      1  0.5425110000000  0.4199630000000  0.4461640000000 1.0
C      1  0.5403410000000  0.4486590000000  0.4278930000000 1.0
C      1  0.4472290000000  0.5479870000000  0.4343620000000 1.0
C      1  0.5468860000000  0.5448780000000  0.5815290000000 1.0
C      1  0.4257150000000  0.5563220000000  0.5094110000000 1.0
C      1  0.5038580000000  0.4261890000000  0.5496950000000 1.0
C      1  0.5538860000000  0.4984270000000  0.4386810000000 1.0
C      1  0.5724340000000  0.5615790000000  0.5081570000000 1.0
C      1  0.4229950000000  0.4470730000000  0.5012370000000 1.0
C      1  0.5639860000000  0.4423780000000  0.4958880000000 1.0
C      1  0.5042090000000  0.4281970000000  0.4450680000000 1.0
C      1  0.5117630000000  0.5756790000000  0.4440860000000 1.0
C      1  0.5040410000000  0.5702370000000  0.5484040000000 1.0
C      1  0.4446350000000  0.5208790000000  0.5750860000000 1.0
C      1  0.5468590000000  0.5034850000000  0.5605560000000 1.0
C      1  0.4497070000000  0.4992980000000  0.4207630000000 1.0
C      1  0.4718110000000  0.5233050000000  0.5574600000000 1.0
C      1  0.5642740000000  0.4537360000000  0.5245010000000 1.0
C      1  0.5225770000000  0.5493770000000  0.4556320000000 1.0
C      1  0.5310680000000  0.5213960000000  0.4382790000000 1.0
C      1  0.4486990000000  0.4687530000000  0.4571870000000 1.0
C      1  0.5478920000000  0.4718400000000  0.5481630000000 1.0
C      1  0.4455340000000  0.4619210000000  0.4866530000000 1.0
C      1  0.5613740000000  0.5443050000000  0.4739560000000 1.0
C      1  0.4519840000000  0.5560760000000  0.5284880000000 1.0
C      1  0.4582950000000  0.5536390000000  0.5566700000000 1.0
C      1  0.5259800000000  0.4494370000000  0.5497560000000 1.0
C      1  0.4724100000000  0.4386880000000  0.4683550000000 1.0
C      1  0.5096360000000  0.5923090000000  0.4669070000000 1.0
C      1  0.4652700000000  0.5308750000000  0.5961340000000 1.0
C      1  0.6160380000000  0.4852440000000  0.5258120000000 1.0
C      1  0.4977510000000  0.5878030000000  0.5274620000000 1.0
C      1  0.5034830000000  0.4048070000000  0.5238310000000 1.0
C      1  0.4944280000000  0.4045760000000  0.4618040000000 1.0
C      1  0.5263940000000  0.4977650000000  0.3952330000000 1.0
C      1  0.4745490000000  0.4870050000000  0.4067230000000 1.0
C      1  0.5129430000000  0.4994900000000  0.5999260000000 1.0
C      1  0.4079070000000  0.4743580000000  0.4912600000000 1.0
C      1  0.5916480000000  0.5384240000000  0.5061460000000 1.0
C      1  0.4107840000000  0.5335390000000  0.5063960000000 1.0
C      1  0.5664690000000  0.5087570000000  0.5152510000000 1.0
C      1  0.5283950000000  0.5639400000000  0.5101770000000 1.0
C      1  0.5008870000000  0.5200380000000  0.5444450000000 1.0
C      1  0.4453490000000  0.5144280000000  0.4865330000000 1.0
C      1  0.5568450000000  0.4961500000000  0.4851080000000 1.0
C      1  0.4423060000000  0.4907840000000  0.5263070000000 1.0
C      1  0.4838150000000  0.5493250000000  0.4934830000000 1.0
C      1  0.5191170000000  0.4417870000000  0.4946410000000 1.0
C      1  0.4931370000000  0.4592030000000  0.5084490000000 1.0
C      1  0.4832320000000  0.5115320000000  0.4561150000000 1.0
C      1  0.4970190000000  0.4823230000000  0.4534620000000 1.0
C      1  0.4916040000000  0.4889270000000  0.5523350000000 1.0
C      1  0.5014270000000  0.5302070000000  0.4715350000000 1.0
C      1  0.4649520000000  0.5109880000000  0.5295240000000 1.0
C      1  0.5334160000000  0.4616310000000  0.5125550000000 1.0
C      1  0.5047670000000  0.5408880000000  0.5183360000000 1.0
C      1  0.5090370000000  0.4723970000000  0.5334210000000 1.0
C      1  0.4876550000000  0.4614900000000  0.4759440000000 1.0
C      1  0.5313180000000  0.5139930000000  0.4717980000000 1.0
C      1  0.4646190000000  0.4937910000000  0.4738500000000 1.0
C      1  0.5411680000000  0.4924490000000  0.5216720000000 1.0
C      1  0.4654070000000  0.4784900000000  0.5044650000000 1.0
C      1  0.5347070000000  0.5390810000000  0.4923180000000 1.0
C      1  0.4604750000000  0.5318960000000  0.5082300000000 1.0
C      1  0.5307430000000  0.5898890000000  0.4891920000000 1.0
C      1  0.4902890000000  0.5437560000000  0.5896170000000 1.0
C      1  0.5930900000000  0.4984200000000  0.5337080000000 1.0
C      1  0.4771950000000  0.5802870000000  0.5059020000000 1.0
C      1  0.5235610000000  0.4113740000000  0.5028150000000 1.0
C      1  0.4714210000000  0.4104060000000  0.4844370000000 1.0
C      1  0.5130410000000  0.5251210000000  0.4103820000000 1.0
C      1  0.4942920000000  0.4701940000000  0.4222140000000 1.0
C      1  0.4974590000000  0.4780560000000  0.5832890000000 1.0
C      1  0.4214740000000  0.4944090000000  0.4713380000000 1.0
C      1  0.5813010000000  0.5192240000000  0.4799240000000 1.0
C      1  0.4140300000000  0.5085610000000  0.5284140000000 1.0
C      1  0.4720040000000  0.4593000000000  0.5915090000000 1.0
C      1  0.5855220000000  0.4746050000000  0.4438520000000 1.0
C      1  0.4848290000000  0.5960600000000  0.4784140000000 1.0
C      1  0.5236230000000  0.4718650000000  0.4089950000000 1.0
C      1  0.4833470000000  0.5164710000000  0.4076980000000 1.0
C      1  0.5172440000000  0.5299630000000  0.5917300000000 1.0
C      1  0.3954580000000  0.4875950000000  0.5127120000000 1.0
C      1  0.5940520000000  0.5296320000000  0.5353030000000 1.0
C      1  0.4089620000000  0.5251720000000  0.4749580000000 1.0
C      1  0.5185870000000  0.6021310000000  0.5166140000000 1.0
C      1  0.4770340000000  0.4010610000000  0.5133330000000 1.0
C      1  0.5239670000000  0.4043500000000  0.4700150000000 1.0
C      1  0.4365720000000  0.5616980000000  0.5760860000000 1.0
C      1  0.5872250000000  0.4400910000000  0.5394840000000 1.0
C      1  0.5543270000000  0.5461820000000  0.4438810000000 1.0
C      1  0.4586950000000  0.4426900000000  0.4417430000000 1.0
C      1  0.5222480000000  0.5132990000000  0.5107250000000 1.0
END
