TITL C-2622967-6265-694 -0.00205768898728322 125000 -577.373213461875 0 0 107 (C1) n - 1
REM
REM in /nfs/bkarasulu/CARBON/AIRSS/Generating-Clusters/AIREBO/with-SteepDescent/Higher-Symm/SD-CG/HFTN-CG
REM
REM
REM
REM
REM
REM ./C.cell (b20cbc046b6831c77cfcea5457e17084)
REM
REM compiler GCC version 9.2.1 20190827 (Red Hat 9.2.1-1)
REM options -cpp -mtune=generic -march=x86-64 -g -O0 -fpre-include=/usr/include/finclude/math-vector-fortran.h
REM seed 1693711093 638014317 1151623158 -1560632542 -948030234 117505262 -1535442945 1438043981 -1246856433 468161612 -75789903 1488936511 -297771630 -654308736 -1239913447 -1397580042 -2066765122 -229726609 -841306934 1089548837 -739538443 1442332330 1197969380 1565062184 2034942488 -1845880178 -813860668 1196161758 -1604548892 -687120262 -2110448174 -469346028 439498019
REM
CELL 1.54180   50.00000   50.00000   50.00000   90.00000   90.00000   90.00000
LATT -1
SFAC C  
C      1  0.5704100000000  0.5032750000000  0.4365680000000 1.0
C      1  0.5667670000000  0.4444730000000  0.5266510000000 1.0
C      1  0.5702650000000  0.5537280000000  0.5317320000000 1.0
C      1  0.5179090000000  0.5404090000000  0.4746360000000 1.0
C      1  0.5178190000000  0.4631190000000  0.4745540000000 1.0
C      1  0.5178320000000  0.4998090000000  0.5439470000000 1.0
C      1  0.5570060000000  0.4299000000000  0.5042810000000 1.0
C      1  0.5561190000000  0.5361040000000  0.5527360000000 1.0
C      1  0.5562100000000  0.5307000000000  0.4408030000000 1.0
C      1  0.4307260000000  0.4863500000000  0.5520050000000 1.0
C      1  0.4257360000000  0.5491560000000  0.4847020000000 1.0
C      1  0.4292430000000  0.4611400000000  0.4662990000000 1.0
C      1  0.5574960000000  0.4799140000000  0.4433620000000 1.0
C      1  0.5512940000000  0.4621330000000  0.5471920000000 1.0
C      1  0.5565220000000  0.5577030000000  0.5087860000000 1.0
C      1  0.5135380000000  0.4307190000000  0.5557340000000 1.0
C      1  0.5154520000000  0.5642500000000  0.5306390000000 1.0
C      1  0.5165840000000  0.4961400000000  0.4253380000000 1.0
C      1  0.4889810000000  0.5358660000000  0.4572720000000 1.0
C      1  0.4898830000000  0.4357520000000  0.5069150000000 1.0
C      1  0.4887550000000  0.5171760000000  0.5473480000000 1.0
C      1  0.5338190000000  0.4507410000000  0.5658160000000 1.0
C      1  0.5342980000000  0.5748260000000  0.5113190000000 1.0
C      1  0.5350310000000  0.4735450000000  0.4274830000000 1.0
C      1  0.5720240000000  0.5098870000000  0.5564030000000 1.0
C      1  0.5673290000000  0.5543210000000  0.4605100000000 1.0
C      1  0.5654810000000  0.4406610000000  0.4757100000000 1.0
C      1  0.4862230000000  0.4212790000000  0.4703510000000 1.0
C      1  0.4917310000000  0.5141420000000  0.5985530000000 1.0
C      1  0.4865320000000  0.5741100000000  0.4446540000000 1.0
C      1  0.4601550000000  0.5705340000000  0.5197650000000 1.0
C      1  0.4620620000000  0.4838060000000  0.4236140000000 1.0
C      1  0.4668070000000  0.4509380000000  0.5543560000000 1.0
C      1  0.4396040000000  0.5071810000000  0.4679840000000 1.0
C      1  0.4368950000000  0.4712360000000  0.5069200000000 1.0
C      1  0.4371290000000  0.5168680000000  0.5177840000000 1.0
C      1  0.5509450000000  0.4707800000000  0.4754650000000 1.0
C      1  0.5505660000000  0.4944030000000  0.5364440000000 1.0
C      1  0.5505390000000  0.5360450000000  0.4832580000000 1.0
C      1  0.5819080000000  0.4727590000000  0.5242510000000 1.0
C      1  0.5838320000000  0.5285930000000  0.5037860000000 1.0
C      1  0.5858330000000  0.4892810000000  0.4705310000000 1.0
C      1  0.5212900000000  0.4968530000000  0.4718970000000 1.0
C      1  0.5219630000000  0.4711760000000  0.5216920000000 1.0
C      1  0.5194680000000  0.5280130000000  0.5062980000000 1.0
C      1  0.5275770000000  0.4219070000000  0.5053340000000 1.0
C      1  0.5282960000000  0.5400390000000  0.5725970000000 1.0
C      1  0.5290930000000  0.5482630000000  0.4285500000000 1.0
C      1  0.4734910000000  0.4968200000000  0.5781920000000 1.0
C      1  0.4651410000000  0.5713020000000  0.4714360000000 1.0
C      1  0.4660210000000  0.4465750000000  0.4599360000000 1.0
C      1  0.4614760000000  0.5511090000000  0.4443230000000 1.0
C      1  0.4612060000000  0.4249940000000  0.4931100000000 1.0
C      1  0.4616570000000  0.5227710000000  0.5623070000000 1.0
C      1  0.4792660000000  0.4827200000000  0.4497590000000 1.0
C      1  0.4807070000000  0.4673400000000  0.5308040000000 1.0
C      1  0.4768800000000  0.5492880000000  0.5027000000000 1.0
C      1  0.4790810000000  0.4973130000000  0.5208930000000 1.0
C      1  0.4721390000000  0.5243600000000  0.4834750000000 1.0
C      1  0.4718900000000  0.4732740000000  0.4803640000000 1.0
C      1  0.4383700000000  0.5344370000000  0.4629990000000 1.0
C      1  0.4403140000000  0.4476760000000  0.4902290000000 1.0
C      1  0.4393190000000  0.5126720000000  0.5450440000000 1.0
C      1  0.5244990000000  0.5205760000000  0.4477520000000 1.0
C      1  0.5229150000000  0.4396170000000  0.5289210000000 1.0
C      1  0.5249470000000  0.5328040000000  0.5395280000000 1.0
C      1  0.4461310000000  0.4625530000000  0.4400470000000 1.0
C      1  0.4521120000000  0.4730290000000  0.5666610000000 1.0
C      1  0.4443340000000  0.5703320000000  0.4933040000000 1.0
C      1  0.5895710000000  0.4636620000000  0.4687400000000 1.0
C      1  0.5902440000000  0.4925670000000  0.5419250000000 1.0
C      1  0.5895190000000  0.5443810000000  0.4842990000000 1.0
C      1  0.5555920000000  0.5044590000000  0.4746480000000 1.0
C      1  0.5524500000000  0.4764940000000  0.5075960000000 1.0
C      1  0.5525200000000  0.5180610000000  0.5120770000000 1.0
C      1  0.4143600000000  0.5295660000000  0.5033700000000 1.0
C      1  0.4189270000000  0.4871810000000  0.4749390000000 1.0
C      1  0.4165540000000  0.4788190000000  0.5272470000000 1.0
C      1  0.5182290000000  0.5193510000000  0.5889610000000 1.0
C      1  0.5132870000000  0.5711470000000  0.4390830000000 1.0
C      1  0.5144230000000  0.4215940000000  0.4787710000000 1.0
C      1  0.4856280000000  0.4310350000000  0.5628560000000 1.0
C      1  0.4884550000000  0.5738170000000  0.5320410000000 1.0
C      1  0.4905120000000  0.4930410000000  0.4129540000000 1.0
C      1  0.4432960000000  0.5476930000000  0.3911120000000 1.0
C      1  0.4398930000000  0.3778180000000  0.5139120000000 1.0
C      1  0.4514660000000  0.5694790000000  0.5906190000000 1.0
C      1  0.4964850000000  0.5656770000000  0.4824450000000 1.0
C      1  0.4955370000000  0.4546750000000  0.4505440000000 1.0
C      1  0.4944060000000  0.4794010000000  0.5578110000000 1.0
C      1  0.5227850000000  0.4691060000000  0.5840190000000 1.0
C      1  0.5298940000000  0.5870400000000  0.4863620000000 1.0
C      1  0.5293720000000  0.4460960000000  0.4312580000000 1.0
C      1  0.4959230000000  0.4661640000000  0.5004130000000 1.0
C      1  0.4918730000000  0.5276350000000  0.5178110000000 1.0
C      1  0.4923370000000  0.5048700000000  0.4655050000000 1.0
C      1  0.5350860000000  0.4374390000000  0.4604090000000 1.0
C      1  0.5273260000000  0.4955900000000  0.5763260000000 1.0
C      1  0.5356020000000  0.5671310000000  0.4632060000000 1.0
C      1  0.4934200000000  0.4636110000000  0.5879120000000 1.0
C      1  0.5037360000000  0.5989010000000  0.4828460000000 1.0
C      1  0.5032080000000  0.4372100000000  0.4230700000000 1.0
C      1  0.4498550000000  0.3987410000000  0.5032250000000 1.0
C      1  0.4561500000000  0.5473540000000  0.5787930000000 1.0
C      1  0.4515430000000  0.5505720000000  0.4150910000000 1.0
C      1  0.4070770000000  0.4969950000000  0.5006890000000 1.0
C      1  0.4555150000000  0.4977230000000  0.4965260000000 1.0
END
