TITL C-2622955-8511-637 0.000910390781056564 125000 -902.23824993151 0 0 168 (C1) n - 1
REM
REM in /nfs/bkarasulu/CARBON/AIRSS/Generating-Clusters/AIREBO/with-SteepDescent/Higher-Symm/SD-CG/HFTN-CG
REM
REM
REM
REM
REM
REM ./C.cell (b20cbc046b6831c77cfcea5457e17084)
REM
REM compiler GCC version 9.2.1 20190827 (Red Hat 9.2.1-1)
REM options -cpp -mtune=generic -march=x86-64 -g -O0 -fpre-include=/usr/include/finclude/math-vector-fortran.h
REM seed -585239767 -2008741541 111493925 -1259215878 -102454125 -1587173104 141339779 759061241 -452400088 311802975 -2114865446 -477818938 1702036444 -1397704363 719384149 -2095466188 2123761574 -763840133 -1640930819 139312112 616097129 1540366717 1228206894 487683590 -95654667 822602308 -997233598 -951806356 -970115315 106098949 520273603 -1209988890 277605166
REM
CELL 1.54180   50.00000   50.00000   50.00000   90.00000   90.00000   90.00000
LATT -1
SFAC C  
C      1  0.4095020000000  0.5092010000000  0.5321920000000 1.0
C      1  0.5403500000000  0.4304780000000  0.4903180000000 1.0
C      1  0.4591080000000  0.4467490000000  0.5885520000000 1.0
C      1  0.4809820000000  0.5496040000000  0.4589540000000 1.0
C      1  0.5573790000000  0.5594300000000  0.5071680000000 1.0
C      1  0.5694120000000  0.5062860000000  0.5378560000000 1.0
C      1  0.4779010000000  0.4874950000000  0.4958480000000 1.0
C      1  0.4519670000000  0.4519620000000  0.5258810000000 1.0
C      1  0.4865420000000  0.4347230000000  0.4335400000000 1.0
C      1  0.4419810000000  0.5301660000000  0.5223630000000 1.0
C      1  0.5734570000000  0.5181280000000  0.5694840000000 1.0
C      1  0.5525110000000  0.4362210000000  0.4227930000000 1.0
C      1  0.4539970000000  0.4399320000000  0.4951640000000 1.0
C      1  0.5310660000000  0.4198950000000  0.5800230000000 1.0
C      1  0.5611100000000  0.4034160000000  0.5321840000000 1.0
C      1  0.4853770000000  0.3875800000000  0.5000180000000 1.0
C      1  0.5345630000000  0.4168850000000  0.4172410000000 1.0
C      1  0.4610970000000  0.5717060000000  0.4206710000000 1.0
C      1  0.4742260000000  0.5367910000000  0.5444040000000 1.0
C      1  0.4354110000000  0.4651310000000  0.4896010000000 1.0
C      1  0.5253130000000  0.4735820000000  0.5083330000000 1.0
C      1  0.6119810000000  0.5001760000000  0.4979070000000 1.0
C      1  0.5004860000000  0.5816040000000  0.5488730000000 1.0
C      1  0.5949510000000  0.5295470000000  0.4950660000000 1.0
C      1  0.5340070000000  0.5384450000000  0.4940970000000 1.0
C      1  0.5798620000000  0.4947200000000  0.5076390000000 1.0
C      1  0.4577310000000  0.4671730000000  0.4133490000000 1.0
C      1  0.3950090000000  0.5662460000000  0.4728080000000 1.0
C      1  0.5779010000000  0.3929920000000  0.5075650000000 1.0
C      1  0.5370410000000  0.4973770000000  0.4593920000000 1.0
C      1  0.5157290000000  0.4365540000000  0.4603720000000 1.0
C      1  0.4900940000000  0.5195310000000  0.4989510000000 1.0
C      1  0.5574470000000  0.4939450000000  0.4829710000000 1.0
C      1  0.4924440000000  0.4766980000000  0.5489370000000 1.0
C      1  0.5820280000000  0.5392440000000  0.4445950000000 1.0
C      1  0.5685270000000  0.4599480000000  0.5233460000000 1.0
C      1  0.4192180000000  0.4948760000000  0.5888210000000 1.0
C      1  0.4862620000000  0.5681300000000  0.4818450000000 1.0
C      1  0.4795870000000  0.4553680000000  0.4847270000000 1.0
C      1  0.5834240000000  0.5346980000000  0.5247690000000 1.0
C      1  0.5346320000000  0.4006550000000  0.3952470000000 1.0
C      1  0.4956210000000  0.5337420000000  0.5779090000000 1.0
C      1  0.4336350000000  0.5517500000000  0.5669800000000 1.0
C      1  0.5015350000000  0.4793000000000  0.4303340000000 1.0
C      1  0.4240400000000  0.4962480000000  0.5581240000000 1.0
C      1  0.4626100000000  0.5278200000000  0.4716560000000 1.0
C      1  0.4175800000000  0.5813320000000  0.4807510000000 1.0
C      1  0.5831880000000  0.4479270000000  0.5841680000000 1.0
C      1  0.4541090000000  0.5945260000000  0.5474300000000 1.0
C      1  0.5259360000000  0.5255600000000  0.4635450000000 1.0
C      1  0.5422890000000  0.4178690000000  0.5501350000000 1.0
C      1  0.4591960000000  0.5391320000000  0.6041520000000 1.0
C      1  0.4422100000000  0.4078490000000  0.5417320000000 1.0
C      1  0.5299770000000  0.5903370000000  0.4748960000000 1.0
C      1  0.4717180000000  0.5163460000000  0.3969340000000 1.0
C      1  0.5358360000000  0.6015080000000  0.4433100000000 1.0
C      1  0.5088290000000  0.4822000000000  0.4827440000000 1.0
C      1  0.4963340000000  0.3833370000000  0.5319280000000 1.0
C      1  0.4008590000000  0.4397440000000  0.4990960000000 1.0
C      1  0.5450950000000  0.5779330000000  0.5312100000000 1.0
C      1  0.4780710000000  0.5184790000000  0.4296260000000 1.0
C      1  0.5389850000000  0.5308330000000  0.6007620000000 1.0
C      1  0.4914550000000  0.5172780000000  0.3773560000000 1.0
C      1  0.5223860000000  0.5786600000000  0.5059150000000 1.0
C      1  0.5556670000000  0.4774290000000  0.5496170000000 1.0
C      1  0.5808960000000  0.5499200000000  0.4716190000000 1.0
C      1  0.5121140000000  0.4161310000000  0.4362530000000 1.0
C      1  0.4735760000000  0.4311760000000  0.4615630000000 1.0
C      1  0.4220050000000  0.5407570000000  0.5460640000000 1.0
C      1  0.4535680000000  0.4920350000000  0.3960470000000 1.0
C      1  0.5083940000000  0.4430550000000  0.5752140000000 1.0
C      1  0.4880010000000  0.5853980000000  0.4261980000000 1.0
C      1  0.5353340000000  0.4507520000000  0.5553430000000 1.0
C      1  0.5145530000000  0.4891250000000  0.5907900000000 1.0
C      1  0.4265840000000  0.6061210000000  0.4709160000000 1.0
C      1  0.4992210000000  0.5609310000000  0.4157750000000 1.0
C      1  0.5238960000000  0.5032570000000  0.5127980000000 1.0
C      1  0.4321010000000  0.4674870000000  0.4358120000000 1.0
C      1  0.5323060000000  0.4862220000000  0.4276170000000 1.0
C      1  0.6051080000000  0.5189010000000  0.4453470000000 1.0
C      1  0.4935850000000  0.6055540000000  0.5293440000000 1.0
C      1  0.5809170000000  0.4303710000000  0.4624390000000 1.0
C      1  0.5239040000000  0.5383300000000  0.5451140000000 1.0
C      1  0.4195300000000  0.4598340000000  0.5191950000000 1.0
C      1  0.6013400000000  0.4971760000000  0.5452230000000 1.0
C      1  0.5143430000000  0.4602160000000  0.5339480000000 1.0
C      1  0.4453280000000  0.4956720000000  0.4905220000000 1.0
C      1  0.4914570000000  0.4879460000000  0.4557000000000 1.0
C      1  0.4249620000000  0.4639530000000  0.5527940000000 1.0
C      1  0.4409750000000  0.4813950000000  0.4610450000000 1.0
C      1  0.5534990000000  0.4618100000000  0.4933920000000 1.0
C      1  0.5782680000000  0.4895700000000  0.4471510000000 1.0
C      1  0.5521760000000  0.5622620000000  0.5598740000000 1.0
C      1  0.5180590000000  0.4094910000000  0.5321260000000 1.0
C      1  0.4805470000000  0.6002190000000  0.4720080000000 1.0
C      1  0.4010070000000  0.4420740000000  0.4713350000000 1.0
C      1  0.4521460000000  0.5147790000000  0.6044000000000 1.0
C      1  0.4222790000000  0.4419760000000  0.4524790000000 1.0
C      1  0.5086600000000  0.4614770000000  0.5992290000000 1.0
C      1  0.5332120000000  0.5719530000000  0.4334090000000 1.0
C      1  0.4817540000000  0.3998570000000  0.4709470000000 1.0
C      1  0.5744280000000  0.4723230000000  0.5759360000000 1.0
C      1  0.4575230000000  0.5455490000000  0.4057660000000 1.0
C      1  0.5284350000000  0.5095310000000  0.6091810000000 1.0
C      1  0.5450370000000  0.4016200000000  0.5036830000000 1.0
C      1  0.3852420000000  0.4934790000000  0.4936570000000 1.0
C      1  0.4537880000000  0.4088130000000  0.4880850000000 1.0
C      1  0.4256940000000  0.5376370000000  0.4463160000000 1.0
C      1  0.4763450000000  0.4294460000000  0.5333200000000 1.0
C      1  0.4442880000000  0.5213990000000  0.4255600000000 1.0
C      1  0.4331720000000  0.5377610000000  0.4783510000000 1.0
C      1  0.5850030000000  0.5096790000000  0.4711820000000 1.0
C      1  0.5052800000000  0.5367620000000  0.4389160000000 1.0
C      1  0.4688910000000  0.4795990000000  0.5276700000000 1.0
C      1  0.5014270000000  0.4542160000000  0.6231760000000 1.0
C      1  0.4900020000000  0.5004950000000  0.5731050000000 1.0
C      1  0.4636700000000  0.5870230000000  0.4979310000000 1.0
C      1  0.3968610000000  0.5395590000000  0.4623220000000 1.0
C      1  0.4665370000000  0.6024410000000  0.5227030000000 1.0
C      1  0.5272590000000  0.4914390000000  0.5618570000000 1.0
C      1  0.4638780000000  0.5407920000000  0.5030680000000 1.0
C      1  0.5032800000000  0.5959770000000  0.4514370000000 1.0
C      1  0.5140110000000  0.5093630000000  0.5425520000000 1.0
C      1  0.5798660000000  0.4976520000000  0.5869040000000 1.0
C      1  0.4583090000000  0.4975360000000  0.5792120000000 1.0
C      1  0.4668720000000  0.5515280000000  0.5741530000000 1.0
C      1  0.4293730000000  0.4944320000000  0.4162560000000 1.0
C      1  0.4724580000000  0.5811120000000  0.5636650000000 1.0
C      1  0.4838890000000  0.4590290000000  0.4202150000000 1.0
C      1  0.4430660000000  0.4352010000000  0.5541000000000 1.0
C      1  0.5243880000000  0.4658220000000  0.4602480000000 1.0
C      1  0.5034710000000  0.5505700000000  0.5028620000000 1.0
C      1  0.5334070000000  0.5409090000000  0.4202270000000 1.0
C      1  0.5599440000000  0.5286120000000  0.4293250000000 1.0
C      1  0.5188620000000  0.3853580000000  0.5067770000000 1.0
C      1  0.5418570000000  0.6149630000000  0.4948150000000 1.0
C      1  0.3941290000000  0.5184720000000  0.4809230000000 1.0
C      1  0.5238320000000  0.5801300000000  0.5667470000000 1.0
C      1  0.5001090000000  0.3906070000000  0.4507320000000 1.0
C      1  0.5624410000000  0.4152340000000  0.4710190000000 1.0
C      1  0.5611000000000  0.5008360000000  0.4278460000000 1.0
C      1  0.5511850000000  0.4608880000000  0.4410030000000 1.0
C      1  0.5450150000000  0.5250470000000  0.5233660000000 1.0
C      1  0.5068940000000  0.4364020000000  0.4919240000000 1.0
C      1  0.4444350000000  0.4697560000000  0.5799430000000 1.0
C      1  0.5355880000000  0.5549410000000  0.4573920000000 1.0
C      1  0.3993440000000  0.4856510000000  0.5154800000000 1.0
C      1  0.4425130000000  0.4248420000000  0.4600560000000 1.0
C      1  0.5036640000000  0.4343590000000  0.5224180000000 1.0
C      1  0.4508120000000  0.5135640000000  0.5507110000000 1.0
C      1  0.5463010000000  0.6086650000000  0.5191110000000 1.0
C      1  0.5883310000000  0.5649380000000  0.5122380000000 1.0
C      1  0.4536590000000  0.5554360000000  0.4442100000000 1.0
C      1  0.4989090000000  0.5533170000000  0.5347560000000 1.0
C      1  0.4766920000000  0.4336690000000  0.5670560000000 1.0
C      1  0.5740010000000  0.4617290000000  0.4662100000000 1.0
C      1  0.4631250000000  0.4030690000000  0.5203110000000 1.0
C      1  0.4415360000000  0.5652020000000  0.4930360000000 1.0
C      1  0.5289430000000  0.5395030000000  0.3925120000000 1.0
C      1  0.6015800000000  0.4714890000000  0.4835720000000 1.0
C      1  0.4522010000000  0.6155380000000  0.4723690000000 1.0
C      1  0.4847200000000  0.5096770000000  0.5286780000000 1.0
C      1  0.5266340000000  0.5478660000000  0.5771190000000 1.0
C      1  0.4644490000000  0.5019970000000  0.4560610000000 1.0
C      1  0.5738700000000  0.5426500000000  0.5536910000000 1.0
C      1  0.5550210000000  0.5673580000000  0.4763270000000 1.0
C      1  0.5973330000000  0.4662730000000  0.5144580000000 1.0
C      1  0.4214400000000  0.5156620000000  0.5009900000000 1.0
END
