TITL C-2622962-9663-822 -0.000544926811746487 125000 -191.832367833449 0 0 34 (C1) n - 1
REM
REM in /nfs/bkarasulu/CARBON/AIRSS/Generating-Clusters/AIREBO/with-SteepDescent/Higher-Symm/SD-CG/HFTN-CG
REM
REM
REM
REM
REM
REM ./C.cell (b20cbc046b6831c77cfcea5457e17084)
REM
REM compiler GCC version 9.2.1 20190827 (Red Hat 9.2.1-1)
REM options -cpp -mtune=generic -march=x86-64 -g -O0 -fpre-include=/usr/include/finclude/math-vector-fortran.h
REM seed -1430143099 -1504761315 -1487867616 -1253647052 -2080962445 -534417187 1387375285 -1775624461 -327590628 -1020244832 -1563950042 -1071066071 -1696524195 693091216 -1301293283 -1685581494 -1573518201 -876736600 -1837412419 1244230708 -914136135 478321917 244436182 224237751 -1270531879 1073530635 -47656995 -1147101578 -1484083913 865573350 1995763794 -1152150338 2101364748
REM
CELL 1.54180   50.00000   50.00000   50.00000   90.00000   90.00000   90.00000
LATT -1
SFAC C  
C      1  0.5707550000000  0.5492060000000  0.4952500000000 1.0
C      1  0.5687500000000  0.4392750000000  0.4973290000000 1.0
C      1  0.5267560000000  0.4679090000000  0.4944730000000 1.0
C      1  0.5245300000000  0.5282360000000  0.4947000000000 1.0
C      1  0.5312800000000  0.4844590000000  0.4722540000000 1.0
C      1  0.5239270000000  0.5118480000000  0.4718960000000 1.0
C      1  0.5094580000000  0.5513000000000  0.5319110000000 1.0
C      1  0.5080500000000  0.4495040000000  0.5326380000000 1.0
C      1  0.5359190000000  0.4455530000000  0.5354420000000 1.0
C      1  0.5376990000000  0.5517390000000  0.5337000000000 1.0
C      1  0.5033660000000  0.4613330000000  0.5069250000000 1.0
C      1  0.5026570000000  0.5395740000000  0.5066440000000 1.0
C      1  0.4519860000000  0.5502120000000  0.4834960000000 1.0
C      1  0.4535750000000  0.4553220000000  0.4803290000000 1.0
C      1  0.4641820000000  0.4666280000000  0.5336180000000 1.0
C      1  0.4647980000000  0.5364730000000  0.5352770000000 1.0
C      1  0.5439310000000  0.4741630000000  0.4506080000000 1.0
C      1  0.5158530000000  0.5226460000000  0.4483690000000 1.0
C      1  0.5525040000000  0.4578860000000  0.5106500000000 1.0
C      1  0.5518790000000  0.5345790000000  0.5100710000000 1.0
C      1  0.4501720000000  0.5150890000000  0.5449390000000 1.0
C      1  0.4493650000000  0.4881120000000  0.5426210000000 1.0
C      1  0.5623650000000  0.5080310000000  0.5214630000000 1.0
C      1  0.5666510000000  0.4841250000000  0.5186680000000 1.0
C      1  0.4596500000000  0.4887470000000  0.4834300000000 1.0
C      1  0.4575050000000  0.5166270000000  0.4828120000000 1.0
C      1  0.4516540000000  0.4741520000000  0.4543060000000 1.0
C      1  0.4489730000000  0.5331230000000  0.4557050000000 1.0
C      1  0.4461080000000  0.5181800000000  0.4326480000000 1.0
C      1  0.4494850000000  0.4906250000000  0.4322520000000 1.0
C      1  0.4726990000000  0.5358100000000  0.5055390000000 1.0
C      1  0.4739110000000  0.4673050000000  0.5043550000000 1.0
C      1  0.4858630000000  0.5514300000000  0.5481020000000 1.0
C      1  0.4837420000000  0.4507980000000  0.5475790000000 1.0
END
