TITL C-2622960-5345-30 0.00489750155042802 125000 -560.985996183094 0 0 113 (C1) n - 1
REM
REM in /nfs/bkarasulu/CARBON/AIRSS/Generating-Clusters/AIREBO/with-SteepDescent/Higher-Symm/SD-CG/HFTN-CG
REM
REM
REM
REM
REM
REM ./C.cell (b20cbc046b6831c77cfcea5457e17084)
REM
REM compiler GCC version 9.2.1 20190827 (Red Hat 9.2.1-1)
REM options -cpp -mtune=generic -march=x86-64 -g -O0 -fpre-include=/usr/include/finclude/math-vector-fortran.h
REM seed -936640786 253545067 -1993427283 1297049729 -443762848 1779140956 1489837861 -1655384444 1201157916 1491016488 -300617739 155191135 -900297760 -1339624605 1686899975 -799601629 1504650068 1794002288 -611077972 -80708379 424477466 -1245533505 2126008546 1707443374 27684588 1235145948 94475771 1455468445 1190528946 882626359 -670300358 1041035800 -1382912222
REM
CELL 1.54180   50.00000   50.00000   50.00000   90.00000   90.00000   90.00000
LATT -1
SFAC C  
C      1  0.5526260000000  0.4683340000000  0.5681280000000 1.0
C      1  0.5800860000000  0.5431650000000  0.4766980000000 1.0
C      1  0.4807510000000  0.5731580000000  0.5558820000000 1.0
C      1  0.4500640000000  0.5316230000000  0.5587940000000 1.0
C      1  0.4582170000000  0.4750240000000  0.4281330000000 1.0
C      1  0.5445600000000  0.5258480000000  0.4229130000000 1.0
C      1  0.4144030000000  0.4593760000000  0.4776200000000 1.0
C      1  0.4178400000000  0.5476940000000  0.5222990000000 1.0
C      1  0.5728470000000  0.4443410000000  0.5259790000000 1.0
C      1  0.5218670000000  0.4278970000000  0.5593910000000 1.0
C      1  0.5267660000000  0.5629680000000  0.4455370000000 1.0
C      1  0.4836640000000  0.4225420000000  0.4509940000000 1.0
C      1  0.4757670000000  0.5461110000000  0.5758900000000 1.0
C      1  0.5611580000000  0.5695180000000  0.4791920000000 1.0
C      1  0.5689140000000  0.4748080000000  0.5410330000000 1.0
C      1  0.5259490000000  0.4512740000000  0.5792430000000 1.0
C      1  0.4764530000000  0.4460590000000  0.4270980000000 1.0
C      1  0.5210210000000  0.5413240000000  0.4283570000000 1.0
C      1  0.4401360000000  0.4397320000000  0.4802200000000 1.0
C      1  0.5473300000000  0.4233300000000  0.5184680000000 1.0
C      1  0.4410330000000  0.5690650000000  0.5212230000000 1.0
C      1  0.4218500000000  0.5238260000000  0.5455790000000 1.0
C      1  0.5634050000000  0.5290230000000  0.4499520000000 1.0
C      1  0.4369460000000  0.4686230000000  0.4534360000000 1.0
C      1  0.4823320000000  0.5917700000000  0.4766300000000 1.0
C      1  0.4797270000000  0.4905790000000  0.5848070000000 1.0
C      1  0.5940860000000  0.4756160000000  0.4917180000000 1.0
C      1  0.5080290000000  0.4049130000000  0.4682790000000 1.0
C      1  0.5055420000000  0.5831470000000  0.5373040000000 1.0
C      1  0.4910050000000  0.4005750000000  0.5229000000000 1.0
C      1  0.5253940000000  0.5149210000000  0.5954310000000 1.0
C      1  0.5405390000000  0.5001060000000  0.4122390000000 1.0
C      1  0.4567690000000  0.5025870000000  0.4112040000000 1.0
C      1  0.4052810000000  0.5379900000000  0.4920980000000 1.0
C      1  0.4067530000000  0.4815870000000  0.5010280000000 1.0
C      1  0.5908240000000  0.5253320000000  0.5035850000000 1.0
C      1  0.5912310000000  0.4960530000000  0.4766160000000 1.0
C      1  0.5020770000000  0.4690010000000  0.5899170000000 1.0
C      1  0.4555580000000  0.5896040000000  0.4974830000000 1.0
C      1  0.4108480000000  0.5077810000000  0.4834280000000 1.0
C      1  0.5797090000000  0.5060680000000  0.5300110000000 1.0
C      1  0.4042890000000  0.4966550000000  0.5317850000000 1.0
C      1  0.4997420000000  0.5296460000000  0.5945580000000 1.0
C      1  0.4790190000000  0.5238570000000  0.4040930000000 1.0
C      1  0.5166870000000  0.4778720000000  0.4070460000000 1.0
C      1  0.5358760000000  0.4135930000000  0.4871290000000 1.0
C      1  0.4740280000000  0.4041590000000  0.5040800000000 1.0
C      1  0.5172830000000  0.5956190000000  0.5102130000000 1.0
C      1  0.4706360000000  0.4367380000000  0.4949530000000 1.0
C      1  0.4975110000000  0.4713120000000  0.4343610000000 1.0
C      1  0.4402390000000  0.4946520000000  0.4724670000000 1.0
C      1  0.5320570000000  0.5693520000000  0.4944620000000 1.0
C      1  0.5181490000000  0.4356040000000  0.5060380000000 1.0
C      1  0.4680180000000  0.5585180000000  0.5034210000000 1.0
C      1  0.4982370000000  0.5220150000000  0.4412230000000 1.0
C      1  0.5047620000000  0.4765300000000  0.5570620000000 1.0
C      1  0.5005930000000  0.5286340000000  0.5605700000000 1.0
C      1  0.5586330000000  0.5038380000000  0.4708430000000 1.0
C      1  0.5510240000000  0.4922840000000  0.5179860000000 1.0
C      1  0.4348110000000  0.5057590000000  0.5198540000000 1.0
C      1  0.4404840000000  0.4773870000000  0.5019980000000 1.0
C      1  0.4786320000000  0.4968510000000  0.4440410000000 1.0
C      1  0.4997940000000  0.4366240000000  0.4774190000000 1.0
C      1  0.5572960000000  0.5206750000000  0.5003510000000 1.0
C      1  0.4380110000000  0.5323730000000  0.4994600000000 1.0
C      1  0.5644380000000  0.4651290000000  0.5024930000000 1.0
C      1  0.5223710000000  0.5018710000000  0.4475830000000 1.0
C      1  0.4743220000000  0.5075620000000  0.5558330000000 1.0
C      1  0.5311640000000  0.4919230000000  0.5710280000000 1.0
C      1  0.5062730000000  0.5680100000000  0.4722910000000 1.0
C      1  0.4887360000000  0.5576380000000  0.5256660000000 1.0
C      1  0.5021570000000  0.4289420000000  0.5353000000000 1.0
C      1  0.4550720000000  0.4356270000000  0.5251740000000 1.0
C      1  0.5246640000000  0.4513020000000  0.4300340000000 1.0
C      1  0.4356340000000  0.5216560000000  0.4523260000000 1.0
C      1  0.5470460000000  0.5643790000000  0.5245880000000 1.0
C      1  0.5536520000000  0.4288990000000  0.4653840000000 1.0
C      1  0.4539020000000  0.5646060000000  0.4730830000000 1.0
C      1  0.4767500000000  0.5453640000000  0.4305120000000 1.0
C      1  0.4756300000000  0.4594860000000  0.5612300000000 1.0
C      1  0.5276260000000  0.5484890000000  0.5649770000000 1.0
C      1  0.5656140000000  0.4749640000000  0.4542870000000 1.0
C      1  0.5695150000000  0.5271120000000  0.5516870000000 1.0
C      1  0.4326420000000  0.4808750000000  0.5429330000000 1.0
C      1  0.4336070000000  0.4537300000000  0.5257330000000 1.0
C      1  0.4490120000000  0.5262210000000  0.4291400000000 1.0
C      1  0.5239060000000  0.4320770000000  0.4538480000000 1.0
C      1  0.5618080000000  0.5415970000000  0.5264900000000 1.0
C      1  0.4298530000000  0.5457890000000  0.4692910000000 1.0
C      1  0.5667250000000  0.4525420000000  0.4712140000000 1.0
C      1  0.5420560000000  0.4779280000000  0.4367180000000 1.0
C      1  0.4533810000000  0.4817430000000  0.5630060000000 1.0
C      1  0.5464290000000  0.5223610000000  0.5697750000000 1.0
C      1  0.4793610000000  0.5672840000000  0.4514860000000 1.0
C      1  0.5311210000000  0.5696340000000  0.5466700000000 1.0
C      1  0.4728620000000  0.4361770000000  0.5464000000000 1.0
C      1  0.5274970000000  0.4928030000000  0.4790450000000 1.0
C      1  0.4980110000000  0.4619840000000  0.5283810000000 1.0
C      1  0.4852900000000  0.4934730000000  0.5267030000000 1.0
C      1  0.5037580000000  0.5313360000000  0.5292050000000 1.0
C      1  0.5093210000000  0.4672020000000  0.4659810000000 1.0
C      1  0.4952670000000  0.5358370000000  0.4720290000000 1.0
C      1  0.5212480000000  0.5090460000000  0.5149200000000 1.0
C      1  0.4737910000000  0.4994970000000  0.4750810000000 1.0
C      1  0.4695270000000  0.5278660000000  0.4895680000000 1.0
C      1  0.5327130000000  0.4615520000000  0.4914020000000 1.0
C      1  0.5276790000000  0.5367040000000  0.4976230000000 1.0
C      1  0.4721640000000  0.4684150000000  0.5072470000000 1.0
C      1  0.5491390000000  0.4408500000000  0.5484000000000 1.0
C      1  0.4512140000000  0.5629940000000  0.5496130000000 1.0
C      1  0.5537010000000  0.5602540000000  0.4523380000000 1.0
C      1  0.4604860000000  0.4460150000000  0.4555530000000 1.0
C      1  0.4978130000000  0.4965620000000  0.4952300000000 1.0
END
