TITL C-2622953-3516-803 -0.0010594814694659 125000 -434.299434294189 0 0 78 (C1) n - 1
REM
REM in /nfs/bkarasulu/CARBON/AIRSS/Generating-Clusters/AIREBO/with-SteepDescent/Higher-Symm/SD-CG/HFTN-CG
REM
REM
REM
REM
REM
REM ./C.cell (b20cbc046b6831c77cfcea5457e17084)
REM
REM compiler GCC version 9.2.1 20190827 (Red Hat 9.2.1-1)
REM options -cpp -mtune=generic -march=x86-64 -g -O0 -fpre-include=/usr/include/finclude/math-vector-fortran.h
REM seed 794837285 -689757874 -1572804270 1472548905 -1516555535 -449046595 -1719506342 -325223042 173697846 -782719600 2059661420 -183810040 1844469873 -662060271 -266216943 -98154116 -284016661 855106154 234885505 761906939 649230473 -335038634 550172369 296752575 1487898784 1162313659 1534505149 -65095029 -1767942923 -1063553721 689993314 2101973961 2027664772
REM
CELL 1.54180   50.00000   50.00000   50.00000   90.00000   90.00000   90.00000
LATT -1
SFAC C  
C      1  0.5592750000000  0.5630700000000  0.5145380000000 1.0
C      1  0.4465940000000  0.5629450000000  0.5461820000000 1.0
C      1  0.4886470000000  0.5626820000000  0.4333340000000 1.0
C      1  0.4889350000000  0.5760190000000  0.4825450000000 1.0
C      1  0.5107990000000  0.5788650000000  0.5055580000000 1.0
C      1  0.4804600000000  0.5747340000000  0.5125640000000 1.0
C      1  0.4322160000000  0.5460610000000  0.5620050000000 1.0
C      1  0.4951540000000  0.5500200000000  0.4101920000000 1.0
C      1  0.5804290000000  0.5514700000000  0.5271880000000 1.0
C      1  0.4963770000000  0.4357880000000  0.5553780000000 1.0
C      1  0.4541800000000  0.4339550000000  0.4718980000000 1.0
C      1  0.5489100000000  0.4235070000000  0.4735010000000 1.0
C      1  0.4854760000000  0.4809300000000  0.5402920000000 1.0
C      1  0.4790880000000  0.4787530000000  0.4667530000000 1.0
C      1  0.5453220000000  0.4559790000000  0.4829260000000 1.0
C      1  0.5032530000000  0.4999370000000  0.4555750000000 1.0
C      1  0.5421820000000  0.5020850000000  0.5270920000000 1.0
C      1  0.4649280000000  0.5015720000000  0.5231230000000 1.0
C      1  0.5604870000000  0.4764630000000  0.5250070000000 1.0
C      1  0.4379390000000  0.4638350000000  0.5486710000000 1.0
C      1  0.4877380000000  0.4756500000000  0.4203820000000 1.0
C      1  0.5151530000000  0.5458660000000  0.5375890000000 1.0
C      1  0.4443820000000  0.5433140000000  0.4986390000000 1.0
C      1  0.5232110000000  0.5571810000000  0.4743280000000 1.0
C      1  0.4538710000000  0.5115280000000  0.4427740000000 1.0
C      1  0.5766560000000  0.4900850000000  0.4825980000000 1.0
C      1  0.4725830000000  0.5068150000000  0.5676030000000 1.0
C      1  0.5541690000000  0.5182180000000  0.5528930000000 1.0
C      1  0.4326600000000  0.5115730000000  0.5253370000000 1.0
C      1  0.5231750000000  0.5152420000000  0.4332370000000 1.0
C      1  0.5227430000000  0.5706200000000  0.5599210000000 1.0
C      1  0.4149650000000  0.5605340000000  0.4958200000000 1.0
C      1  0.5432420000000  0.5567490000000  0.4562630000000 1.0
C      1  0.5108530000000  0.4635000000000  0.4324540000000 1.0
C      1  0.5471720000000  0.4628650000000  0.5489940000000 1.0
C      1  0.4366060000000  0.4586550000000  0.5207710000000 1.0
C      1  0.5088900000000  0.5265040000000  0.4086790000000 1.0
C      1  0.5810000000000  0.5315200000000  0.5459590000000 1.0
C      1  0.4309620000000  0.5196610000000  0.5551730000000 1.0
C      1  0.4879300000000  0.5085580000000  0.4914150000000 1.0
C      1  0.5187070000000  0.4971020000000  0.4920220000000 1.0
C      1  0.5039490000000  0.5093420000000  0.5194380000000 1.0
C      1  0.5360980000000  0.5418760000000  0.5634100000000 1.0
C      1  0.4138760000000  0.5309560000000  0.5071690000000 1.0
C      1  0.5479500000000  0.5349620000000  0.4405210000000 1.0
C      1  0.4635190000000  0.5525480000000  0.5218580000000 1.0
C      1  0.4935800000000  0.5531900000000  0.4623390000000 1.0
C      1  0.5295630000000  0.5506670000000  0.5070980000000 1.0
C      1  0.5027670000000  0.4477850000000  0.4582270000000 1.0
C      1  0.5315340000000  0.4491430000000  0.5237110000000 1.0
C      1  0.4647470000000  0.4513030000000  0.5094190000000 1.0
C      1  0.5187770000000  0.4738970000000  0.4710570000000 1.0
C      1  0.5169670000000  0.4789670000000  0.5274700000000 1.0
C      1  0.4753320000000  0.4783250000000  0.5005600000000 1.0
C      1  0.5390040000000  0.4696010000000  0.4368710000000 1.0
C      1  0.5273320000000  0.4753400000000  0.5658310000000 1.0
C      1  0.4359260000000  0.4736810000000  0.4932380000000 1.0
C      1  0.4830360000000  0.5253500000000  0.4663260000000 1.0
C      1  0.5403110000000  0.5200560000000  0.4991070000000 1.0
C      1  0.4798520000000  0.5285560000000  0.5316010000000 1.0
C      1  0.5265300000000  0.5036060000000  0.5640790000000 1.0
C      1  0.4371220000000  0.5015150000000  0.4945890000000 1.0
C      1  0.5434550000000  0.4959610000000  0.4476930000000 1.0
C      1  0.4511270000000  0.5222890000000  0.4743930000000 1.0
C      1  0.5546130000000  0.5050780000000  0.4721750000000 1.0
C      1  0.5013300000000  0.5215710000000  0.5570240000000 1.0
C      1  0.5020040000000  0.4631000000000  0.5608860000000 1.0
C      1  0.4516560000000  0.4616890000000  0.4730910000000 1.0
C      1  0.5523960000000  0.4491830000000  0.4512970000000 1.0
C      1  0.4563020000000  0.4833940000000  0.5575820000000 1.0
C      1  0.4691350000000  0.4891570000000  0.4381200000000 1.0
C      1  0.5666010000000  0.4693490000000  0.4991950000000 1.0
C      1  0.4845340000000  0.4209960000000  0.4687830000000 1.0
C      1  0.5301350000000  0.4243000000000  0.5019040000000 1.0
C      1  0.4827130000000  0.4289030000000  0.5257600000000 1.0
C      1  0.5140810000000  0.4220550000000  0.5301900000000 1.0
C      1  0.4687660000000  0.4193160000000  0.4981480000000 1.0
C      1  0.5160620000000  0.4225810000000  0.4726640000000 1.0
END
