TITL C-2622954-8726-719 -0.00125315925695041 125000 -496.991361086765 0 0 88 (C1) n - 1
REM
REM in /nfs/bkarasulu/CARBON/AIRSS/Generating-Clusters/AIREBO/with-SteepDescent/Higher-Symm/SD-CG/HFTN-CG
REM
REM
REM
REM
REM
REM ./C.cell (b20cbc046b6831c77cfcea5457e17084)
REM
REM compiler GCC version 9.2.1 20190827 (Red Hat 9.2.1-1)
REM options -cpp -mtune=generic -march=x86-64 -g -O0 -fpre-include=/usr/include/finclude/math-vector-fortran.h
REM seed -45342819 -185897675 -1082182370 36521030 992104937 -1686449990 -1396787685 -1698435968 630488993 1897092561 216094036 -472266237 1721401815 802624990 -778166579 673689996 592228184 -1799052630 219777390 -219623302 -1285614908 1564586240 -22979251 -1089488853 -1393987718 923968213 -1420853271 1727966189 -2018027998 1984818569 1348741774 -1429024191 1541985029
REM
CELL 1.54180   50.00000   50.00000   50.00000   90.00000   90.00000   90.00000
LATT -1
SFAC C  
C      1  0.5847250000000  0.4796180000000  0.5098980000000 1.0
C      1  0.5080490000000  0.5912100000000  0.4927370000000 1.0
C      1  0.4785900000000  0.4923210000000  0.5866240000000 1.0
C      1  0.4209060000000  0.4833520000000  0.5014280000000 1.0
C      1  0.5752590000000  0.5283760000000  0.4959920000000 1.0
C      1  0.4228890000000  0.5167870000000  0.4962550000000 1.0
C      1  0.4907280000000  0.5813060000000  0.5339010000000 1.0
C      1  0.5027600000000  0.4218820000000  0.5102990000000 1.0
C      1  0.4965540000000  0.4143090000000  0.4678430000000 1.0
C      1  0.5203140000000  0.5007210000000  0.4179790000000 1.0
C      1  0.4679170000000  0.4882670000000  0.4257230000000 1.0
C      1  0.5310400000000  0.4896480000000  0.5820630000000 1.0
C      1  0.5029280000000  0.4704670000000  0.5830250000000 1.0
C      1  0.4767790000000  0.5824310000000  0.5028630000000 1.0
C      1  0.5781790000000  0.4964540000000  0.4846530000000 1.0
C      1  0.4953520000000  0.4812110000000  0.4217710000000 1.0
C      1  0.4868170000000  0.5184000000000  0.5920770000000 1.0
C      1  0.5066600000000  0.5303570000000  0.4171280000000 1.0
C      1  0.5315670000000  0.5764050000000  0.4914700000000 1.0
C      1  0.5299280000000  0.4248080000000  0.5049980000000 1.0
C      1  0.4750280000000  0.4166950000000  0.4942200000000 1.0
C      1  0.4188170000000  0.5052700000000  0.5273480000000 1.0
C      1  0.4222900000000  0.4951650000000  0.4700000000000 1.0
C      1  0.5813660000000  0.5075800000000  0.5222050000000 1.0
C      1  0.4939090000000  0.4409050000000  0.5368000000000 1.0
C      1  0.5303860000000  0.4794470000000  0.4424230000000 1.0
C      1  0.4482980000000  0.5388760000000  0.4898570000000 1.0
C      1  0.5177930000000  0.4318550000000  0.4604730000000 1.0
C      1  0.4919820000000  0.5540380000000  0.4586700000000 1.0
C      1  0.5110940000000  0.5625150000000  0.5338040000000 1.0
C      1  0.4609410000000  0.4926190000000  0.5575650000000 1.0
C      1  0.5317070000000  0.5147220000000  0.5675500000000 1.0
C      1  0.4647380000000  0.5137270000000  0.4407750000000 1.0
C      1  0.5549500000000  0.5368480000000  0.5219140000000 1.0
C      1  0.4474660000000  0.4632210000000  0.5081670000000 1.0
C      1  0.5588950000000  0.4614930000000  0.4855060000000 1.0
C      1  0.5370520000000  0.4365460000000  0.4802110000000 1.0
C      1  0.4385710000000  0.4798140000000  0.5369580000000 1.0
C      1  0.4838000000000  0.5357770000000  0.4334520000000 1.0
C      1  0.4650030000000  0.4376260000000  0.5190710000000 1.0
C      1  0.4687280000000  0.5633600000000  0.4779250000000 1.0
C      1  0.5355730000000  0.5617610000000  0.5177260000000 1.0
C      1  0.5548850000000  0.4876490000000  0.4639760000000 1.0
C      1  0.5520750000000  0.5087690000000  0.5408810000000 1.0
C      1  0.4406500000000  0.5223500000000  0.4611300000000 1.0
C      1  0.5032730000000  0.5295880000000  0.5670550000000 1.0
C      1  0.5043710000000  0.4576820000000  0.4448640000000 1.0
C      1  0.4852900000000  0.4677770000000  0.5557840000000 1.0
C      1  0.4737570000000  0.4442990000000  0.4385430000000 1.0
C      1  0.4356020000000  0.4684080000000  0.4585180000000 1.0
C      1  0.4486490000000  0.4236910000000  0.4749950000000 1.0
C      1  0.5289630000000  0.4512430000000  0.5727000000000 1.0
C      1  0.4725610000000  0.5441070000000  0.5647590000000 1.0
C      1  0.5294180000000  0.5492990000000  0.4240430000000 1.0
C      1  0.5640530000000  0.4775940000000  0.5472780000000 1.0
C      1  0.4330940000000  0.5310660000000  0.5388070000000 1.0
C      1  0.5595610000000  0.5183550000000  0.4501130000000 1.0
C      1  0.5433130000000  0.4350900000000  0.5277040000000 1.0
C      1  0.4528380000000  0.5738770000000  0.5261890000000 1.0
C      1  0.5423060000000  0.5625400000000  0.4692140000000 1.0
C      1  0.4374380000000  0.4487080000000  0.4790990000000 1.0
C      1  0.4541040000000  0.4657210000000  0.4368120000000 1.0
C      1  0.4704180000000  0.4216420000000  0.4548710000000 1.0
C      1  0.5616880000000  0.4584130000000  0.5193000000000 1.0
C      1  0.5626760000000  0.5403980000000  0.4694840000000 1.0
C      1  0.4375500000000  0.5515320000000  0.5195310000000 1.0
C      1  0.5531560000000  0.4696980000000  0.5725100000000 1.0
C      1  0.5444510000000  0.5227360000000  0.4269280000000 1.0
C      1  0.4516040000000  0.5252640000000  0.5595070000000 1.0
C      1  0.5249170000000  0.4366250000000  0.5497070000000 1.0
C      1  0.5230240000000  0.5617130000000  0.4485970000000 1.0
C      1  0.4688080000000  0.5710210000000  0.5535490000000 1.0
C      1  0.5200270000000  0.5067170000000  0.4599040000000 1.0
C      1  0.4737560000000  0.5340600000000  0.5119010000000 1.0
C      1  0.5354280000000  0.4793610000000  0.4976950000000 1.0
C      1  0.5127730000000  0.5327790000000  0.4741870000000 1.0
C      1  0.5057660000000  0.4722360000000  0.5290050000000 1.0
C      1  0.4743140000000  0.5080440000000  0.5315250000000 1.0
C      1  0.4980430000000  0.5341030000000  0.5357120000000 1.0
C      1  0.5289860000000  0.4902330000000  0.5241530000000 1.0
C      1  0.4930510000000  0.4697820000000  0.4729450000000 1.0
C      1  0.4675890000000  0.5062150000000  0.4728080000000 1.0
C      1  0.5321390000000  0.5353170000000  0.4966290000000 1.0
C      1  0.4691550000000  0.4800270000000  0.4880800000000 1.0
C      1  0.4818320000000  0.4846140000000  0.5154950000000 1.0
C      1  0.5159380000000  0.4848640000000  0.4792020000000 1.0
C      1  0.4855530000000  0.5252640000000  0.4855300000000 1.0
C      1  0.5195230000000  0.5186920000000  0.5200890000000 1.0
END
