TITL C-2622960-5345-24 -0.000158034688042807 125000 -754.666630786718 0 0 142 (C1) n - 1
REM
REM in /nfs/bkarasulu/CARBON/AIRSS/Generating-Clusters/AIREBO/with-SteepDescent/Higher-Symm/SD-CG/HFTN-CG
REM
REM
REM
REM
REM
REM ./C.cell (b20cbc046b6831c77cfcea5457e17084)
REM
REM compiler GCC version 9.2.1 20190827 (Red Hat 9.2.1-1)
REM options -cpp -mtune=generic -march=x86-64 -g -O0 -fpre-include=/usr/include/finclude/math-vector-fortran.h
REM seed 1944783883 -2070363193 930364657 1353620590 -366417375 -1277769617 -314829429 2058666518 -1569211192 -164895527 -1168105994 -924897525 -806073601 1346322641 889143201 1885353337 -608163561 50390578 -472452263 502238180 -1743412986 1690696688 295975397 -1334047335 1974471828 706186419 -861653992 1950550304 525589089 -894787770 653575412 -1314258002 1435829296
REM
CELL 1.54180   50.00000   50.00000   50.00000   90.00000   90.00000   90.00000
LATT -1
SFAC C  
C      1  0.4002930000000  0.5107680000000  0.4833520000000 1.0
C      1  0.5956770000000  0.5099720000000  0.4884030000000 1.0
C      1  0.4302320000000  0.4696240000000  0.5551120000000 1.0
C      1  0.5681540000000  0.4724990000000  0.5607590000000 1.0
C      1  0.5202930000000  0.3958630000000  0.5145060000000 1.0
C      1  0.4819480000000  0.4035230000000  0.5082930000000 1.0
C      1  0.5433610000000  0.5461220000000  0.5611520000000 1.0
C      1  0.4605370000000  0.5453380000000  0.5647190000000 1.0
C      1  0.5369940000000  0.4090000000000  0.4560660000000 1.0
C      1  0.4721020000000  0.4126460000000  0.4624570000000 1.0
C      1  0.5718910000000  0.4690140000000  0.4901560000000 1.0
C      1  0.4294100000000  0.4734250000000  0.4852370000000 1.0
C      1  0.4701930000000  0.4413590000000  0.4615990000000 1.0
C      1  0.5278740000000  0.4404240000000  0.4659270000000 1.0
C      1  0.4479560000000  0.5614990000000  0.4284260000000 1.0
C      1  0.5477620000000  0.5665030000000  0.4286520000000 1.0
C      1  0.4409940000000  0.4750520000000  0.5170650000000 1.0
C      1  0.5606660000000  0.4774570000000  0.5211340000000 1.0
C      1  0.5744810000000  0.5228160000000  0.4503740000000 1.0
C      1  0.4293900000000  0.5279580000000  0.4508610000000 1.0
C      1  0.4791830000000  0.5467690000000  0.4469300000000 1.0
C      1  0.5189230000000  0.5460120000000  0.4462100000000 1.0
C      1  0.5897000000000  0.4776040000000  0.5388300000000 1.0
C      1  0.4105160000000  0.4751820000000  0.5321720000000 1.0
C      1  0.5566320000000  0.4440400000000  0.5260310000000 1.0
C      1  0.4493900000000  0.4426040000000  0.5201130000000 1.0
C      1  0.4413270000000  0.4395270000000  0.4203010000000 1.0
C      1  0.5380460000000  0.4421910000000  0.4335220000000 1.0
C      1  0.4857810000000  0.4613280000000  0.4917470000000 1.0
C      1  0.5341270000000  0.4545280000000  0.5027970000000 1.0
C      1  0.4694210000000  0.4439220000000  0.4192340000000 1.0
C      1  0.5164110000000  0.4445070000000  0.4119230000000 1.0
C      1  0.5729240000000  0.4950080000000  0.4698810000000 1.0
C      1  0.4237830000000  0.4984760000000  0.4641980000000 1.0
C      1  0.4320240000000  0.4915350000000  0.4156980000000 1.0
C      1  0.5585060000000  0.4897790000000  0.4237040000000 1.0
C      1  0.4908160000000  0.4955800000000  0.4063760000000 1.0
C      1  0.5145910000000  0.4718170000000  0.3668780000000 1.0
C      1  0.5675660000000  0.5473460000000  0.4677820000000 1.0
C      1  0.4313190000000  0.5458980000000  0.4728680000000 1.0
C      1  0.5727320000000  0.4752500000000  0.4424690000000 1.0
C      1  0.4205020000000  0.4799100000000  0.4375780000000 1.0
C      1  0.5725510000000  0.5808540000000  0.5266610000000 1.0
C      1  0.4291090000000  0.5788680000000  0.5322830000000 1.0
C      1  0.5318870000000  0.5034340000000  0.4393090000000 1.0
C      1  0.4620490000000  0.4988480000000  0.4208310000000 1.0
C      1  0.5384180000000  0.4210690000000  0.5087940000000 1.0
C      1  0.4757040000000  0.4369820000000  0.5085030000000 1.0
C      1  0.5529810000000  0.4478850000000  0.5574970000000 1.0
C      1  0.4462420000000  0.4463410000000  0.5510810000000 1.0
C      1  0.5316410000000  0.5152540000000  0.5584630000000 1.0
C      1  0.4682730000000  0.5148160000000  0.5546810000000 1.0
C      1  0.5159270000000  0.4749980000000  0.4296580000000 1.0
C      1  0.4763270000000  0.4711010000000  0.4343740000000 1.0
C      1  0.5332130000000  0.6083210000000  0.5207070000000 1.0
C      1  0.4681000000000  0.6054370000000  0.5209470000000 1.0
C      1  0.5307500000000  0.5774800000000  0.5571000000000 1.0
C      1  0.4730700000000  0.5766450000000  0.5600190000000 1.0
C      1  0.4548020000000  0.5282670000000  0.4323560000000 1.0
C      1  0.5474280000000  0.5333250000000  0.4362460000000 1.0
C      1  0.4298090000000  0.5645130000000  0.5020360000000 1.0
C      1  0.5684920000000  0.5637130000000  0.4975730000000 1.0
C      1  0.5434580000000  0.5780220000000  0.4793070000000 1.0
C      1  0.4495280000000  0.5802760000000  0.4792370000000 1.0
C      1  0.5435220000000  0.5077710000000  0.5957880000000 1.0
C      1  0.4539180000000  0.4996270000000  0.5896130000000 1.0
C      1  0.4432910000000  0.4928250000000  0.5619160000000 1.0
C      1  0.5570760000000  0.4955330000000  0.5700450000000 1.0
C      1  0.5608860000000  0.4418550000000  0.4762180000000 1.0
C      1  0.4394370000000  0.4480210000000  0.4681460000000 1.0
C      1  0.5290630000000  0.5575160000000  0.5103670000000 1.0
C      1  0.4712370000000  0.5565980000000  0.5150310000000 1.0
C      1  0.4619420000000  0.5490930000000  0.4847350000000 1.0
C      1  0.5377780000000  0.5445940000000  0.4811210000000 1.0
C      1  0.5218730000000  0.5885930000000  0.5004250000000 1.0
C      1  0.4744920000000  0.5842670000000  0.4989140000000 1.0
C      1  0.4659570000000  0.4962340000000  0.5262920000000 1.0
C      1  0.5338840000000  0.4936480000000  0.5249950000000 1.0
C      1  0.5392680000000  0.4991380000000  0.4724390000000 1.0
C      1  0.4562830000000  0.5020910000000  0.4735450000000 1.0
C      1  0.4065400000000  0.4585330000000  0.5056400000000 1.0
C      1  0.5950470000000  0.4591880000000  0.5133450000000 1.0
C      1  0.4499020000000  0.5551020000000  0.5359760000000 1.0
C      1  0.5524590000000  0.5548110000000  0.5326820000000 1.0
C      1  0.4339020000000  0.5316170000000  0.5097050000000 1.0
C      1  0.5610110000000  0.5326490000000  0.5112510000000 1.0
C      1  0.5400560000000  0.5355170000000  0.5922640000000 1.0
C      1  0.4639130000000  0.5262010000000  0.5925740000000 1.0
C      1  0.4646500000000  0.5196150000000  0.5014750000000 1.0
C      1  0.5326440000000  0.5171890000000  0.5005790000000 1.0
C      1  0.4089760000000  0.5179970000000  0.5092410000000 1.0
C      1  0.5874090000000  0.5185890000000  0.5127230000000 1.0
C      1  0.5256120000000  0.4716040000000  0.4793330000000 1.0
C      1  0.4688800000000  0.4749840000000  0.4664780000000 1.0
C      1  0.5981230000000  0.5069030000000  0.5346040000000 1.0
C      1  0.3987260000000  0.5031020000000  0.5306750000000 1.0
C      1  0.5224700000000  0.4826810000000  0.5551100000000 1.0
C      1  0.4833300000000  0.4782320000000  0.5493430000000 1.0
C      1  0.5226190000000  0.4870750000000  0.5877570000000 1.0
C      1  0.4726400000000  0.4739470000000  0.5811870000000 1.0
C      1  0.5790510000000  0.4322900000000  0.5033200000000 1.0
C      1  0.4280140000000  0.4359210000000  0.4977970000000 1.0
C      1  0.5485120000000  0.5949320000000  0.5395980000000 1.0
C      1  0.4542110000000  0.5941990000000  0.5423360000000 1.0
C      1  0.4656110000000  0.5762060000000  0.4515400000000 1.0
C      1  0.5283930000000  0.5769010000000  0.4519880000000 1.0
C      1  0.4269710000000  0.4528940000000  0.4411180000000 1.0
C      1  0.5635420000000  0.4492450000000  0.4462870000000 1.0
C      1  0.5273250000000  0.4455410000000  0.5685080000000 1.0
C      1  0.4696360000000  0.4448610000000  0.5660400000000 1.0
C      1  0.5027350000000  0.3851620000000  0.4910480000000 1.0
C      1  0.4971440000000  0.4051240000000  0.4317940000000 1.0
C      1  0.4987030000000  0.5267100000000  0.4020060000000 1.0
C      1  0.5044060000000  0.4052890000000  0.4650240000000 1.0
C      1  0.4964650000000  0.6187640000000  0.4432370000000 1.0
C      1  0.5057580000000  0.4547730000000  0.5451380000000 1.0
C      1  0.5002120000000  0.4913830000000  0.4850590000000 1.0
C      1  0.5008620000000  0.5480570000000  0.5226290000000 1.0
C      1  0.5098540000000  0.4263940000000  0.4911300000000 1.0
C      1  0.5012100000000  0.5767460000000  0.5409010000000 1.0
C      1  0.4968830000000  0.5897280000000  0.4516970000000 1.0
C      1  0.4989050000000  0.5734420000000  0.4808830000000 1.0
C      1  0.5110250000000  0.5467480000000  0.5846160000000 1.0
C      1  0.5000370000000  0.5113170000000  0.4345440000000 1.0
C      1  0.4988940000000  0.4015040000000  0.5383110000000 1.0
C      1  0.4940250000000  0.5234400000000  0.6001850000000 1.0
C      1  0.4867310000000  0.5104210000000  0.4616230000000 1.0
C      1  0.4981150000000  0.4719680000000  0.5998370000000 1.0
C      1  0.4924490000000  0.4275100000000  0.4163170000000 1.0
C      1  0.5095740000000  0.4729250000000  0.3963190000000 1.0
C      1  0.5003120000000  0.5391560000000  0.5531170000000 1.0
C      1  0.4992630000000  0.5123510000000  0.5684670000000 1.0
C      1  0.4988780000000  0.5397720000000  0.4737560000000 1.0
C      1  0.5025190000000  0.5766340000000  0.5756640000000 1.0
C      1  0.4986360000000  0.5209930000000  0.5021180000000 1.0
C      1  0.5035260000000  0.4321310000000  0.5241000000000 1.0
C      1  0.5003270000000  0.4551270000000  0.4524170000000 1.0
C      1  0.4999110000000  0.4984760000000  0.6185960000000 1.0
C      1  0.4979750000000  0.4434170000000  0.5826320000000 1.0
C      1  0.4992670000000  0.5488610000000  0.4209630000000 1.0
C      1  0.4935660000000  0.3884790000000  0.5612910000000 1.0
C      1  0.4999450000000  0.4958500000000  0.5249900000000 1.0
END
