TITL C-2622960-5345-744 6.85033941780878e-05 125000 -1031.52555433977 0 0 183 (C1) n - 1
REM
REM in /nfs/bkarasulu/CARBON/AIRSS/Generating-Clusters/AIREBO/with-SteepDescent/Higher-Symm/SD-CG/HFTN-CG
REM
REM
REM
REM
REM
REM ./C.cell (b20cbc046b6831c77cfcea5457e17084)
REM
REM compiler GCC version 9.2.1 20190827 (Red Hat 9.2.1-1)
REM options -cpp -mtune=generic -march=x86-64 -g -O0 -fpre-include=/usr/include/finclude/math-vector-fortran.h
REM seed -689485734 -1741317821 -1189102403 -1890729505 -90849512 1821286411 1533652699 -2103883886 -503256201 -421711666 1171502490 -1991813613 -1201203427 -349857988 -1886600000 1568182829 -1226031771 1647984253 174171222 1259244955 1693737751 1639832226 532086626 -1315580519 1220527827 -1268116594 -1829998761 1140022706 -1885193188 -699176184 1858327369 688034654 649922129
REM
CELL 1.54180   50.00000   50.00000   50.00000   90.00000   90.00000   90.00000
LATT -1
SFAC C  
C      1  0.4150200000000  0.4945030000000  0.5624570000000 1.0
C      1  0.4444930000000  0.5609180000000  0.5677350000000 1.0
C      1  0.5090850000000  0.5846130000000  0.5761170000000 1.0
C      1  0.5697570000000  0.5409870000000  0.5670050000000 1.0
C      1  0.5746130000000  0.4795300000000  0.5758000000000 1.0
C      1  0.5263580000000  0.4222470000000  0.5716150000000 1.0
C      1  0.4526500000000  0.4286720000000  0.5626760000000 1.0
C      1  0.4159020000000  0.5291610000000  0.5014980000000 1.0
C      1  0.4831470000000  0.5930760000000  0.5012880000000 1.0
C      1  0.5654580000000  0.5867940000000  0.5100310000000 1.0
C      1  0.5896300000000  0.5080160000000  0.5011810000000 1.0
C      1  0.5670830000000  0.4251940000000  0.5026000000000 1.0
C      1  0.4872650000000  0.3941660000000  0.4992820000000 1.0
C      1  0.4091810000000  0.4367520000000  0.4954190000000 1.0
C      1  0.5947070000000  0.5224240000000  0.5299930000000 1.0
C      1  0.5768350000000  0.4329460000000  0.5328570000000 1.0
C      1  0.4958990000000  0.3882390000000  0.5296470000000 1.0
C      1  0.4108750000000  0.4228430000000  0.5224980000000 1.0
C      1  0.3927150000000  0.5387140000000  0.5232090000000 1.0
C      1  0.4774470000000  0.6090970000000  0.5271400000000 1.0
C      1  0.5562290000000  0.5984660000000  0.5387240000000 1.0
C      1  0.5803690000000  0.5054550000000  0.4245690000000 1.0
C      1  0.5604870000000  0.4399970000000  0.4210970000000 1.0
C      1  0.4956210000000  0.4193740000000  0.4182380000000 1.0
C      1  0.4293450000000  0.4702830000000  0.4225960000000 1.0
C      1  0.4268790000000  0.5298220000000  0.4334330000000 1.0
C      1  0.4770110000000  0.5748910000000  0.4282530000000 1.0
C      1  0.5440430000000  0.5626640000000  0.4271620000000 1.0
C      1  0.4434410000000  0.4585080000000  0.5193120000000 1.0
C      1  0.4322380000000  0.5120530000000  0.5246160000000 1.0
C      1  0.4871430000000  0.5642410000000  0.5219960000000 1.0
C      1  0.5456680000000  0.5629210000000  0.5240340000000 1.0
C      1  0.5501580000000  0.5014610000000  0.5262760000000 1.0
C      1  0.5443590000000  0.4546890000000  0.5259300000000 1.0
C      1  0.4927100000000  0.4327610000000  0.5235480000000 1.0
C      1  0.5249740000000  0.5237470000000  0.4964360000000 1.0
C      1  0.5243820000000  0.4920440000000  0.4971540000000 1.0
C      1  0.5119520000000  0.4647680000000  0.4900960000000 1.0
C      1  0.4810440000000  0.4602450000000  0.4949130000000 1.0
C      1  0.4733160000000  0.4926920000000  0.4883200000000 1.0
C      1  0.4728150000000  0.5202750000000  0.5013660000000 1.0
C      1  0.4984650000000  0.5359360000000  0.4961640000000 1.0
C      1  0.4691550000000  0.4743720000000  0.5234830000000 1.0
C      1  0.4610930000000  0.5012900000000  0.5347610000000 1.0
C      1  0.4804220000000  0.5259690000000  0.5314410000000 1.0
C      1  0.5083960000000  0.5408480000000  0.5345800000000 1.0
C      1  0.5371380000000  0.5300080000000  0.5244520000000 1.0
C      1  0.5244880000000  0.4792810000000  0.5286710000000 1.0
C      1  0.4955790000000  0.4622940000000  0.5343290000000 1.0
C      1  0.5107810000000  0.5694780000000  0.4309010000000 1.0
C      1  0.5634920000000  0.5345240000000  0.4312380000000 1.0
C      1  0.5702820000000  0.4725390000000  0.4245090000000 1.0
C      1  0.5280030000000  0.4293570000000  0.4212030000000 1.0
C      1  0.4730060000000  0.4328520000000  0.4359760000000 1.0
C      1  0.4240080000000  0.4960530000000  0.4376930000000 1.0
C      1  0.4516440000000  0.5532630000000  0.4351710000000 1.0
C      1  0.5154410000000  0.5350940000000  0.5655920000000 1.0
C      1  0.5322680000000  0.5102800000000  0.5718080000000 1.0
C      1  0.5238300000000  0.4826130000000  0.5621110000000 1.0
C      1  0.4969260000000  0.4620770000000  0.5683070000000 1.0
C      1  0.4660610000000  0.4724640000000  0.5693830000000 1.0
C      1  0.4636820000000  0.5047500000000  0.5692700000000 1.0
C      1  0.4834940000000  0.5319230000000  0.5642520000000 1.0
C      1  0.4720460000000  0.5477760000000  0.4690220000000 1.0
C      1  0.5206350000000  0.5520920000000  0.4653710000000 1.0
C      1  0.5531160000000  0.5144600000000  0.4690120000000 1.0
C      1  0.5616610000000  0.4758450000000  0.4654830000000 1.0
C      1  0.5287360000000  0.4451250000000  0.4688740000000 1.0
C      1  0.4543660000000  0.4610160000000  0.4738480000000 1.0
C      1  0.4455800000000  0.5057550000000  0.4749860000000 1.0
C      1  0.4373220000000  0.5406950000000  0.5422550000000 1.0
C      1  0.4878590000000  0.5799640000000  0.5521340000000 1.0
C      1  0.5493400000000  0.5642920000000  0.5581340000000 1.0
C      1  0.5736340000000  0.4934010000000  0.5466540000000 1.0
C      1  0.5472900000000  0.4418670000000  0.5567500000000 1.0
C      1  0.4811340000000  0.4191170000000  0.5498960000000 1.0
C      1  0.4212710000000  0.4670550000000  0.5436370000000 1.0
C      1  0.5883010000000  0.4835050000000  0.4491080000000 1.0
C      1  0.5446720000000  0.4267760000000  0.4481400000000 1.0
C      1  0.4692390000000  0.4204470000000  0.4611280000000 1.0
C      1  0.4175820000000  0.4885370000000  0.4669890000000 1.0
C      1  0.4314550000000  0.5496700000000  0.4606570000000 1.0
C      1  0.4944930000000  0.5853020000000  0.4544180000000 1.0
C      1  0.5628540000000  0.5587530000000  0.4542060000000 1.0
C      1  0.5957940000000  0.4276530000000  0.4865770000000 1.0
C      1  0.5062240000000  0.3763410000000  0.4770150000000 1.0
C      1  0.4108230000000  0.4185710000000  0.4667240000000 1.0
C      1  0.3818920000000  0.5177120000000  0.4826150000000 1.0
C      1  0.4442350000000  0.5979950000000  0.4811450000000 1.0
C      1  0.5430030000000  0.6106660000000  0.4799310000000 1.0
C      1  0.6102480000000  0.5383450000000  0.4726290000000 1.0
C      1  0.5781580000000  0.5731820000000  0.5449520000000 1.0
C      1  0.6006910000000  0.4889340000000  0.5308620000000 1.0
C      1  0.5533160000000  0.4109670000000  0.5438980000000 1.0
C      1  0.4635330000000  0.3946870000000  0.5378810000000 1.0
C      1  0.4024010000000  0.4404170000000  0.5423590000000 1.0
C      1  0.4065490000000  0.5523030000000  0.5420630000000 1.0
C      1  0.5019880000000  0.6091540000000  0.5454100000000 1.0
C      1  0.5885370000000  0.5509320000000  0.5298670000000 1.0
C      1  0.5993150000000  0.4561380000000  0.5219960000000 1.0
C      1  0.5269490000000  0.4000530000000  0.5369800000000 1.0
C      1  0.4391610000000  0.4075600000000  0.5300820000000 1.0
C      1  0.3737440000000  0.5194680000000  0.5250980000000 1.0
C      1  0.4501640000000  0.6056420000000  0.5316040000000 1.0
C      1  0.5283510000000  0.6082340000000  0.5341510000000 1.0
C      1  0.5266240000000  0.5622860000000  0.5788960000000 1.0
C      1  0.5608260000000  0.5153350000000  0.5653030000000 1.0
C      1  0.5475280000000  0.4655320000000  0.5787290000000 1.0
C      1  0.5002110000000  0.4306470000000  0.5703810000000 1.0
C      1  0.4458510000000  0.4549550000000  0.5629840000000 1.0
C      1  0.4334220000000  0.5152380000000  0.5644700000000 1.0
C      1  0.4743570000000  0.5611760000000  0.5723970000000 1.0
C      1  0.5562590000000  0.4014700000000  0.4583540000000 1.0
C      1  0.4591320000000  0.3927850000000  0.4579550000000 1.0
C      1  0.3900610000000  0.4728280000000  0.4667080000000 1.0
C      1  0.4076230000000  0.5645710000000  0.4717130000000 1.0
C      1  0.4930050000000  0.6155300000000  0.4613960000000 1.0
C      1  0.5801690000000  0.5840010000000  0.4614360000000 1.0
C      1  0.6120430000000  0.4885210000000  0.4653950000000 1.0
C      1  0.3835920000000  0.4943670000000  0.5100900000000 1.0
C      1  0.4383690000000  0.5842560000000  0.5112820000000 1.0
C      1  0.5216400000000  0.6056890000000  0.5037350000000 1.0
C      1  0.5892760000000  0.5576070000000  0.4862070000000 1.0
C      1  0.6122370000000  0.4471200000000  0.4958320000000 1.0
C      1  0.5254950000000  0.4001450000000  0.4894480000000 1.0
C      1  0.4379450000000  0.4110630000000  0.4859760000000 1.0
C      1  0.5301480000000  0.5056760000000  0.3924220000000 1.0
C      1  0.5244140000000  0.4788690000000  0.3912420000000 1.0
C      1  0.4996330000000  0.4687230000000  0.3987850000000 1.0
C      1  0.4734350000000  0.4757530000000  0.3991960000000 1.0
C      1  0.4669340000000  0.5026470000000  0.3995890000000 1.0
C      1  0.4836120000000  0.5245520000000  0.3944260000000 1.0
C      1  0.5114200000000  0.5260140000000  0.3917220000000 1.0
C      1  0.4744570000000  0.3758630000000  0.4737050000000 1.0
C      1  0.3923320000000  0.4457240000000  0.4687150000000 1.0
C      1  0.3920200000000  0.5444130000000  0.4839240000000 1.0
C      1  0.4696450000000  0.6067060000000  0.4773160000000 1.0
C      1  0.5667440000000  0.5984030000000  0.4842580000000 1.0
C      1  0.6088450000000  0.5122360000000  0.4797500000000 1.0
C      1  0.5762340000000  0.4058560000000  0.4764460000000 1.0
C      1  0.4256320000000  0.4662720000000  0.4914080000000 1.0
C      1  0.4463140000000  0.5373960000000  0.4886860000000 1.0
C      1  0.4960080000000  0.5672870000000  0.4832250000000 1.0
C      1  0.5478940000000  0.5431600000000  0.4804770000000 1.0
C      1  0.5597250000000  0.4931740000000  0.4946950000000 1.0
C      1  0.5379260000000  0.4363810000000  0.5004000000000 1.0
C      1  0.4773590000000  0.4264320000000  0.4938640000000 1.0
C      1  0.5059770000000  0.4630370000000  0.4509770000000 1.0
C      1  0.4737070000000  0.4704970000000  0.4494710000000 1.0
C      1  0.4672620000000  0.5015080000000  0.4502540000000 1.0
C      1  0.4819810000000  0.5291460000000  0.4467390000000 1.0
C      1  0.5132680000000  0.5316080000000  0.4435290000000 1.0
C      1  0.5347800000000  0.5082620000000  0.4456880000000 1.0
C      1  0.5351920000000  0.4762310000000  0.4440590000000 1.0
C      1  0.5696410000000  0.4677920000000  0.5150300000000 1.0
C      1  0.5168030000000  0.4174750000000  0.5127570000000 1.0
C      1  0.4473000000000  0.4300160000000  0.5083470000000 1.0
C      1  0.4125260000000  0.4856780000000  0.5160710000000 1.0
C      1  0.4541580000000  0.5556310000000  0.5163270000000 1.0
C      1  0.5171060000000  0.5738750000000  0.5090760000000 1.0
C      1  0.5689980000000  0.5473510000000  0.5048070000000 1.0
C      1  0.4787410000000  0.4811490000000  0.6121240000000 1.0
C      1  0.4727320000000  0.5058110000000  0.6017700000000 1.0
C      1  0.4911210000000  0.5557520000000  0.5973370000000 1.0
C      1  0.5218210000000  0.5449930000000  0.6077750000000 1.0
C      1  0.5256210000000  0.5115280000000  0.6022720000000 1.0
C      1  0.5276220000000  0.4796850000000  0.6017700000000 1.0
C      1  0.5009870000000  0.4687800000000  0.5999830000000 1.0
C      1  0.5152490000000  0.6238400000000  0.4754500000000 1.0
C      1  0.6110590000000  0.5700750000000  0.4643770000000 1.0
C      1  0.6232410000000  0.4662730000000  0.4785640000000 1.0
C      1  0.5365650000000  0.3821310000000  0.4657400000000 1.0
C      1  0.4288780000000  0.3913830000000  0.4610450000000 1.0
C      1  0.3719330000000  0.4885840000000  0.4806960000000 1.0
C      1  0.4155840000000  0.5870240000000  0.4858480000000 1.0
C      1  0.4511560000000  0.5090460000000  0.4236970000000 1.0
C      1  0.4769010000000  0.5428000000000  0.4170200000000 1.0
C      1  0.5198430000000  0.5435310000000  0.4136620000000 1.0
C      1  0.5483700000000  0.5100400000000  0.4152290000000 1.0
C      1  0.5412580000000  0.4661480000000  0.4122130000000 1.0
C      1  0.5052740000000  0.4513320000000  0.4216390000000 1.0
C      1  0.4592780000000  0.4601810000000  0.4221570000000 1.0
C      1  0.4955210000000  0.5239310000000  0.6032180000000 1.0
END
