TITL C-2622962-9663-588 0.000940920793126511 125000 -381.165555253496 0 0 67 (C1) n - 1
REM
REM in /nfs/bkarasulu/CARBON/AIRSS/Generating-Clusters/AIREBO/with-SteepDescent/Higher-Symm/SD-CG/HFTN-CG
REM
REM
REM
REM
REM
REM ./C.cell (b20cbc046b6831c77cfcea5457e17084)
REM
REM compiler GCC version 9.2.1 20190827 (Red Hat 9.2.1-1)
REM options -cpp -mtune=generic -march=x86-64 -g -O0 -fpre-include=/usr/include/finclude/math-vector-fortran.h
REM seed 1488151900 152172887 2130610415 -1721370494 718161166 798631319 564912361 244305402 2030889939 110644302 1598522637 476858965 2084119264 485649730 -1671509617 771787059 -1363471046 1152492161 827447868 1171645129 -733452518 -1711378579 -1343167988 -1975312287 -113711383 -165572181 -1233211114 1360551704 -940880940 1203837815 -1730044192 547302376 -665463253
REM
CELL 1.54180   50.00000   50.00000   50.00000   90.00000   90.00000   90.00000
LATT -1
SFAC C  
C      1  0.4964330000000  0.4755300000000  0.5647940000000 1.0
C      1  0.5699180000000  0.4784570000000  0.4731890000000 1.0
C      1  0.4734240000000  0.5711190000000  0.4767790000000 1.0
C      1  0.5064640000000  0.5410570000000  0.5631670000000 1.0
C      1  0.5029370000000  0.4697240000000  0.4327650000000 1.0
C      1  0.4935080000000  0.5401750000000  0.4219940000000 1.0
C      1  0.4328780000000  0.5011680000000  0.4782740000000 1.0
C      1  0.4273220000000  0.4669720000000  0.5377660000000 1.0
C      1  0.5637610000000  0.5003110000000  0.5366320000000 1.0
C      1  0.5351960000000  0.4335220000000  0.4846220000000 1.0
C      1  0.5357160000000  0.5742560000000  0.4990580000000 1.0
C      1  0.4659650000000  0.4129110000000  0.4981520000000 1.0
C      1  0.4780130000000  0.4793370000000  0.4231950000000 1.0
C      1  0.5738760000000  0.4740630000000  0.5378490000000 1.0
C      1  0.4703350000000  0.5589030000000  0.5021970000000 1.0
C      1  0.5135170000000  0.5333250000000  0.4403520000000 1.0
C      1  0.5210110000000  0.4824490000000  0.5768780000000 1.0
C      1  0.4841230000000  0.5393100000000  0.5802010000000 1.0
C      1  0.4337900000000  0.4943190000000  0.5394330000000 1.0
C      1  0.4228250000000  0.4759130000000  0.4742760000000 1.0
C      1  0.5709490000000  0.5123160000000  0.4787970000000 1.0
C      1  0.5249560000000  0.4264250000000  0.5102250000000 1.0
C      1  0.5362590000000  0.5873850000000  0.4739840000000 1.0
C      1  0.4620340000000  0.4317280000000  0.4774490000000 1.0
C      1  0.4926390000000  0.5610540000000  0.5189000000000 1.0
C      1  0.5348240000000  0.5033280000000  0.5636990000000 1.0
C      1  0.5656640000000  0.5307890000000  0.4995460000000 1.0
C      1  0.5021300000000  0.4353440000000  0.5243870000000 1.0
C      1  0.5170450000000  0.5803060000000  0.4553560000000 1.0
C      1  0.4839320000000  0.4397370000000  0.4633750000000 1.0
C      1  0.4713070000000  0.5149910000000  0.5832340000000 1.0
C      1  0.4651120000000  0.5023640000000  0.4341610000000 1.0
C      1  0.5334250000000  0.5149700000000  0.4368340000000 1.0
C      1  0.4419030000000  0.4535870000000  0.4846840000000 1.0
C      1  0.4183460000000  0.5122920000000  0.5241740000000 1.0
C      1  0.5631010000000  0.4566860000000  0.5204400000000 1.0
C      1  0.4961800000000  0.5628830000000  0.4623750000000 1.0
C      1  0.5288270000000  0.4818800000000  0.4391930000000 1.0
C      1  0.5755730000000  0.5230580000000  0.5250620000000 1.0
C      1  0.5161170000000  0.4394070000000  0.4658140000000 1.0
C      1  0.5136400000000  0.5800710000000  0.5164230000000 1.0
C      1  0.4799550000000  0.4182730000000  0.5214240000000 1.0
C      1  0.4693610000000  0.5268390000000  0.4210240000000 1.0
C      1  0.4750620000000  0.4936180000000  0.5656090000000 1.0
C      1  0.5308140000000  0.5299400000000  0.5720020000000 1.0
C      1  0.4388600000000  0.4547930000000  0.5170920000000 1.0
C      1  0.4297690000000  0.5197800000000  0.4992880000000 1.0
C      1  0.5582170000000  0.4549060000000  0.4882940000000 1.0
C      1  0.5000700000000  0.4667790000000  0.5346740000000 1.0
C      1  0.4643270000000  0.4976560000000  0.5352290000000 1.0
C      1  0.4608570000000  0.5034570000000  0.4666240000000 1.0
C      1  0.5040840000000  0.5335540000000  0.4706800000000 1.0
C      1  0.5431290000000  0.4979550000000  0.4655330000000 1.0
C      1  0.5320790000000  0.5001960000000  0.5313180000000 1.0
C      1  0.5415980000000  0.5464230000000  0.4992660000000 1.0
C      1  0.5012090000000  0.5346190000000  0.5338720000000 1.0
C      1  0.4655360000000  0.4701380000000  0.5025760000000 1.0
C      1  0.4548470000000  0.5361650000000  0.5033420000000 1.0
C      1  0.5326830000000  0.4655930000000  0.5081340000000 1.0
C      1  0.5020610000000  0.4703710000000  0.4665690000000 1.0
C      1  0.4930840000000  0.5029260000000  0.4626050000000 1.0
C      1  0.4981700000000  0.5007510000000  0.5339220000000 1.0
C      1  0.4665200000000  0.5042500000000  0.5019240000000 1.0
C      1  0.4994370000000  0.4682580000000  0.5007030000000 1.0
C      1  0.5321480000000  0.4953370000000  0.4976240000000 1.0
C      1  0.5138760000000  0.5315080000000  0.5024580000000 1.0
C      1  0.4995590000000  0.5016610000000  0.4943080000000 1.0
END
