TITL C-2622955-8511-598 0.000461730709971701 125000 -684.113227811116 0 0 122 (C1) n - 1
REM
REM in /nfs/bkarasulu/CARBON/AIRSS/Generating-Clusters/AIREBO/with-SteepDescent/Higher-Symm/SD-CG/HFTN-CG
REM
REM
REM
REM
REM
REM ./C.cell (b20cbc046b6831c77cfcea5457e17084)
REM
REM compiler GCC version 9.2.1 20190827 (Red Hat 9.2.1-1)
REM options -cpp -mtune=generic -march=x86-64 -g -O0 -fpre-include=/usr/include/finclude/math-vector-fortran.h
REM seed -1521919310 -1830571822 553043318 -67824492 -1911378522 912502759 555694359 -1252783729 -2133733029 -1322293608 1800668337 -1224098185 -513447750 -238110397 237413178 1885478779 805976895 1152143679 -346529493 -331391656 1796062545 1832210206 1516831827 -523341869 877697616 -1643846214 -8149598 1819361036 401495946 1087972194 -582883094 -1471975010 -1119249824
REM
CELL 1.54180   50.00000   50.00000   50.00000   90.00000   90.00000   90.00000
LATT -1
SFAC C  
C      1  0.5454640000000  0.5070410000000  0.4125300000000 1.0
C      1  0.5938850000000  0.5054200000000  0.4732450000000 1.0
C      1  0.5767870000000  0.5048030000000  0.5559290000000 1.0
C      1  0.5010640000000  0.5064840000000  0.5938340000000 1.0
C      1  0.4251610000000  0.5042960000000  0.5638240000000 1.0
C      1  0.4062640000000  0.5079220000000  0.4757810000000 1.0
C      1  0.4649330000000  0.5173460000000  0.4160430000000 1.0
C      1  0.5388660000000  0.5085830000000  0.5428390000000 1.0
C      1  0.4963170000000  0.5013930000000  0.5546590000000 1.0
C      1  0.4527150000000  0.5041920000000  0.5351100000000 1.0
C      1  0.4369810000000  0.5152870000000  0.5002180000000 1.0
C      1  0.4791350000000  0.4981230000000  0.4558580000000 1.0
C      1  0.5260520000000  0.5105060000000  0.4471360000000 1.0
C      1  0.5604650000000  0.5076230000000  0.4947940000000 1.0
C      1  0.4852600000000  0.5804250000000  0.4649190000000 1.0
C      1  0.5147680000000  0.5787650000000  0.4668250000000 1.0
C      1  0.5320650000000  0.5785820000000  0.4904460000000 1.0
C      1  0.5260390000000  0.5788260000000  0.5191560000000 1.0
C      1  0.4997870000000  0.5790390000000  0.5321490000000 1.0
C      1  0.4740320000000  0.5773680000000  0.5184230000000 1.0
C      1  0.4655480000000  0.5800750000000  0.4891960000000 1.0
C      1  0.5284370000000  0.5336440000000  0.5217380000000 1.0
C      1  0.5040300000000  0.5299410000000  0.5432670000000 1.0
C      1  0.4752470000000  0.5290030000000  0.5293380000000 1.0
C      1  0.4659670000000  0.5274540000000  0.4966120000000 1.0
C      1  0.4773500000000  0.5267970000000  0.4658710000000 1.0
C      1  0.5108990000000  0.5238960000000  0.4705790000000 1.0
C      1  0.5350670000000  0.5299790000000  0.4914130000000 1.0
C      1  0.4910320000000  0.4544290000000  0.5736280000000 1.0
C      1  0.4419620000000  0.4541350000000  0.5436680000000 1.0
C      1  0.4320800000000  0.4582310000000  0.4821420000000 1.0
C      1  0.4594880000000  0.4654700000000  0.4255610000000 1.0
C      1  0.5324520000000  0.4557580000000  0.4351860000000 1.0
C      1  0.5716750000000  0.4588340000000  0.4890190000000 1.0
C      1  0.5497490000000  0.4595890000000  0.5526390000000 1.0
C      1  0.5393260000000  0.4602980000000  0.4938730000000 1.0
C      1  0.5269240000000  0.4543570000000  0.5314170000000 1.0
C      1  0.4943100000000  0.4501170000000  0.5400620000000 1.0
C      1  0.4661020000000  0.4540190000000  0.5231900000000 1.0
C      1  0.4643880000000  0.4597600000000  0.4926910000000 1.0
C      1  0.4897080000000  0.4485370000000  0.4800280000000 1.0
C      1  0.5207150000000  0.4519120000000  0.4664620000000 1.0
C      1  0.5827590000000  0.4861910000000  0.4989900000000 1.0
C      1  0.5482800000000  0.4883550000000  0.5637430000000 1.0
C      1  0.4822860000000  0.4836260000000  0.5770600000000 1.0
C      1  0.4306080000000  0.4814380000000  0.5402920000000 1.0
C      1  0.4197930000000  0.4839350000000  0.4695750000000 1.0
C      1  0.4763430000000  0.4912400000000  0.4256770000000 1.0
C      1  0.5458830000000  0.4850440000000  0.4360710000000 1.0
C      1  0.4396550000000  0.5635410000000  0.4854290000000 1.0
C      1  0.4754480000000  0.5677620000000  0.4402780000000 1.0
C      1  0.5269700000000  0.5654110000000  0.4448340000000 1.0
C      1  0.5571190000000  0.5664690000000  0.4853200000000 1.0
C      1  0.5463730000000  0.5666610000000  0.5351990000000 1.0
C      1  0.4997350000000  0.5668910000000  0.5579320000000 1.0
C      1  0.4542230000000  0.5646670000000  0.5342250000000 1.0
C      1  0.5075240000000  0.4570760000000  0.4182420000000 1.0
C      1  0.5764170000000  0.4532540000000  0.4590560000000 1.0
C      1  0.5742180000000  0.4550880000000  0.5362690000000 1.0
C      1  0.5196090000000  0.4526070000000  0.5851200000000 1.0
C      1  0.4512300000000  0.4505860000000  0.5734460000000 1.0
C      1  0.4203900000000  0.4523860000000  0.5103220000000 1.0
C      1  0.4448900000000  0.4392660000000  0.4394150000000 1.0
C      1  0.4600100000000  0.5426520000000  0.4470370000000 1.0
C      1  0.5226940000000  0.5356350000000  0.4285550000000 1.0
C      1  0.5651040000000  0.5347620000000  0.4748310000000 1.0
C      1  0.5596590000000  0.5343830000000  0.5351880000000 1.0
C      1  0.5124750000000  0.5383500000000  0.5723680000000 1.0
C      1  0.4499670000000  0.5343070000000  0.5514580000000 1.0
C      1  0.4322280000000  0.5463610000000  0.5064180000000 1.0
C      1  0.4616270000000  0.4147590000000  0.5123710000000 1.0
C      1  0.4644780000000  0.4176690000000  0.4817650000000 1.0
C      1  0.4819530000000  0.4298870000000  0.4552370000000 1.0
C      1  0.5375680000000  0.4241870000000  0.4770660000000 1.0
C      1  0.5433940000000  0.4230230000000  0.5077330000000 1.0
C      1  0.5211170000000  0.4209150000000  0.5334320000000 1.0
C      1  0.4871010000000  0.4171640000000  0.5349040000000 1.0
C      1  0.4509530000000  0.4845370000000  0.5755880000000 1.0
C      1  0.4221070000000  0.4864270000000  0.5103610000000 1.0
C      1  0.4365910000000  0.4904020000000  0.4221460000000 1.0
C      1  0.5017970000000  0.4848740000000  0.4109230000000 1.0
C      1  0.5742270000000  0.4850860000000  0.4538090000000 1.0
C      1  0.5871710000000  0.4832570000000  0.5317540000000 1.0
C      1  0.5250660000000  0.4838890000000  0.5846670000000 1.0
C      1  0.5883540000000  0.5540540000000  0.4904500000000 1.0
C      1  0.5609930000000  0.5538060000000  0.5630750000000 1.0
C      1  0.4883170000000  0.5566530000000  0.5866710000000 1.0
C      1  0.4236270000000  0.5500440000000  0.5367880000000 1.0
C      1  0.4334560000000  0.5510130000000  0.4608030000000 1.0
C      1  0.4839200000000  0.5615580000000  0.4130980000000 1.0
C      1  0.5496650000000  0.5554640000000  0.4242880000000 1.0
C      1  0.4552080000000  0.4902790000000  0.4864990000000 1.0
C      1  0.4984060000000  0.5054720000000  0.5020730000000 1.0
C      1  0.5224770000000  0.4858180000000  0.4682790000000 1.0
C      1  0.5349730000000  0.4904480000000  0.4965320000000 1.0
C      1  0.5213990000000  0.4945010000000  0.5222530000000 1.0
C      1  0.4947210000000  0.4807320000000  0.5320740000000 1.0
C      1  0.4718450000000  0.4923120000000  0.5140960000000 1.0
C      1  0.3986620000000  0.5105230000000  0.5066830000000 1.0
C      1  0.4362400000000  0.5227390000000  0.4328970000000 1.0
C      1  0.5144860000000  0.5150010000000  0.4030190000000 1.0
C      1  0.5752910000000  0.5185720000000  0.4479950000000 1.0
C      1  0.5853540000000  0.5164940000000  0.5248130000000 1.0
C      1  0.5326440000000  0.5169680000000  0.5868350000000 1.0
C      1  0.4510420000000  0.5180990000000  0.5810290000000 1.0
C      1  0.5959150000000  0.5256980000000  0.4985570000000 1.0
C      1  0.5592230000000  0.5253750000000  0.5740720000000 1.0
C      1  0.4784150000000  0.5282830000000  0.5908590000000 1.0
C      1  0.4136280000000  0.5185710000000  0.5351870000000 1.0
C      1  0.4126290000000  0.5289330000000  0.4565940000000 1.0
C      1  0.4863910000000  0.5337270000000  0.4070940000000 1.0
C      1  0.5619540000000  0.5281880000000  0.4231630000000 1.0
C      1  0.4365260000000  0.4279180000000  0.5227020000000 1.0
C      1  0.4438560000000  0.4346550000000  0.4661440000000 1.0
C      1  0.4833370000000  0.4423720000000  0.4294800000000 1.0
C      1  0.5540320000000  0.4363960000000  0.4511920000000 1.0
C      1  0.5671890000000  0.4392880000000  0.5131590000000 1.0
C      1  0.5330970000000  0.4322730000000  0.5636130000000 1.0
C      1  0.4735870000000  0.4266610000000  0.5646360000000 1.0
C      1  0.4971860000000  0.5391750000000  0.4977010000000 1.0
C      1  0.4473940000000  0.4907050000000  0.4539180000000 1.0
C      1  0.5106180000000  0.4451660000000  0.5040910000000 1.0
END
