TITL C-2622957-9142-680 0.000306533286108555 125000 -1015.61424017888 0 0 188 (C1) n - 1
REM
REM in /nfs/bkarasulu/CARBON/AIRSS/Generating-Clusters/AIREBO/with-SteepDescent/Higher-Symm/SD-CG/HFTN-CG
REM
REM
REM
REM
REM
REM ./C.cell (b20cbc046b6831c77cfcea5457e17084)
REM
REM compiler GCC version 9.2.1 20190827 (Red Hat 9.2.1-1)
REM options -cpp -mtune=generic -march=x86-64 -g -O0 -fpre-include=/usr/include/finclude/math-vector-fortran.h
REM seed 1914099172 98568625 1350220349 -1552516403 1841055344 -1861311486 833805481 -438069271 -43053609 1035845970 -1521011066 -214841693 -1865770858 1254717306 1938051889 1091270041 -1083619200 1382835211 171931495 -1648150989 -1549944465 1899188581 -1024654006 -1024527532 346507019 990977579 2002815746 1242374049 -1066896354 -1373550795 -267720223 -1651541575 1352259174
REM
CELL 1.54180   50.00000   50.00000   50.00000   90.00000   90.00000   90.00000
LATT -1
SFAC C  
C      1  0.5713810000000  0.4600190000000  0.4276430000000 1.0
C      1  0.5043270000000  0.6005540000000  0.4445360000000 1.0
C      1  0.4130560000000  0.4628720000000  0.4314370000000 1.0
C      1  0.4307560000000  0.4431350000000  0.5590970000000 1.0
C      1  0.4946780000000  0.6076150000000  0.5633200000000 1.0
C      1  0.5678690000000  0.4621170000000  0.5729290000000 1.0
C      1  0.4217220000000  0.5376390000000  0.5612370000000 1.0
C      1  0.4779980000000  0.3928530000000  0.5579610000000 1.0
C      1  0.5842390000000  0.5316330000000  0.5651470000000 1.0
C      1  0.5670670000000  0.5470300000000  0.4331010000000 1.0
C      1  0.5187400000000  0.3978020000000  0.4395090000000 1.0
C      1  0.4198150000000  0.5556060000000  0.4469230000000 1.0
C      1  0.5515790000000  0.4425900000000  0.5234660000000 1.0
C      1  0.5229350000000  0.5637240000000  0.5095450000000 1.0
C      1  0.4303400000000  0.4829860000000  0.5134940000000 1.0
C      1  0.4575880000000  0.4421280000000  0.4845440000000 1.0
C      1  0.4818830000000  0.5688280000000  0.4732230000000 1.0
C      1  0.5735120000000  0.4835000000000  0.4779100000000 1.0
C      1  0.4536840000000  0.5538820000000  0.4740520000000 1.0
C      1  0.4804260000000  0.4222930000000  0.4738380000000 1.0
C      1  0.5726540000000  0.5118700000000  0.4918230000000 1.0
C      1  0.5498120000000  0.5486450000000  0.5154230000000 1.0
C      1  0.5254330000000  0.4254160000000  0.5211500000000 1.0
C      1  0.4335780000000  0.5141490000000  0.5160830000000 1.0
C      1  0.4603870000000  0.4772290000000  0.4420150000000 1.0
C      1  0.5252100000000  0.4886010000000  0.4442930000000 1.0
C      1  0.4989950000000  0.5313290000000  0.4414810000000 1.0
C      1  0.5222460000000  0.4770480000000  0.5553840000000 1.0
C      1  0.4577280000000  0.4820770000000  0.5748260000000 1.0
C      1  0.4964690000000  0.5384650000000  0.5660900000000 1.0
C      1  0.5344660000000  0.5169570000000  0.5527170000000 1.0
C      1  0.4610620000000  0.5135550000000  0.5700270000000 1.0
C      1  0.4896780000000  0.4752680000000  0.5650110000000 1.0
C      1  0.4739690000000  0.5083550000000  0.4397760000000 1.0
C      1  0.5272370000000  0.5161070000000  0.4302030000000 1.0
C      1  0.5059410000000  0.4605710000000  0.4467570000000 1.0
C      1  0.5940660000000  0.5375380000000  0.5134230000000 1.0
C      1  0.4213230000000  0.5607320000000  0.5112080000000 1.0
C      1  0.4896310000000  0.4004750000000  0.5112780000000 1.0
C      1  0.4079810000000  0.5500250000000  0.4847050000000 1.0
C      1  0.5791610000000  0.5558680000000  0.4892400000000 1.0
C      1  0.5139990000000  0.3953730000000  0.4896550000000 1.0
C      1  0.4108550000000  0.4619850000000  0.4860860000000 1.0
C      1  0.5799280000000  0.4403390000000  0.4837870000000 1.0
C      1  0.5070740000000  0.5955570000000  0.4892670000000 1.0
C      1  0.5911590000000  0.4614200000000  0.5060080000000 1.0
C      1  0.4247940000000  0.4435390000000  0.5105430000000 1.0
C      1  0.4868100000000  0.5919680000000  0.5135700000000 1.0
C      1  0.6042720000000  0.5215450000000  0.4443420000000 1.0
C      1  0.4403490000000  0.5827450000000  0.4458470000000 1.0
C      1  0.4496420000000  0.3975920000000  0.4430410000000 1.0
C      1  0.4064490000000  0.5147680000000  0.5453850000000 1.0
C      1  0.5497530000000  0.5694270000000  0.5598000000000 1.0
C      1  0.5356860000000  0.4195610000000  0.5667350000000 1.0
C      1  0.4090640000000  0.4890280000000  0.5482590000000 1.0
C      1  0.5612020000000  0.4312460000000  0.5605960000000 1.0
C      1  0.5214890000000  0.5882620000000  0.5582210000000 1.0
C      1  0.5953290000000  0.4968000000000  0.4337960000000 1.0
C      1  0.4392620000000  0.4230060000000  0.4451660000000 1.0
C      1  0.4736560000000  0.5869620000000  0.4386650000000 1.0
C      1  0.6056310000000  0.4841800000000  0.4871980000000 1.0
C      1  0.4620720000000  0.6001110000000  0.4973790000000 1.0
C      1  0.4358760000000  0.4120470000000  0.5040540000000 1.0
C      1  0.3914800000000  0.4889000000000  0.4951360000000 1.0
C      1  0.5405660000000  0.5976160000000  0.4947950000000 1.0
C      1  0.5672430000000  0.4137290000000  0.5007360000000 1.0
C      1  0.3900010000000  0.5211380000000  0.4842640000000 1.0
C      1  0.5471640000000  0.4012930000000  0.4850360000000 1.0
C      1  0.5672220000000  0.5828280000000  0.5047540000000 1.0
C      1  0.6132310000000  0.5108190000000  0.5037050000000 1.0
C      1  0.4622140000000  0.3950690000000  0.4961000000000 1.0
C      1  0.4345680000000  0.5920140000000  0.5097750000000 1.0
C      1  0.5412560000000  0.5158580000000  0.4793960000000 1.0
C      1  0.4560490000000  0.5209600000000  0.4658020000000 1.0
C      1  0.4960550000000  0.4523140000000  0.4776580000000 1.0
C      1  0.4602050000000  0.5191170000000  0.5366360000000 1.0
C      1  0.5283200000000  0.5276020000000  0.5255430000000 1.0
C      1  0.5081490000000  0.4543410000000  0.5172050000000 1.0
C      1  0.4616530000000  0.4867940000000  0.5238980000000 1.0
C      1  0.5353700000000  0.4724180000000  0.5263340000000 1.0
C      1  0.5010790000000  0.5444330000000  0.5224890000000 1.0
C      1  0.5439660000000  0.4832350000000  0.4697640000000 1.0
C      1  0.4681370000000  0.4706310000000  0.4742420000000 1.0
C      1  0.5014420000000  0.5431470000000  0.4695970000000 1.0
C      1  0.5259240000000  0.4764190000000  0.4022910000000 1.0
C      1  0.4960880000000  0.5216010000000  0.3970610000000 1.0
C      1  0.4702540000000  0.4710130000000  0.4100590000000 1.0
C      1  0.4765550000000  0.4911460000000  0.5992250000000 1.0
C      1  0.5089900000000  0.5277160000000  0.5958210000000 1.0
C      1  0.5278030000000  0.4831060000000  0.6049610000000 1.0
C      1  0.4776680000000  0.5229730000000  0.5977350000000 1.0
C      1  0.5015120000000  0.4706260000000  0.5965510000000 1.0
C      1  0.5310360000000  0.5134430000000  0.6014370000000 1.0
C      1  0.5169750000000  0.5031730000000  0.4037820000000 1.0
C      1  0.5010640000000  0.4559710000000  0.4074880000000 1.0
C      1  0.4704910000000  0.5128840000000  0.4062450000000 1.0
C      1  0.4032470000000  0.5265210000000  0.4531010000000 1.0
C      1  0.5501740000000  0.4030010000000  0.4527340000000 1.0
C      1  0.5573570000000  0.6004670000000  0.4394950000000 1.0
C      1  0.6243100000000  0.5012390000000  0.5314180000000 1.0
C      1  0.4612250000000  0.4148660000000  0.5543820000000 1.0
C      1  0.4447430000000  0.5834570000000  0.5394580000000 1.0
C      1  0.6116060000000  0.4871010000000  0.5479620000000 1.0
C      1  0.4700020000000  0.5954090000000  0.5520040000000 1.0
C      1  0.4367540000000  0.4171740000000  0.5379380000000 1.0
C      1  0.3998890000000  0.4970440000000  0.4370400000000 1.0
C      1  0.5346690000000  0.6042470000000  0.4619060000000 1.0
C      1  0.5627490000000  0.4292670000000  0.4389620000000 1.0
C      1  0.5649480000000  0.5094140000000  0.5537360000000 1.0
C      1  0.4455680000000  0.5495020000000  0.5410330000000 1.0
C      1  0.4775260000000  0.4447010000000  0.5539290000000 1.0
C      1  0.4332330000000  0.5186810000000  0.4406850000000 1.0
C      1  0.5505840000000  0.5703720000000  0.4249740000000 1.0
C      1  0.5262920000000  0.4271350000000  0.4549770000000 1.0
C      1  0.4301710000000  0.4866940000000  0.4486310000000 1.0
C      1  0.5463020000000  0.4526000000000  0.4574360000000 1.0
C      1  0.5263180000000  0.5764570000000  0.4447350000000 1.0
C      1  0.5809540000000  0.4810990000000  0.5522950000000 1.0
C      1  0.4516770000000  0.4614080000000  0.5394810000000 1.0
C      1  0.4733080000000  0.5621530000000  0.5582900000000 1.0
C      1  0.5664980000000  0.5664590000000  0.5347140000000 1.0
C      1  0.4017670000000  0.5261500000000  0.5157760000000 1.0
C      1  0.5217820000000  0.4083810000000  0.5447890000000 1.0
C      1  0.4327580000000  0.5806680000000  0.4785490000000 1.0
C      1  0.5981920000000  0.5233170000000  0.4764650000000 1.0
C      1  0.4710750000000  0.3930180000000  0.4645800000000 1.0
C      1  0.4301610000000  0.4286530000000  0.4742810000000 1.0
C      1  0.5956150000000  0.4760990000000  0.4554100000000 1.0
C      1  0.4731020000000  0.6012660000000  0.4690420000000 1.0
C      1  0.5755390000000  0.4228390000000  0.5325220000000 1.0
C      1  0.4014720000000  0.4730160000000  0.5235000000000 1.0
C      1  0.5252600000000  0.5910270000000  0.5245060000000 1.0
C      1  0.5458910000000  0.5384090000000  0.5736310000000 1.0
C      1  0.4283650000000  0.5088690000000  0.5781260000000 1.0
C      1  0.5190150000000  0.4364750000000  0.5852180000000 1.0
C      1  0.4531350000000  0.5530640000000  0.4400600000000 1.0
C      1  0.5564430000000  0.5220440000000  0.4251710000000 1.0
C      1  0.4833490000000  0.4413640000000  0.4325840000000 1.0
C      1  0.4532930000000  0.4447440000000  0.4348470000000 1.0
C      1  0.5714840000000  0.4989160000000  0.4183990000000 1.0
C      1  0.4818200000000  0.5559380000000  0.4274000000000 1.0
C      1  0.5358160000000  0.4587670000000  0.5744600000000 1.0
C      1  0.4286190000000  0.4757130000000  0.5686250000000 1.0
C      1  0.5204380000000  0.5590840000000  0.5741330000000 1.0
C      1  0.5578130000000  0.4851440000000  0.5946610000000 1.0
C      1  0.4609700000000  0.5664620000000  0.5888420000000 1.0
C      1  0.4528010000000  0.4389300000000  0.5847500000000 1.0
C      1  0.4365110000000  0.4753550000000  0.4101940000000 1.0
C      1  0.5018300000000  0.5487920000000  0.4046180000000 1.0
C      1  0.5558850000000  0.4738440000000  0.4063220000000 1.0
C      1  0.4433920000000  0.5040240000000  0.4144620000000 1.0
C      1  0.5109700000000  0.4277540000000  0.4246100000000 1.0
C      1  0.5249350000000  0.5634590000000  0.4046020000000 1.0
C      1  0.5634280000000  0.5187230000000  0.5925470000000 1.0
C      1  0.4866760000000  0.4417110000000  0.5865400000000 1.0
C      1  0.4634780000000  0.5485380000000  0.6064010000000 1.0
C      1  0.4788690000000  0.5645150000000  0.5248190000000 1.0
C      1  0.4585110000000  0.4427300000000  0.5150270000000 1.0
C      1  0.5685130000000  0.4785690000000  0.5218100000000 1.0
C      1  0.5217030000000  0.5679530000000  0.4758300000000 1.0
C      1  0.5475260000000  0.4468080000000  0.4905910000000 1.0
C      1  0.4281680000000  0.4907110000000  0.4804530000000 1.0
C      1  0.5185690000000  0.4290310000000  0.4880370000000 1.0
C      1  0.5479670000000  0.5473660000000  0.4829840000000 1.0
C      1  0.4294090000000  0.5242490000000  0.4863840000000 1.0
C      1  0.4862360000000  0.4308510000000  0.5240230000000 1.0
C      1  0.4533410000000  0.5514550000000  0.5079790000000 1.0
C      1  0.5788190000000  0.5089280000000  0.5237150000000 1.0
C      1  0.5916300000000  0.5502690000000  0.5441170000000 1.0
C      1  0.4041870000000  0.5531500000000  0.5363110000000 1.0
C      1  0.4995050000000  0.3924850000000  0.5400740000000 1.0
C      1  0.4014970000000  0.5764050000000  0.4658740000000 1.0
C      1  0.5883640000000  0.5489020000000  0.4572220000000 1.0
C      1  0.5013910000000  0.3857590000000  0.4627450000000 1.0
C      1  0.4085760000000  0.4467500000000  0.4573050000000 1.0
C      1  0.5887840000000  0.4449210000000  0.4531960000000 1.0
C      1  0.4995020000000  0.6217220000000  0.4699640000000 1.0
C      1  0.6011240000000  0.4404690000000  0.5249720000000 1.0
C      1  0.4048730000000  0.4443980000000  0.5370780000000 1.0
C      1  0.5014020000000  0.6119580000000  0.5335650000000 1.0
C      1  0.5150710000000  0.4788620000000  0.4871410000000 1.0
C      1  0.5098240000000  0.5225440000000  0.4905010000000 1.0
C      1  0.4881280000000  0.4787350000000  0.5079080000000 1.0
C      1  0.4838270000000  0.5188510000000  0.5121610000000 1.0
C      1  0.4720530000000  0.5003180000000  0.4871180000000 1.0
C      1  0.5240060000000  0.4996990000000  0.5113160000000 1.0
C      1  0.4959930000000  0.4905530000000  0.4540150000000 1.0
C      1  0.5056580000000  0.5058320000000  0.5626810000000 1.0
END
