TITL C-2622958-629-479 -0.000175649878813209 125000 -22.4166325674055 0 0 6 (D2d) n - 1
REM
REM in /nfs/bkarasulu/CARBON/AIRSS/Generating-Clusters/AIREBO/with-SteepDescent/Higher-Symm/SD-CG/HFTN-CG
REM
REM
REM
REM
REM
REM ./C.cell (b20cbc046b6831c77cfcea5457e17084)
REM
REM compiler GCC version 9.2.1 20190827 (Red Hat 9.2.1-1)
REM options -cpp -mtune=generic -march=x86-64 -g -O0 -fpre-include=/usr/include/finclude/math-vector-fortran.h
REM seed -1574030622 1944328906 -743785186 1356408390 -799967201 -1005424228 841789581 881768985 86748879 1350437784 849833840 1741488964 1571717973 -1531412224 519651001 -392445133 1895778661 987021064 -1182877089 -1130214855 318010271 -1939843475 -1069521806 366651341 1870072421 -885291672 -1008586520 410523674 -1885878180 -171113718 160710785 1611305980 1475827451
REM
CELL 1.54180   50.00000   50.00000   50.00000   90.00000   90.00000   90.00000
LATT -1
SFAC C  
C      1  0.4877750000000  0.5119790000000  0.5169660000000 1.0
C      1  0.5121520000000  0.5117370000000  0.4921430000000 1.0
C      1  0.5121590000000  0.4882710000000  0.5167520000000 1.0
C      1  0.4877830000000  0.4880130000000  0.4919290000000 1.0
C      1  0.5000650000000  0.4999780000000  0.5453360000000 1.0
C      1  0.5000650000000  0.5000220000000  0.4635590000000 1.0
END
