TITL C-2622956-4641-620 -951.491652115965 125000 -224.688094756447 0 0 44 (C1) n - 1
REM
REM in /nfs/bkarasulu/CARBON/AIRSS/Generating-Clusters/AIREBO/with-SteepDescent/Higher-Symm/SD-CG/HFTN-CG
REM
REM
REM
REM
REM
REM ./C.cell (b20cbc046b6831c77cfcea5457e17084)
REM
REM compiler GCC version 9.2.1 20190827 (Red Hat 9.2.1-1)
REM options -cpp -mtune=generic -march=x86-64 -g -O0 -fpre-include=/usr/include/finclude/math-vector-fortran.h
REM seed 1468833553 2110643973 -1029391829 -546758351 1941979581 1642349691 -764878312 -378202288 1302791587 640880240 1665567015 1989355472 -369558645 -348017672 169342464 907675721 542764911 249150932 -437415530 -2019971140 418421317 213742414 1309717444 -1154432447 1450579353 679619910 737027112 -1996233205 2124461522 -2021728463 -1323559278 1590490021 -997980109
REM
CELL 1.54180   50.00000   50.00000   50.00000   90.00000   90.00000   90.00000
LATT -1
SFAC C  
C      1  0.4656930000000  0.4868250000000  0.5346550000000 1.0
C      1  0.4925780000000  0.4656580000000  0.5327590000000 1.0
C      1  0.5368210000000  0.4798750000000  0.5348660000000 1.0
C      1  0.5330950000000  0.5302360000000  0.5323040000000 1.0
C      1  0.4993160000000  0.5260200000000  0.5352960000000 1.0
C      1  0.4760600000000  0.5208330000000  0.4887860000000 1.0
C      1  0.4725620000000  0.4811870000000  0.4867330000000 1.0
C      1  0.5092640000000  0.4654220000000  0.4860970000000 1.0
C      1  0.5357240000000  0.4961660000000  0.4858760000000 1.0
C      1  0.5147550000000  0.5300730000000  0.4863460000000 1.0
C      1  0.5305880000000  0.4768380000000  0.4437650000000 1.0
C      1  0.5344420000000  0.5238520000000  0.4435580000000 1.0
C      1  0.4866900000000  0.5377770000000  0.4455140000000 1.0
C      1  0.4526390000000  0.5034180000000  0.4497970000000 1.0
C      1  0.4862490000000  0.4675180000000  0.4429140000000 1.0
C      1  0.5437570000000  0.5005600000000  0.4564640000000 1.0
C      1  0.5139390000000  0.5398050000000  0.4585660000000 1.0
C      1  0.4666200000000  0.5257160000000  0.4604730000000 1.0
C      1  0.4641680000000  0.4787680000000  0.4580760000000 1.0
C      1  0.5116740000000  0.4572530000000  0.4569340000000 1.0
C      1  0.5114990000000  0.5496140000000  0.5145780000000 1.0
C      1  0.4703930000000  0.5181180000000  0.5222150000000 1.0
C      1  0.4654220000000  0.4606830000000  0.5129140000000 1.0
C      1  0.5209390000000  0.4573210000000  0.5169950000000 1.0
C      1  0.5467630000000  0.5028670000000  0.5173510000000 1.0
C      1  0.5469770000000  0.4677750000000  0.4985480000000 1.0
C      1  0.5441300000000  0.5321880000000  0.5003410000000 1.0
C      1  0.4836420000000  0.5497410000000  0.5019310000000 1.0
C      1  0.4497580000000  0.4964180000000  0.5061110000000 1.0
C      1  0.4876100000000  0.4452570000000  0.4987600000000 1.0
C      1  0.5086980000000  0.4955610000000  0.5785290000000 1.0
C      1  0.5153850000000  0.4927450000000  0.5526950000000 1.0
C      1  0.4948520000000  0.5025170000000  0.3463410000000 1.0
C      1  0.5051750000000  0.5174390000000  0.4269430000000 1.0
C      1  0.4952080000000  0.5051170000000  0.6291010000000 1.0
C      1  0.4885710000000  0.5117540000000  0.6540320000000 1.0
C      1  0.5018020000000  0.4986160000000  0.4873060000000 1.0
C      1  0.5042370000000  0.4960420000000  0.4534490000000 1.0
C      1  0.5031800000000  0.5007490000000  0.6040630000000 1.0
C      1  0.4986940000000  0.5079980000000  0.3721240000000 1.0
C      1  0.5013680000000  0.5111370000000  0.3981940000000 1.0
C      1  0.4933510000000  0.4981960000000  0.3205320000000 1.0
C      1  0.4797680000000  0.5171970000000  0.6781130000000 1.0
C      1  0.5029490000000  0.4953200000000  0.5211400000000 1.0
END
