TITL C-2622962-9663-561 -0.000342193766808949 125000 -241.364452281748 0 0 50 (C1) n - 1
REM
REM in /nfs/bkarasulu/CARBON/AIRSS/Generating-Clusters/AIREBO/with-SteepDescent/Higher-Symm/SD-CG/HFTN-CG
REM
REM
REM
REM
REM
REM ./C.cell (b20cbc046b6831c77cfcea5457e17084)
REM
REM compiler GCC version 9.2.1 20190827 (Red Hat 9.2.1-1)
REM options -cpp -mtune=generic -march=x86-64 -g -O0 -fpre-include=/usr/include/finclude/math-vector-fortran.h
REM seed 92481734 -2059317810 -1804936633 1358282989 -811615865 -687662698 1472167686 11747000 2084317336 1419638394 -348847394 -21868727 -1669584588 -1196344543 2109429868 726894308 -175768632 1190747378 -553578099 836134554 -53112591 2125372598 -1149490116 -1256777591 -1914229585 -2029551180 -1665801484 1774445910 -1734870721 -1840301798 1002049898 2167830 2082197154
REM
CELL 1.54180   50.00000   50.00000   50.00000   90.00000   90.00000   90.00000
LATT -1
SFAC C  
C      1  0.4828270000000  0.4471120000000  0.5061790000000 1.0
C      1  0.4573020000000  0.5354140000000  0.4994840000000 1.0
C      1  0.5532990000000  0.5079720000000  0.5031770000000 1.0
C      1  0.5076010000000  0.5624390000000  0.5260390000000 1.0
C      1  0.5559570000000  0.4653920000000  0.5285630000000 1.0
C      1  0.4411720000000  0.4614580000000  0.5249340000000 1.0
C      1  0.4694370000000  0.4644410000000  0.4304410000000 1.0
C      1  0.4880410000000  0.5454110000000  0.4358330000000 1.0
C      1  0.5474290000000  0.4919110000000  0.4340930000000 1.0
C      1  0.5193640000000  0.5218350000000  0.4618160000000 1.0
C      1  0.5085970000000  0.4705640000000  0.4578560000000 1.0
C      1  0.4720880000000  0.5052870000000  0.4580590000000 1.0
C      1  0.4950630000000  0.4647430000000  0.4298830000000 1.0
C      1  0.4750950000000  0.5238390000000  0.4315280000000 1.0
C      1  0.5356170000000  0.5145390000000  0.4343650000000 1.0
C      1  0.5303800000000  0.5470710000000  0.5265360000000 1.0
C      1  0.5313580000000  0.4537710000000  0.5352670000000 1.0
C      1  0.4499330000000  0.4888600000000  0.5338560000000 1.0
C      1  0.5248980000000  0.5004340000000  0.5453320000000 1.0
C      1  0.4968600000000  0.4818250000000  0.5404580000000 1.0
C      1  0.4815850000000  0.5122180000000  0.5401590000000 1.0
C      1  0.4961060000000  0.4493370000000  0.4752000000000 1.0
C      1  0.4621060000000  0.5339520000000  0.4678580000000 1.0
C      1  0.5486470000000  0.5161150000000  0.4720510000000 1.0
C      1  0.5247620000000  0.5152310000000  0.5717580000000 1.0
C      1  0.5017000000000  0.4697930000000  0.5714560000000 1.0
C      1  0.4707020000000  0.5192170000000  0.5676750000000 1.0
C      1  0.4726970000000  0.4404900000000  0.5595310000000 1.0
C      1  0.4649720000000  0.5584170000000  0.5404390000000 1.0
C      1  0.5766820000000  0.5073560000000  0.5500070000000 1.0
C      1  0.4679390000000  0.5048170000000  0.5098150000000 1.0
C      1  0.5241550000000  0.5154710000000  0.5156140000000 1.0
C      1  0.5090680000000  0.4662100000000  0.5128020000000 1.0
C      1  0.5543520000000  0.4957360000000  0.5328780000000 1.0
C      1  0.4719990000000  0.4587680000000  0.5377720000000 1.0
C      1  0.4821320000000  0.5404330000000  0.5211930000000 1.0
C      1  0.4492090000000  0.4883400000000  0.4865690000000 1.0
C      1  0.5049140000000  0.5358350000000  0.4963470000000 1.0
C      1  0.5322200000000  0.4603900000000  0.4883590000000 1.0
C      1  0.4580780000000  0.4774190000000  0.4562360000000 1.0
C      1  0.4999460000000  0.5478190000000  0.4649160000000 1.0
C      1  0.5397180000000  0.4723750000000  0.4574300000000 1.0
C      1  0.4378120000000  0.4620130000000  0.4976170000000 1.0
C      1  0.4894350000000  0.5773810000000  0.5078790000000 1.0
C      1  0.5606120000000  0.4599340000000  0.5011630000000 1.0
C      1  0.4630400000000  0.4520700000000  0.4788570000000 1.0
C      1  0.4758070000000  0.5602230000000  0.4854000000000 1.0
C      1  0.5616540000000  0.4855380000000  0.4799510000000 1.0
C      1  0.5002440000000  0.4985250000000  0.4696150000000 1.0
C      1  0.4999480000000  0.4966520000000  0.5008730000000 1.0
END
