TITL C-2622967-6265-456 0.00291296202884105 125000 -1039.57200121997 0 0 190 (C1) n - 1
REM
REM in /nfs/bkarasulu/CARBON/AIRSS/Generating-Clusters/AIREBO/with-SteepDescent/Higher-Symm/SD-CG/HFTN-CG
REM
REM
REM
REM
REM
REM ./C.cell (b20cbc046b6831c77cfcea5457e17084)
REM
REM compiler GCC version 9.2.1 20190827 (Red Hat 9.2.1-1)
REM options -cpp -mtune=generic -march=x86-64 -g -O0 -fpre-include=/usr/include/finclude/math-vector-fortran.h
REM seed -2014948294 -1749352102 1292589167 -377734575 -862622956 302444407 1649015786 1096989876 -462150539 -2129117631 -584413588 -1516065049 -971714574 -1042916354 1409955912 876316873 -495745025 -596180223 -683908676 -815843530 778076475 1653114973 -1574837145 1188680949 -533027724 -772119596 -924574573 -1409118101 653488047 1883457054 -2083209194 829470937 -1482047632
REM
CELL 1.54180   50.00000   50.00000   50.00000   90.00000   90.00000   90.00000
LATT -1
SFAC C  
C      1  0.5268350000000  0.5076290000000  0.5028490000000 1.0
C      1  0.5181460000000  0.5173960000000  0.4721500000000 1.0
C      1  0.4857950000000  0.5122900000000  0.4789660000000 1.0
C      1  0.4790670000000  0.5278090000000  0.5064370000000 1.0
C      1  0.5052960000000  0.5217870000000  0.5238450000000 1.0
C      1  0.5118250000000  0.5726770000000  0.5762750000000 1.0
C      1  0.5825170000000  0.5693300000000  0.5178200000000 1.0
C      1  0.5323690000000  0.5779200000000  0.4264070000000 1.0
C      1  0.4388890000000  0.5603670000000  0.4443590000000 1.0
C      1  0.4275770000000  0.5631550000000  0.5316120000000 1.0
C      1  0.4496870000000  0.5201180000000  0.5226750000000 1.0
C      1  0.4926150000000  0.5257790000000  0.5517770000000 1.0
C      1  0.5578590000000  0.5070850000000  0.5117250000000 1.0
C      1  0.5368690000000  0.5253050000000  0.4448650000000 1.0
C      1  0.4802110000000  0.5156510000000  0.4473130000000 1.0
C      1  0.5463420000000  0.4421500000000  0.4001650000000 1.0
C      1  0.4328260000000  0.4393250000000  0.4262930000000 1.0
C      1  0.4200740000000  0.4393670000000  0.5450130000000 1.0
C      1  0.5167710000000  0.4351030000000  0.6100640000000 1.0
C      1  0.6030590000000  0.4421450000000  0.5108360000000 1.0
C      1  0.5640760000000  0.4339130000000  0.4268320000000 1.0
C      1  0.4594070000000  0.4439930000000  0.4170250000000 1.0
C      1  0.4029250000000  0.4381700000000  0.5188340000000 1.0
C      1  0.4963490000000  0.4441130000000  0.5887360000000 1.0
C      1  0.5840730000000  0.4337910000000  0.5349660000000 1.0
C      1  0.5706510000000  0.4785560000000  0.5716200000000 1.0
C      1  0.5930620000000  0.4913830000000  0.4412460000000 1.0
C      1  0.4696260000000  0.4928800000000  0.3989430000000 1.0
C      1  0.4044220000000  0.4834240000000  0.4884310000000 1.0
C      1  0.4631420000000  0.4950100000000  0.5999450000000 1.0
C      1  0.4281210000000  0.4782530000000  0.5802780000000 1.0
C      1  0.5252840000000  0.4660340000000  0.6050510000000 1.0
C      1  0.6094030000000  0.4856740000000  0.4770480000000 1.0
C      1  0.5139550000000  0.4465260000000  0.3948230000000 1.0
C      1  0.4179570000000  0.4644310000000  0.4347300000000 1.0
C      1  0.6033590000000  0.5367650000000  0.4827000000000 1.0
C      1  0.5098500000000  0.5316600000000  0.3966960000000 1.0
C      1  0.4008600000000  0.5254660000000  0.4499150000000 1.0
C      1  0.4289730000000  0.5224730000000  0.5860320000000 1.0
C      1  0.5551970000000  0.5244090000000  0.5895290000000 1.0
C      1  0.5629700000000  0.4615170000000  0.4885060000000 1.0
C      1  0.5120560000000  0.4618340000000  0.4408400000000 1.0
C      1  0.4432620000000  0.4552540000000  0.4724740000000 1.0
C      1  0.4416510000000  0.4656390000000  0.5448560000000 1.0
C      1  0.5121950000000  0.4573180000000  0.5617030000000 1.0
C      1  0.5905110000000  0.5609270000000  0.4883700000000 1.0
C      1  0.5128030000000  0.5590780000000  0.4058700000000 1.0
C      1  0.4080060000000  0.5539290000000  0.4547390000000 1.0
C      1  0.4311560000000  0.5495070000000  0.5848930000000 1.0
C      1  0.5396670000000  0.5538580000000  0.5825760000000 1.0
C      1  0.5599450000000  0.4703290000000  0.4124650000000 1.0
C      1  0.4334140000000  0.4908180000000  0.4311860000000 1.0
C      1  0.3980370000000  0.4874250000000  0.5274980000000 1.0
C      1  0.5008570000000  0.4830780000000  0.5948010000000 1.0
C      1  0.5956370000000  0.4706610000000  0.5272880000000 1.0
C      1  0.4828570000000  0.4866510000000  0.4296440000000 1.0
C      1  0.4299170000000  0.4979070000000  0.5058170000000 1.0
C      1  0.4738770000000  0.5099710000000  0.5753420000000 1.0
C      1  0.5602360000000  0.4927840000000  0.5425210000000 1.0
C      1  0.5656800000000  0.5075740000000  0.4489030000000 1.0
C      1  0.5044410000000  0.5348870000000  0.4390400000000 1.0
C      1  0.4238620000000  0.5295760000000  0.4821780000000 1.0
C      1  0.4635700000000  0.5408860000000  0.5457640000000 1.0
C      1  0.5408840000000  0.5276690000000  0.5408670000000 1.0
C      1  0.5576450000000  0.5304750000000  0.4869380000000 1.0
C      1  0.5188860000000  0.4190940000000  0.4079980000000 1.0
C      1  0.4188990000000  0.4297750000000  0.4537240000000 1.0
C      1  0.4460370000000  0.4325080000000  0.5658840000000 1.0
C      1  0.5406720000000  0.4330670000000  0.5889240000000 1.0
C      1  0.5901670000000  0.4418030000000  0.4831410000000 1.0
C      1  0.5159990000000  0.4939610000000  0.4318070000000 1.0
C      1  0.4435650000000  0.4885320000000  0.4794770000000 1.0
C      1  0.4624540000000  0.4902080000000  0.5430210000000 1.0
C      1  0.5307580000000  0.4855650000000  0.5578750000000 1.0
C      1  0.5640410000000  0.4903250000000  0.4760530000000 1.0
C      1  0.5663210000000  0.5957110000000  0.5127800000000 1.0
C      1  0.5006440000000  0.5866380000000  0.4350040000000 1.0
C      1  0.4447340000000  0.5824410000000  0.4690180000000 1.0
C      1  0.4508350000000  0.5803770000000  0.5475910000000 1.0
C      1  0.5328840000000  0.5826170000000  0.5533390000000 1.0
C      1  0.4828960000000  0.5825550000000  0.5607300000000 1.0
C      1  0.5532840000000  0.5650920000000  0.5347290000000 1.0
C      1  0.5521410000000  0.5834790000000  0.4535740000000 1.0
C      1  0.4664720000000  0.5785040000000  0.4357260000000 1.0
C      1  0.4316690000000  0.5736250000000  0.4991000000000 1.0
C      1  0.4847800000000  0.4400890000000  0.5299400000000 1.0
C      1  0.5115160000000  0.4538900000000  0.5152880000000 1.0
C      1  0.5149780000000  0.4474080000000  0.4848610000000 1.0
C      1  0.4890990000000  0.4601240000000  0.4733600000000 1.0
C      1  0.4717110000000  0.4482440000000  0.4996240000000 1.0
C      1  0.4529930000000  0.5303520000000  0.4489290000000 1.0
C      1  0.4249250000000  0.5310950000000  0.5428200000000 1.0
C      1  0.5085310000000  0.5292680000000  0.5784310000000 1.0
C      1  0.5885330000000  0.5091910000000  0.5195050000000 1.0
C      1  0.5531940000000  0.5238540000000  0.4150420000000 1.0
C      1  0.4590580000000  0.4178800000000  0.5310700000000 1.0
C      1  0.5034260000000  0.4253170000000  0.5542400000000 1.0
C      1  0.5367160000000  0.4252470000000  0.4987620000000 1.0
C      1  0.5440730000000  0.4245830000000  0.4495710000000 1.0
C      1  0.4647200000000  0.4288660000000  0.4728110000000 1.0
C      1  0.5234830000000  0.5812250000000  0.4673210000000 1.0
C      1  0.4744590000000  0.5922450000000  0.4657070000000 1.0
C      1  0.4571700000000  0.5876510000000  0.5166810000000 1.0
C      1  0.4942260000000  0.6043480000000  0.5389910000000 1.0
C      1  0.5426060000000  0.5853450000000  0.4923130000000 1.0
C      1  0.5748880000000  0.5056580000000  0.5900920000000 1.0
C      1  0.6026030000000  0.5217340000000  0.4532620000000 1.0
C      1  0.4818490000000  0.5215420000000  0.3924900000000 1.0
C      1  0.3906780000000  0.5087090000000  0.4753740000000 1.0
C      1  0.4397070000000  0.5066790000000  0.6075700000000 1.0
C      1  0.4851780000000  0.6131430000000  0.4889530000000 1.0
C      1  0.4797450000000  0.6059410000000  0.5152190000000 1.0
C      1  0.5220300000000  0.6033730000000  0.5378390000000 1.0
C      1  0.5373120000000  0.6084670000000  0.5154410000000 1.0
C      1  0.5041180000000  0.6054010000000  0.4617360000000 1.0
C      1  0.4889470000000  0.4821060000000  0.5629360000000 1.0
C      1  0.5623850000000  0.4657440000000  0.5219870000000 1.0
C      1  0.5436660000000  0.4660570000000  0.4387840000000 1.0
C      1  0.4571210000000  0.4714640000000  0.4459650000000 1.0
C      1  0.4263200000000  0.4701020000000  0.5199940000000 1.0
C      1  0.5721280000000  0.5227530000000  0.5533430000000 1.0
C      1  0.5726460000000  0.5386120000000  0.4574370000000 1.0
C      1  0.4786230000000  0.5432230000000  0.4184920000000 1.0
C      1  0.3929100000000  0.5354780000000  0.4946930000000 1.0
C      1  0.4700630000000  0.5427270000000  0.5794150000000 1.0
C      1  0.5330060000000  0.4201090000000  0.5656540000000 1.0
C      1  0.5665370000000  0.4221860000000  0.4825140000000 1.0
C      1  0.5165690000000  0.4171230000000  0.4358270000000 1.0
C      1  0.4352810000000  0.4160720000000  0.4715260000000 1.0
C      1  0.4576110000000  0.4036850000000  0.5595100000000 1.0
C      1  0.6046460000000  0.5563850000000  0.5359680000000 1.0
C      1  0.5623790000000  0.5721920000000  0.4167920000000 1.0
C      1  0.4301070000000  0.5564490000000  0.4123160000000 1.0
C      1  0.3959910000000  0.5589720000000  0.5358310000000 1.0
C      1  0.5045280000000  0.5743500000000  0.6088790000000 1.0
C      1  0.5726330000000  0.5697440000000  0.4667080000000 1.0
C      1  0.4842560000000  0.5750090000000  0.4078130000000 1.0
C      1  0.4035010000000  0.5638070000000  0.4826100000000 1.0
C      1  0.4554500000000  0.5709780000000  0.5771540000000 1.0
C      1  0.5616670000000  0.5530550000000  0.5626220000000 1.0
C      1  0.4816650000000  0.4481960000000  0.4423950000000 1.0
C      1  0.4320600000000  0.4419390000000  0.5016940000000 1.0
C      1  0.4707130000000  0.4540970000000  0.5566190000000 1.0
C      1  0.5548240000000  0.4326920000000  0.5247130000000 1.0
C      1  0.5414350000000  0.4506550000000  0.4684930000000 1.0
C      1  0.5530010000000  0.4621790000000  0.5910410000000 1.0
C      1  0.5924580000000  0.4654190000000  0.4624660000000 1.0
C      1  0.5000890000000  0.4640690000000  0.4106840000000 1.0
C      1  0.4103370000000  0.4607900000000  0.4659970000000 1.0
C      1  0.4447120000000  0.4567180000000  0.5867140000000 1.0
C      1  0.5211940000000  0.3936990000000  0.5215230000000 1.0
C      1  0.5231140000000  0.3966340000000  0.4899820000000 1.0
C      1  0.4938070000000  0.3994860000000  0.4807240000000 1.0
C      1  0.4765290000000  0.3950420000000  0.5033800000000 1.0
C      1  0.4928470000000  0.3893940000000  0.5271250000000 1.0
C      1  0.4637480000000  0.5566990000000  0.5158060000000 1.0
C      1  0.5271600000000  0.5477160000000  0.5212800000000 1.0
C      1  0.5357010000000  0.5524690000000  0.4921960000000 1.0
C      1  0.5140200000000  0.5508430000000  0.4675250000000 1.0
C      1  0.4465110000000  0.5440120000000  0.4908140000000 1.0
C      1  0.4865140000000  0.3994240000000  0.5531900000000 1.0
C      1  0.5367640000000  0.4106810000000  0.5377350000000 1.0
C      1  0.5473080000000  0.3998360000000  0.4700010000000 1.0
C      1  0.4897510000000  0.4172840000000  0.4540470000000 1.0
C      1  0.4465060000000  0.4110210000000  0.5032240000000 1.0
C      1  0.5307250000000  0.4778310000000  0.5191660000000 1.0
C      1  0.5331700000000  0.4890450000000  0.4611380000000 1.0
C      1  0.4740410000000  0.4854390000000  0.4852630000000 1.0
C      1  0.4770640000000  0.4767160000000  0.5158420000000 1.0
C      1  0.5012510000000  0.4890100000000  0.5319700000000 1.0
C      1  0.5904490000000  0.5077320000000  0.4886470000000 1.0
C      1  0.5250230000000  0.5122310000000  0.4094430000000 1.0
C      1  0.4296990000000  0.5088970000000  0.4570310000000 1.0
C      1  0.4352240000000  0.5029570000000  0.5589040000000 1.0
C      1  0.5335880000000  0.5167870000000  0.5689450000000 1.0
C      1  0.6010930000000  0.5287040000000  0.5422550000000 1.0
C      1  0.5699740000000  0.5469870000000  0.4254480000000 1.0
C      1  0.4484580000000  0.5350660000000  0.4095110000000 1.0
C      1  0.3873860000000  0.5360340000000  0.5235720000000 1.0
C      1  0.4933360000000  0.5472150000000  0.6014090000000 1.0
C      1  0.4442700000000  0.5074100000000  0.4087760000000 1.0
C      1  0.3977440000000  0.5123650000000  0.5364290000000 1.0
C      1  0.5010430000000  0.5117390000000  0.6045120000000 1.0
C      1  0.6146050000000  0.4957380000000  0.5337170000000 1.0
C      1  0.5605830000000  0.4960780000000  0.4010240000000 1.0
C      1  0.4632890000000  0.4611530000000  0.3956230000000 1.0
C      1  0.3884270000000  0.4626890000000  0.5105700000000 1.0
C      1  0.4725660000000  0.4644010000000  0.5975460000000 1.0
C      1  0.5868920000000  0.4571990000000  0.5560120000000 1.0
C      1  0.5862460000000  0.4595940000000  0.4304630000000 1.0
END
