TITL C-2622963-3633-33 250.977648579511 125000 -873.236600768542 0 0 166 (C1) n - 1
REM
REM in /nfs/bkarasulu/CARBON/AIRSS/Generating-Clusters/AIREBO/with-SteepDescent/Higher-Symm/SD-CG/HFTN-CG
REM
REM
REM
REM
REM
REM ./C.cell (b20cbc046b6831c77cfcea5457e17084)
REM
REM compiler GCC version 9.2.1 20190827 (Red Hat 9.2.1-1)
REM options -cpp -mtune=generic -march=x86-64 -g -O0 -fpre-include=/usr/include/finclude/math-vector-fortran.h
REM seed 2020523981 1189274365 440998258 -1250380030 -707741952 1709351803 1794635561 443619233 -1694188977 -854344484 1051403164 1884386506 754527400 1065480313 865518214 -589403741 413686625 2012273434 1944113708 -1314842435 -2129160450 868323748 466099636 -1369296496 1060951167 -488932921 1780974652 2023491322 280088621 -837192546 1349710279 -1659067187 626869462
REM
CELL 1.54180   50.00000   50.00000   50.00000   90.00000   90.00000   90.00000
LATT -1
SFAC C  
C      1  0.5459010000000  0.4589380000000  0.3845790000000 1.0
C      1  0.4058170000000  0.5433330000000  0.4453330000000 1.0
C      1  0.4482540000000  0.4008380000000  0.5499370000000 1.0
C      1  0.4442830000000  0.4526080000000  0.6053260000000 1.0
C      1  0.5401300000000  0.5396240000000  0.5979810000000 1.0
C      1  0.4471320000000  0.5439720000000  0.3954680000000 1.0
C      1  0.6006890000000  0.5430600000000  0.5444870000000 1.0
C      1  0.4004060000000  0.4582370000000  0.5504310000000 1.0
C      1  0.6034640000000  0.4679510000000  0.4467680000000 1.0
C      1  0.5578490000000  0.4059850000000  0.4572360000000 1.0
C      1  0.4476720000000  0.5975230000000  0.4542920000000 1.0
C      1  0.5441870000000  0.5962170000000  0.5505240000000 1.0
C      1  0.4741260000000  0.4355760000000  0.4807180000000 1.0
C      1  0.4724550000000  0.4753900000000  0.4407180000000 1.0
C      1  0.4346970000000  0.4770400000000  0.4794290000000 1.0
C      1  0.5200190000000  0.4354120000000  0.5262200000000 1.0
C      1  0.4742550000000  0.5618090000000  0.5267940000000 1.0
C      1  0.5144690000000  0.5619690000000  0.4700130000000 1.0
C      1  0.5265530000000  0.4751610000000  0.5625000000000 1.0
C      1  0.4757860000000  0.5169510000000  0.5660150000000 1.0
C      1  0.5297120000000  0.5279940000000  0.4373710000000 1.0
C      1  0.5604650000000  0.4723860000000  0.5212340000000 1.0
C      1  0.4373390000000  0.5246390000000  0.5238270000000 1.0
C      1  0.5608950000000  0.5400350000000  0.4769390000000 1.0
C      1  0.4805940000000  0.5877480000000  0.5475530000000 1.0
C      1  0.5282010000000  0.4552960000000  0.5889800000000 1.0
C      1  0.5822620000000  0.5592760000000  0.4622730000000 1.0
C      1  0.5324860000000  0.5843200000000  0.4538340000000 1.0
C      1  0.4727870000000  0.4122110000000  0.4587520000000 1.0
C      1  0.5341650000000  0.4180530000000  0.5518060000000 1.0
C      1  0.4505210000000  0.4621980000000  0.4215310000000 1.0
C      1  0.5416760000000  0.5352600000000  0.4080500000000 1.0
C      1  0.4550890000000  0.5344380000000  0.5865640000000 1.0
C      1  0.4156460000000  0.5502670000000  0.5281310000000 1.0
C      1  0.5841420000000  0.4498850000000  0.5259200000000 1.0
C      1  0.4103200000000  0.4566670000000  0.4672920000000 1.0
C      1  0.5065390000000  0.5165510000000  0.4068550000000 1.0
C      1  0.4006860000000  0.5185260000000  0.5024270000000 1.0
C      1  0.5124170000000  0.3923650000000  0.5132680000000 1.0
C      1  0.4825640000000  0.5119250000000  0.6048730000000 1.0
C      1  0.5073870000000  0.4899580000000  0.6125600000000 1.0
C      1  0.4790420000000  0.5020870000000  0.3950720000000 1.0
C      1  0.6090020000000  0.5231790000000  0.4876280000000 1.0
C      1  0.3973990000000  0.4899450000000  0.4849240000000 1.0
C      1  0.6059330000000  0.4981550000000  0.5098280000000 1.0
C      1  0.4988620000000  0.4015920000000  0.4869890000000 1.0
C      1  0.5118690000000  0.5990640000000  0.4846170000000 1.0
C      1  0.4892390000000  0.6055370000000  0.5062760000000 1.0
C      1  0.5735930000000  0.5455610000000  0.5559370000000 1.0
C      1  0.5491480000000  0.5660850000000  0.5479370000000 1.0
C      1  0.5440780000000  0.5437780000000  0.5705060000000 1.0
C      1  0.4359480000000  0.5409310000000  0.4476810000000 1.0
C      1  0.5729500000000  0.4617740000000  0.4548950000000 1.0
C      1  0.4294580000000  0.4505250000000  0.5584360000000 1.0
C      1  0.4558020000000  0.5658070000000  0.4540860000000 1.0
C      1  0.5635760000000  0.4308390000000  0.4500910000000 1.0
C      1  0.4555330000000  0.4322350000000  0.5511670000000 1.0
C      1  0.4542800000000  0.5527690000000  0.4231350000000 1.0
C      1  0.5400780000000  0.4536290000000  0.4541490000000 1.0
C      1  0.4590220000000  0.4535350000000  0.5746990000000 1.0
C      1  0.5001790000000  0.5948890000000  0.4528760000000 1.0
C      1  0.4498190000000  0.5039920000000  0.5971000000000 1.0
C      1  0.5932680000000  0.4685670000000  0.4988260000000 1.0
C      1  0.5009210000000  0.6048200000000  0.5319970000000 1.0
C      1  0.4934070000000  0.3963920000000  0.5344000000000 1.0
C      1  0.5056440000000  0.4022070000000  0.4560290000000 1.0
C      1  0.5368450000000  0.5015790000000  0.4083550000000 1.0
C      1  0.4510150000000  0.4927760000000  0.4119200000000 1.0
C      1  0.5382260000000  0.4863030000000  0.5986960000000 1.0
C      1  0.4051350000000  0.4607840000000  0.5006430000000 1.0
C      1  0.5950320000000  0.5538050000000  0.4925140000000 1.0
C      1  0.4197100000000  0.5456710000000  0.4948120000000 1.0
C      1  0.5314530000000  0.5624810000000  0.4040800000000 1.0
C      1  0.4139940000000  0.5360280000000  0.5546500000000 1.0
C      1  0.5628730000000  0.4242400000000  0.5475690000000 1.0
C      1  0.4650470000000  0.5601860000000  0.5889750000000 1.0
C      1  0.5172730000000  0.4308100000000  0.5756780000000 1.0
C      1  0.4753150000000  0.4441950000000  0.4138660000000 1.0
C      1  0.5829910000000  0.5333520000000  0.4443700000000 1.0
C      1  0.4035060000000  0.4617720000000  0.4408880000000 1.0
C      1  0.5731110000000  0.4508960000000  0.5581520000000 1.0
C      1  0.4426930000000  0.4149120000000  0.4671640000000 1.0
C      1  0.5562420000000  0.5928370000000  0.4651020000000 1.0
C      1  0.4483620000000  0.5900010000000  0.5362880000000 1.0
C      1  0.4980820000000  0.5345310000000  0.5847460000000 1.0
C      1  0.5818960000000  0.4948730000000  0.5291090000000 1.0
C      1  0.5401940000000  0.5875870000000  0.5013220000000 1.0
C      1  0.5042010000000  0.5425600000000  0.4252250000000 1.0
C      1  0.5082090000000  0.4514110000000  0.4188330000000 1.0
C      1  0.4865910000000  0.4729720000000  0.5980200000000 1.0
C      1  0.4169090000000  0.4956550000000  0.4571970000000 1.0
C      1  0.5805850000000  0.5006040000000  0.4495400000000 1.0
C      1  0.4238300000000  0.4998290000000  0.5411910000000 1.0
C      1  0.4651750000000  0.5820870000000  0.5010410000000 1.0
C      1  0.5354220000000  0.4154000000000  0.5034100000000 1.0
C      1  0.4523600000000  0.4245720000000  0.5044130000000 1.0
C      1  0.4759490000000  0.5577680000000  0.4798480000000 1.0
C      1  0.4840350000000  0.4742910000000  0.5646800000000 1.0
C      1  0.5609220000000  0.4872920000000  0.4738930000000 1.0
C      1  0.5280510000000  0.5629620000000  0.5213950000000 1.0
C      1  0.4716360000000  0.4422030000000  0.5256310000000 1.0
C      1  0.5297450000000  0.4407880000000  0.4823200000000 1.0
C      1  0.5195600000000  0.4743660000000  0.4412060000000 1.0
C      1  0.4765580000000  0.5354660000000  0.4378190000000 1.0
C      1  0.5287690000000  0.5226720000000  0.5565200000000 1.0
C      1  0.4401720000000  0.4722890000000  0.5373170000000 1.0
C      1  0.5680760000000  0.5211820000000  0.5369180000000 1.0
C      1  0.4466350000000  0.5255770000000  0.4716810000000 1.0
C      1  0.5021760000000  0.4478410000000  0.4702100000000 1.0
C      1  0.4735310000000  0.5062940000000  0.4500100000000 1.0
C      1  0.4456430000000  0.4667700000000  0.5082800000000 1.0
C      1  0.4992000000000  0.4595680000000  0.5380460000000 1.0
C      1  0.5017230000000  0.5544700000000  0.5409970000000 1.0
C      1  0.4958870000000  0.5364130000000  0.4638320000000 1.0
C      1  0.5471630000000  0.4975750000000  0.5492920000000 1.0
C      1  0.4628410000000  0.4927750000000  0.5459160000000 1.0
C      1  0.5325630000000  0.5020880000000  0.4503110000000 1.0
C      1  0.5454570000000  0.4658930000000  0.4933190000000 1.0
C      1  0.4583380000000  0.5367990000000  0.5000040000000 1.0
C      1  0.5617660000000  0.5297680000000  0.5093510000000 1.0
C      1  0.5220190000000  0.5166730000000  0.6012110000000 1.0
C      1  0.6030110000000  0.5337060000000  0.5188070000000 1.0
C      1  0.5288190000000  0.6035480000000  0.5292060000000 1.0
C      1  0.4509050000000  0.5177730000000  0.3899980000000 1.0
C      1  0.5315020000000  0.4707540000000  0.4033260000000 1.0
C      1  0.4599310000000  0.4767520000000  0.6072220000000 1.0
C      1  0.4066860000000  0.5256610000000  0.4699820000000 1.0
C      1  0.6007170000000  0.4852460000000  0.4723720000000 1.0
C      1  0.4015360000000  0.4770210000000  0.5289060000000 1.0
C      1  0.4718630000000  0.5977170000000  0.4715660000000 1.0
C      1  0.5356020000000  0.4016310000000  0.4723080000000 1.0
C      1  0.4660810000000  0.4026110000000  0.5265500000000 1.0
C      1  0.5005370000000  0.4794130000000  0.4688020000000 1.0
C      1  0.4693050000000  0.5025970000000  0.4824090000000 1.0
C      1  0.4794000000000  0.4674830000000  0.5042330000000 1.0
C      1  0.5082490000000  0.4903420000000  0.5266890000000 1.0
C      1  0.5112190000000  0.5241830000000  0.5286060000000 1.0
C      1  0.5015030000000  0.5107670000000  0.4781330000000 1.0
C      1  0.5386280000000  0.4976920000000  0.5165370000000 1.0
C      1  0.4703730000000  0.4970140000000  0.5159360000000 1.0
C      1  0.5347510000000  0.5065860000000  0.4839470000000 1.0
C      1  0.5126710000000  0.4726530000000  0.4993920000000 1.0
C      1  0.4843160000000  0.5246590000000  0.5118810000000 1.0
C      1  0.5312730000000  0.5344560000000  0.5031430000000 1.0
C      1  0.4927990000000  0.4260000000000  0.4356280000000 1.0
C      1  0.4226750000000  0.4810510000000  0.4267470000000 1.0
C      1  0.4273840000000  0.4373650000000  0.4876320000000 1.0
C      1  0.5052910000000  0.4039720000000  0.5596420000000 1.0
C      1  0.4885120000000  0.5640770000000  0.5706520000000 1.0
C      1  0.5130080000000  0.5746560000000  0.4280900000000 1.0
C      1  0.5598590000000  0.4653060000000  0.5816180000000 1.0
C      1  0.4319190000000  0.5159960000000  0.5701810000000 1.0
C      1  0.5646820000000  0.5152430000000  0.4229380000000 1.0
C      1  0.5660900000000  0.4218970000000  0.5169630000000 1.0
C      1  0.4337900000000  0.5730910000000  0.5106280000000 1.0
C      1  0.5699290000000  0.5770970000000  0.4884840000000 1.0
C      1  0.5773940000000  0.5140380000000  0.4869130000000 1.0
C      1  0.5036430000000  0.5691560000000  0.4985420000000 1.0
C      1  0.5056130000000  0.5006530000000  0.5649370000000 1.0
C      1  0.4318440000000  0.5072230000000  0.4948310000000 1.0
C      1  0.4948260000000  0.4274680000000  0.5065330000000 1.0
C      1  0.4956450000000  0.4891520000000  0.4220810000000 1.0
C      1  0.5356080000000  0.5409220000000  0.4635040000000 1.0
C      1  0.4619100000000  0.5370870000000  0.5423840000000 1.0
C      1  0.5390270000000  0.4594030000000  0.5392610000000 1.0
C      1  0.4605390000000  0.4628010000000  0.4665050000000 1.0
END
