TITL C-2622967-6265-728 -0.00112097043418203 125000 -1015.06039328958 0 0 181 (C1) n - 1
REM
REM in /nfs/bkarasulu/CARBON/AIRSS/Generating-Clusters/AIREBO/with-SteepDescent/Higher-Symm/SD-CG/HFTN-CG
REM
REM
REM
REM
REM
REM ./C.cell (b20cbc046b6831c77cfcea5457e17084)
REM
REM compiler GCC version 9.2.1 20190827 (Red Hat 9.2.1-1)
REM options -cpp -mtune=generic -march=x86-64 -g -O0 -fpre-include=/usr/include/finclude/math-vector-fortran.h
REM seed -1185498688 1013192495 1536637896 605379803 -397252727 632108045 451204282 736093631 -2135975594 -169659350 -1642904898 -295465543 -1019717002 -1049385383 682190836 -1947542597 -1428879733 -1519286775 -1979494796 -1722478867 1225129064 387230454 1555049130 345009298 767957089 -71772339 -1320361429 898579031 -1183069514 1043937788 544731495 1311349843 -1248757909
REM
CELL 1.54180   50.00000   50.00000   50.00000   90.00000   90.00000   90.00000
LATT -1
SFAC C  
C      1  0.4567080000000  0.4569200000000  0.4398070000000 1.0
C      1  0.5561460000000  0.4869890000000  0.4424920000000 1.0
C      1  0.4787680000000  0.5519670000000  0.4267690000000 1.0
C      1  0.4538310000000  0.5437860000000  0.4425550000000 1.0
C      1  0.5513890000000  0.5152660000000  0.4302000000000 1.0
C      1  0.4818610000000  0.4413690000000  0.4330170000000 1.0
C      1  0.5206960000000  0.4892810000000  0.3973080000000 1.0
C      1  0.5013320000000  0.5358940000000  0.4069970000000 1.0
C      1  0.4721400000000  0.4920310000000  0.4087790000000 1.0
C      1  0.5261780000000  0.5167310000000  0.4072170000000 1.0
C      1  0.4964530000000  0.4761650000000  0.4013160000000 1.0
C      1  0.4744450000000  0.5216070000000  0.4011600000000 1.0
C      1  0.5201890000000  0.4346680000000  0.4040040000000 1.0
C      1  0.5509110000000  0.5550170000000  0.4125680000000 1.0
C      1  0.4303610000000  0.5197360000000  0.4162080000000 1.0
C      1  0.5248530000000  0.5676110000000  0.4129530000000 1.0
C      1  0.5421160000000  0.4502100000000  0.4134190000000 1.0
C      1  0.4227910000000  0.4964940000000  0.4015670000000 1.0
C      1  0.4407250000000  0.5125550000000  0.4456540000000 1.0
C      1  0.5104990000000  0.4410710000000  0.4515370000000 1.0
C      1  0.5403970000000  0.5447150000000  0.4432240000000 1.0
C      1  0.4619730000000  0.4887330000000  0.4397840000000 1.0
C      1  0.5098740000000  0.5601240000000  0.4394070000000 1.0
C      1  0.5394680000000  0.4573580000000  0.4442210000000 1.0
C      1  0.5826180000000  0.5169320000000  0.4695680000000 1.0
C      1  0.4578600000000  0.5588090000000  0.4707010000000 1.0
C      1  0.4807880000000  0.4259520000000  0.4915940000000 1.0
C      1  0.5698910000000  0.4868990000000  0.4727690000000 1.0
C      1  0.4437980000000  0.4496880000000  0.4689020000000 1.0
C      1  0.4841930000000  0.5699870000000  0.4796640000000 1.0
C      1  0.5304250000000  0.5954570000000  0.4578230000000 1.0
C      1  0.3863070000000  0.5000530000000  0.4495060000000 1.0
C      1  0.5667370000000  0.4247380000000  0.4561420000000 1.0
C      1  0.5496410000000  0.4045440000000  0.4506050000000 1.0
C      1  0.3984120000000  0.5259660000000  0.4516670000000 1.0
C      1  0.5569790000000  0.5972620000000  0.4473110000000 1.0
C      1  0.4849000000000  0.5816890000000  0.5104220000000 1.0
C      1  0.4342750000000  0.4566150000000  0.5227980000000 1.0
C      1  0.5734020000000  0.4710520000000  0.5154140000000 1.0
C      1  0.4865760000000  0.4156000000000  0.5213910000000 1.0
C      1  0.4431600000000  0.5402450000000  0.5126820000000 1.0
C      1  0.5781000000000  0.5255640000000  0.5226010000000 1.0
C      1  0.4878270000000  0.6097380000000  0.4794610000000 1.0
C      1  0.4011920000000  0.4347110000000  0.4893600000000 1.0
C      1  0.5942460000000  0.4542880000000  0.4846170000000 1.0
C      1  0.4852090000000  0.3866130000000  0.4939110000000 1.0
C      1  0.4088030000000  0.5590900000000  0.4819470000000 1.0
C      1  0.5989200000000  0.5489470000000  0.4865590000000 1.0
C      1  0.4679630000000  0.5403340000000  0.5991560000000 1.0
C      1  0.4783730000000  0.4368570000000  0.5966930000000 1.0
C      1  0.5539170000000  0.5123510000000  0.5985020000000 1.0
C      1  0.4542020000000  0.4435140000000  0.5975350000000 1.0
C      1  0.4774700000000  0.5636770000000  0.5942900000000 1.0
C      1  0.5584550000000  0.4876290000000  0.6089850000000 1.0
C      1  0.4020370000000  0.4555750000000  0.5127830000000 1.0
C      1  0.5796940000000  0.4382440000000  0.5090570000000 1.0
C      1  0.5075200000000  0.6069250000000  0.5071530000000 1.0
C      1  0.3989330000000  0.5398440000000  0.4999350000000 1.0
C      1  0.5871290000000  0.5673560000000  0.5049660000000 1.0
C      1  0.5125800000000  0.3963060000000  0.5116050000000 1.0
C      1  0.6061920000000  0.5132280000000  0.5481270000000 1.0
C      1  0.4316270000000  0.5804460000000  0.5444970000000 1.0
C      1  0.4609800000000  0.3962980000000  0.5516770000000 1.0
C      1  0.6057520000000  0.4797740000000  0.5536580000000 1.0
C      1  0.4345390000000  0.4171300000000  0.5467390000000 1.0
C      1  0.4597800000000  0.5967010000000  0.5469490000000 1.0
C      1  0.4799700000000  0.5841220000000  0.4284150000000 1.0
C      1  0.4268110000000  0.4485990000000  0.4332960000000 1.0
C      1  0.5830500000000  0.4676550000000  0.4399210000000 1.0
C      1  0.4765090000000  0.4110080000000  0.4402600000000 1.0
C      1  0.4263730000000  0.5603540000000  0.4371940000000 1.0
C      1  0.5771710000000  0.5314100000000  0.4311840000000 1.0
C      1  0.5081330000000  0.5640230000000  0.3891490000000 1.0
C      1  0.4449400000000  0.4809360000000  0.3950970000000 1.0
C      1  0.5439420000000  0.4730390000000  0.3968140000000 1.0
C      1  0.4956610000000  0.4487480000000  0.4070620000000 1.0
C      1  0.4504320000000  0.5345460000000  0.4025120000000 1.0
C      1  0.5526400000000  0.5331910000000  0.3946050000000 1.0
C      1  0.5045230000000  0.4571310000000  0.5181150000000 1.0
C      1  0.5434990000000  0.5218950000000  0.5042340000000 1.0
C      1  0.4898790000000  0.5101130000000  0.5104410000000 1.0
C      1  0.5136640000000  0.5280780000000  0.5109170000000 1.0
C      1  0.5330170000000  0.4939690000000  0.5197900000000 1.0
C      1  0.4926130000000  0.4830120000000  0.5269980000000 1.0
C      1  0.4579790000000  0.4494710000000  0.5451760000000 1.0
C      1  0.5633450000000  0.4831420000000  0.5431290000000 1.0
C      1  0.4851830000000  0.5597090000000  0.5364330000000 1.0
C      1  0.4600610000000  0.5416400000000  0.5380700000000 1.0
C      1  0.5631370000000  0.5134800000000  0.5465160000000 1.0
C      1  0.4847450000000  0.4348810000000  0.5446670000000 1.0
C      1  0.5074500000000  0.4558440000000  0.5519770000000 1.0
C      1  0.5344220000000  0.5254970000000  0.5522160000000 1.0
C      1  0.4727130000000  0.5145490000000  0.5395490000000 1.0
C      1  0.5136460000000  0.5447400000000  0.5373540000000 1.0
C      1  0.5345010000000  0.4727540000000  0.5463430000000 1.0
C      1  0.4608610000000  0.4826820000000  0.5391530000000 1.0
C      1  0.5399670000000  0.5959710000000  0.5532580000000 1.0
C      1  0.3958720000000  0.4781120000000  0.5573750000000 1.0
C      1  0.5719650000000  0.4297070000000  0.5671570000000 1.0
C      1  0.5449060000000  0.4094320000000  0.5632010000000 1.0
C      1  0.4012400000000  0.5085380000000  0.5522520000000 1.0
C      1  0.5644040000000  0.5778960000000  0.5578190000000 1.0
C      1  0.5244340000000  0.5192320000000  0.4591260000000 1.0
C      1  0.4769130000000  0.5112580000000  0.4827030000000 1.0
C      1  0.5037030000000  0.4690800000000  0.4664420000000 1.0
C      1  0.5255650000000  0.4890130000000  0.4681850000000 1.0
C      1  0.4755810000000  0.4851510000000  0.4680740000000 1.0
C      1  0.5005840000000  0.5274770000000  0.4732300000000 1.0
C      1  0.4433780000000  0.4852510000000  0.5103830000000 1.0
C      1  0.5439750000000  0.4560350000000  0.5073650000000 1.0
C      1  0.5249920000000  0.5662760000000  0.5136070000000 1.0
C      1  0.4268950000000  0.5116180000000  0.5041380000000 1.0
C      1  0.5544100000000  0.5497370000000  0.5193560000000 1.0
C      1  0.5268870000000  0.4341970000000  0.5249680000000 1.0
C      1  0.4359540000000  0.4237340000000  0.5141800000000 1.0
C      1  0.6030610000000  0.4829380000000  0.5223610000000 1.0
C      1  0.4547920000000  0.5931010000000  0.5149730000000 1.0
C      1  0.4326030000000  0.5686780000000  0.5126130000000 1.0
C      1  0.6061830000000  0.5145350000000  0.5157260000000 1.0
C      1  0.4588240000000  0.4007180000000  0.5201190000000 1.0
C      1  0.4010220000000  0.4536110000000  0.5446930000000 1.0
C      1  0.5887430000000  0.4318550000000  0.5380830000000 1.0
C      1  0.5150090000000  0.5907560000000  0.5350100000000 1.0
C      1  0.4095860000000  0.5269570000000  0.5291180000000 1.0
C      1  0.5809720000000  0.5615510000000  0.5370210000000 1.0
C      1  0.5185460000000  0.4067610000000  0.5432640000000 1.0
C      1  0.4901330000000  0.4056470000000  0.4669330000000 1.0
C      1  0.5825160000000  0.5480910000000  0.4577940000000 1.0
C      1  0.4050040000000  0.5526210000000  0.4544710000000 1.0
C      1  0.4992460000000  0.5877270000000  0.4561940000000 1.0
C      1  0.5870160000000  0.4466580000000  0.4585910000000 1.0
C      1  0.4108350000000  0.4515760000000  0.4629620000000 1.0
C      1  0.4427750000000  0.4616770000000  0.5730400000000 1.0
C      1  0.5449380000000  0.4667700000000  0.5951250000000 1.0
C      1  0.4976720000000  0.5655640000000  0.5675290000000 1.0
C      1  0.4415140000000  0.5336540000000  0.5654320000000 1.0
C      1  0.5661690000000  0.5304170000000  0.5758780000000 1.0
C      1  0.4967850000000  0.4248810000000  0.5748810000000 1.0
C      1  0.4554450000000  0.5320990000000  0.4854610000000 1.0
C      1  0.4879570000000  0.4554720000000  0.4917320000000 1.0
C      1  0.5510820000000  0.5218380000000  0.4757850000000 1.0
C      1  0.4578810000000  0.4681970000000  0.4881150000000 1.0
C      1  0.5039740000000  0.5512480000000  0.4914030000000 1.0
C      1  0.5450840000000  0.4843680000000  0.4906230000000 1.0
C      1  0.5506150000000  0.4480070000000  0.4749750000000 1.0
C      1  0.5277520000000  0.5822990000000  0.4837250000000 1.0
C      1  0.4006010000000  0.4788370000000  0.4680920000000 1.0
C      1  0.5581400000000  0.5670470000000  0.4625260000000 1.0
C      1  0.5203700000000  0.4103720000000  0.4623670000000 1.0
C      1  0.4190340000000  0.5072290000000  0.4713140000000 1.0
C      1  0.5536380000000  0.5581540000000  0.5782970000000 1.0
C      1  0.4210380000000  0.5135710000000  0.5754710000000 1.0
C      1  0.5251050000000  0.4233520000000  0.5832470000000 1.0
C      1  0.5488830000000  0.4404270000000  0.5877340000000 1.0
C      1  0.4189930000000  0.4836130000000  0.5775890000000 1.0
C      1  0.5281410000000  0.5746610000000  0.5738660000000 1.0
C      1  0.4216880000000  0.4392820000000  0.5585350000000 1.0
C      1  0.5897380000000  0.4574020000000  0.5585360000000 1.0
C      1  0.4872950000000  0.5951580000000  0.5543660000000 1.0
C      1  0.4224990000000  0.5513950000000  0.5470120000000 1.0
C      1  0.5930610000000  0.5371910000000  0.5577610000000 1.0
C      1  0.4891500000000  0.3978670000000  0.5585870000000 1.0
C      1  0.5333220000000  0.4050540000000  0.4912800000000 1.0
C      1  0.5661040000000  0.5815060000000  0.4925430000000 1.0
C      1  0.3864140000000  0.5098240000000  0.5019480000000 1.0
C      1  0.5415810000000  0.6014970000000  0.5050410000000 1.0
C      1  0.5563560000000  0.4207480000000  0.4944780000000 1.0
C      1  0.3927350000000  0.4834270000000  0.4982120000000 1.0
C      1  0.4557790000000  0.4021950000000  0.4869570000000 1.0
C      1  0.6115720000000  0.5178360000000  0.4854700000000 1.0
C      1  0.4357590000000  0.5797120000000  0.4824730000000 1.0
C      1  0.4588490000000  0.6047680000000  0.4852040000000 1.0
C      1  0.5991430000000  0.4860420000000  0.4887290000000 1.0
C      1  0.4316110000000  0.4234970000000  0.4823540000000 1.0
C      1  0.4940000000000  0.4693510000000  0.5791730000000 1.0
C      1  0.5261910000000  0.5133320000000  0.5811760000000 1.0
C      1  0.4705640000000  0.5180060000000  0.5736390000000 1.0
C      1  0.5014390000000  0.5322400000000  0.5732720000000 1.0
C      1  0.5242660000000  0.4814930000000  0.5771340000000 1.0
C      1  0.4682370000000  0.4842130000000  0.5734840000000 1.0
C      1  0.5116940000000  0.5046710000000  0.5431640000000 1.0
END
