TITL C-2622963-3633-615 0.00283872906647374 125000 -515.556083107932 0 0 96 (C1) n - 1
REM
REM in /nfs/bkarasulu/CARBON/AIRSS/Generating-Clusters/AIREBO/with-SteepDescent/Higher-Symm/SD-CG/HFTN-CG
REM
REM
REM
REM
REM
REM ./C.cell (b20cbc046b6831c77cfcea5457e17084)
REM
REM compiler GCC version 9.2.1 20190827 (Red Hat 9.2.1-1)
REM options -cpp -mtune=generic -march=x86-64 -g -O0 -fpre-include=/usr/include/finclude/math-vector-fortran.h
REM seed -1942905926 -1860219255 -1055428066 1074192393 -1593193405 611250820 -799007899 1046782684 -1093169960 -157828780 1809934842 1514318007 1327653957 -1030373816 -1628491579 -1329644379 -1933372827 -1994142483 241001629 729191766 976799380 -1778362626 -658662627 -1447833890 -1582525437 1962728734 1628238762 -1788217664 1452880491 -312206260 -1678706560 -1317491564 465026407
REM
CELL 1.54180   50.00000   50.00000   50.00000   90.00000   90.00000   90.00000
LATT -1
SFAC C  
C      1  0.4472750000000  0.5022760000000  0.5163010000000 1.0
C      1  0.5127780000000  0.4590770000000  0.5148390000000 1.0
C      1  0.5169470000000  0.5111850000000  0.4555210000000 1.0
C      1  0.4669870000000  0.4890020000000  0.4694090000000 1.0
C      1  0.5440870000000  0.4943060000000  0.5231800000000 1.0
C      1  0.5404250000000  0.5186380000000  0.4789710000000 1.0
C      1  0.5194080000000  0.5419030000000  0.4927410000000 1.0
C      1  0.4847830000000  0.5507260000000  0.5216940000000 1.0
C      1  0.4672320000000  0.4607230000000  0.4866040000000 1.0
C      1  0.5185270000000  0.4803300000000  0.5407710000000 1.0
C      1  0.4893750000000  0.4646300000000  0.4617520000000 1.0
C      1  0.4929880000000  0.5249350000000  0.5434460000000 1.0
C      1  0.5498020000000  0.5260000000000  0.5212540000000 1.0
C      1  0.4790360000000  0.4541620000000  0.5178080000000 1.0
C      1  0.4930930000000  0.5288920000000  0.4643170000000 1.0
C      1  0.5342400000000  0.4931370000000  0.4951940000000 1.0
C      1  0.4686110000000  0.4830340000000  0.5288410000000 1.0
C      1  0.4573920000000  0.5160210000000  0.4876910000000 1.0
C      1  0.4873680000000  0.5305260000000  0.4945900000000 1.0
C      1  0.5185100000000  0.5495990000000  0.5258690000000 1.0
C      1  0.5299240000000  0.4642710000000  0.4859380000000 1.0
C      1  0.4937830000000  0.4973130000000  0.5329330000000 1.0
C      1  0.5204290000000  0.4772090000000  0.4559540000000 1.0
C      1  0.5269300000000  0.5232380000000  0.5448130000000 1.0
C      1  0.4398930000000  0.5642190000000  0.5393750000000 1.0
C      1  0.5343740000000  0.4401250000000  0.5661200000000 1.0
C      1  0.5669350000000  0.5336400000000  0.4388320000000 1.0
C      1  0.4355200000000  0.4386110000000  0.4541450000000 1.0
C      1  0.5533850000000  0.4348710000000  0.5410950000000 1.0
C      1  0.5623130000000  0.5621000000000  0.4541470000000 1.0
C      1  0.5419570000000  0.5516770000000  0.4304750000000 1.0
C      1  0.4555160000000  0.5632950000000  0.5670990000000 1.0
C      1  0.4580840000000  0.4388060000000  0.4320480000000 1.0
C      1  0.5617320000000  0.4575730000000  0.5638810000000 1.0
C      1  0.4382940000000  0.4635320000000  0.4349490000000 1.0
C      1  0.4334940000000  0.5394540000000  0.5582050000000 1.0
C      1  0.5657270000000  0.5580300000000  0.5388010000000 1.0
C      1  0.4602440000000  0.4370950000000  0.5629820000000 1.0
C      1  0.4306870000000  0.5453670000000  0.4386640000000 1.0
C      1  0.5664190000000  0.4370940000000  0.4631620000000 1.0
C      1  0.4332050000000  0.4350800000000  0.5436210000000 1.0
C      1  0.4410100000000  0.5598650000000  0.4669780000000 1.0
C      1  0.4612270000000  0.5602930000000  0.4412740000000 1.0
C      1  0.5381790000000  0.5706660000000  0.5533940000000 1.0
C      1  0.5463310000000  0.4310120000000  0.4371310000000 1.0
C      1  0.4384760000000  0.4614370000000  0.5633280000000 1.0
C      1  0.5655590000000  0.4582940000000  0.4384980000000 1.0
C      1  0.5536030000000  0.5433260000000  0.5666080000000 1.0
C      1  0.4939410000000  0.4177870000000  0.5252010000000 1.0
C      1  0.5292170000000  0.4902400000000  0.4167240000000 1.0
C      1  0.4123190000000  0.5341460000000  0.5006910000000 1.0
C      1  0.5045150000000  0.5769510000000  0.4597880000000 1.0
C      1  0.5194860000000  0.5896350000000  0.5322540000000 1.0
C      1  0.5191670000000  0.4167910000000  0.4479980000000 1.0
C      1  0.5354390000000  0.5195380000000  0.5833690000000 1.0
C      1  0.4527350000000  0.5256420000000  0.4232530000000 1.0
C      1  0.4632180000000  0.5037450000000  0.5764880000000 1.0
C      1  0.4179400000000  0.4463300000000  0.5175510000000 1.0
C      1  0.5794350000000  0.4644940000000  0.5041520000000 1.0
C      1  0.5822670000000  0.5356460000000  0.5182530000000 1.0
C      1  0.5137890000000  0.4193500000000  0.5101270000000 1.0
C      1  0.4637300000000  0.5017080000000  0.4109640000000 1.0
C      1  0.5726320000000  0.5230380000000  0.4889960000000 1.0
C      1  0.5227840000000  0.5691810000000  0.4774680000000 1.0
C      1  0.4961750000000  0.5826720000000  0.5242720000000 1.0
C      1  0.4929480000000  0.4051190000000  0.4514760000000 1.0
C      1  0.4787410000000  0.5246420000000  0.5711710000000 1.0
C      1  0.5137240000000  0.5098200000000  0.4156810000000 1.0
C      1  0.5225120000000  0.4940380000000  0.5716520000000 1.0
C      1  0.5721450000000  0.4796210000000  0.5248170000000 1.0
C      1  0.4052440000000  0.4516360000000  0.4923300000000 1.0
C      1  0.4082030000000  0.5178050000000  0.5193370000000 1.0
C      1  0.4450330000000  0.5194320000000  0.4557820000000 1.0
C      1  0.4498620000000  0.4370800000000  0.5137600000000 1.0
C      1  0.5171060000000  0.4486500000000  0.4377810000000 1.0
C      1  0.4475510000000  0.4880910000000  0.5536070000000 1.0
C      1  0.5499240000000  0.4834790000000  0.4402330000000 1.0
C      1  0.5558030000000  0.5106000000000  0.5576490000000 1.0
C      1  0.4404980000000  0.5451230000000  0.4925550000000 1.0
C      1  0.5573730000000  0.5554950000000  0.5061130000000 1.0
C      1  0.5576000000000  0.4476010000000  0.4891390000000 1.0
C      1  0.5064460000000  0.5603840000000  0.5558030000000 1.0
C      1  0.4893260000000  0.5539060000000  0.4452890000000 1.0
C      1  0.4855180000000  0.4390260000000  0.5475600000000 1.0
C      1  0.5590010000000  0.5101310000000  0.4517880000000 1.0
C      1  0.5394020000000  0.4378550000000  0.5142150000000 1.0
C      1  0.4854540000000  0.4374750000000  0.4432130000000 1.0
C      1  0.5676600000000  0.4832690000000  0.5534110000000 1.0
C      1  0.4507830000000  0.4897350000000  0.4402400000000 1.0
C      1  0.4292960000000  0.5138390000000  0.5427690000000 1.0
C      1  0.5510580000000  0.5666020000000  0.4796670000000 1.0
C      1  0.4540510000000  0.5578900000000  0.5165620000000 1.0
C      1  0.4378290000000  0.4454690000000  0.4830800000000 1.0
C      1  0.4827260000000  0.5536640000000  0.5692610000000 1.0
C      1  0.5158390000000  0.5366270000000  0.4328480000000 1.0
C      1  0.5104670000000  0.4524080000000  0.5584200000000 1.0
END
