TITL C-2622968-4806-403 -0.0025897262649106 125000 -893.568393435847 0 0 165 (C1) n - 1
REM
REM in /nfs/bkarasulu/CARBON/AIRSS/Generating-Clusters/AIREBO/with-SteepDescent/Higher-Symm/SD-CG/HFTN-CG
REM
REM
REM
REM
REM
REM ./C.cell (b20cbc046b6831c77cfcea5457e17084)
REM
REM compiler GCC version 9.2.1 20190827 (Red Hat 9.2.1-1)
REM options -cpp -mtune=generic -march=x86-64 -g -O0 -fpre-include=/usr/include/finclude/math-vector-fortran.h
REM seed -577357780 -655396933 -1924585879 1700016227 -65363551 2146375968 -1162064513 -1854835377 -1888462958 -1179469750 500977263 1177879091 633887136 579958693 216360206 1378857289 -1422349533 319906306 245913922 386683644 -1903714458 26244441 717486959 -1904015664 1165242682 303836908 934750162 1383230227 -1792228601 -193994162 -1094016079 -444066250 -1751969776
REM
CELL 1.54180   50.00000   50.00000   50.00000   90.00000   90.00000   90.00000
LATT -1
SFAC C  
C      1  0.5983260000000  0.5320870000000  0.5624300000000 1.0
C      1  0.5094160000000  0.5345650000000  0.6151240000000 1.0
C      1  0.4328420000000  0.5301220000000  0.5644520000000 1.0
C      1  0.3953290000000  0.5236980000000  0.4751020000000 1.0
C      1  0.4560590000000  0.5278880000000  0.4020400000000 1.0
C      1  0.5414490000000  0.5309090000000  0.4032510000000 1.0
C      1  0.5960150000000  0.5245990000000  0.4833140000000 1.0
C      1  0.4709840000000  0.3995290000000  0.4851950000000 1.0
C      1  0.4620100000000  0.3785750000000  0.4694890000000 1.0
C      1  0.4686390000000  0.3522740000000  0.4656050000000 1.0
C      1  0.4761860000000  0.3349550000000  0.4857260000000 1.0
C      1  0.4868140000000  0.3443980000000  0.5093570000000 1.0
C      1  0.4822330000000  0.3689530000000  0.5205260000000 1.0
C      1  0.4779630000000  0.3950770000000  0.5120720000000 1.0
C      1  0.4661940000000  0.5141340000000  0.5000300000000 1.0
C      1  0.4863670000000  0.5325750000000  0.4800260000000 1.0
C      1  0.5144090000000  0.5182910000000  0.4734120000000 1.0
C      1  0.5371730000000  0.5249220000000  0.4929820000000 1.0
C      1  0.5278030000000  0.5355540000000  0.5388980000000 1.0
C      1  0.4956970000000  0.5246730000000  0.5360450000000 1.0
C      1  0.4663220000000  0.5293310000000  0.5272960000000 1.0
C      1  0.5188810000000  0.5904100000000  0.5733790000000 1.0
C      1  0.4295330000000  0.5983660000000  0.5186430000000 1.0
C      1  0.4570100000000  0.5902740000000  0.4699810000000 1.0
C      1  0.4869450000000  0.5862280000000  0.4536750000000 1.0
C      1  0.5192090000000  0.5980720000000  0.4591430000000 1.0
C      1  0.5436010000000  0.5949940000000  0.4827290000000 1.0
C      1  0.5347850000000  0.5959440000000  0.5092870000000 1.0
C      1  0.5788370000000  0.5662190000000  0.5054980000000 1.0
C      1  0.5455840000000  0.5511690000000  0.5806890000000 1.0
C      1  0.4683110000000  0.5603720000000  0.5839030000000 1.0
C      1  0.4181420000000  0.5473320000000  0.5219220000000 1.0
C      1  0.4270670000000  0.5584610000000  0.4449340000000 1.0
C      1  0.4979860000000  0.5545180000000  0.4015190000000 1.0
C      1  0.5602490000000  0.5594050000000  0.4337490000000 1.0
C      1  0.5230420000000  0.4536700000000  0.6096520000000 1.0
C      1  0.4526110000000  0.4380770000000  0.5682020000000 1.0
C      1  0.4073580000000  0.4455690000000  0.4946890000000 1.0
C      1  0.4411520000000  0.4639090000000  0.4226130000000 1.0
C      1  0.5197150000000  0.4368540000000  0.4194540000000 1.0
C      1  0.5894490000000  0.4546810000000  0.4613480000000 1.0
C      1  0.5885810000000  0.4545200000000  0.5518400000000 1.0
C      1  0.5846270000000  0.5016390000000  0.5549240000000 1.0
C      1  0.5066130000000  0.5023920000000  0.6095490000000 1.0
C      1  0.4245880000000  0.4974910000000  0.5582780000000 1.0
C      1  0.4059880000000  0.4911490000000  0.4773470000000 1.0
C      1  0.4603360000000  0.5093170000000  0.4221160000000 1.0
C      1  0.5494870000000  0.5057380000000  0.4169910000000 1.0
C      1  0.5905880000000  0.4910640000000  0.4817690000000 1.0
C      1  0.4893620000000  0.4794470000000  0.4550320000000 1.0
C      1  0.5105660000000  0.4896860000000  0.4735580000000 1.0
C      1  0.5016070000000  0.4799070000000  0.5015440000000 1.0
C      1  0.5175850000000  0.4868900000000  0.5270420000000 1.0
C      1  0.5088710000000  0.4524170000000  0.4872380000000 1.0
C      1  0.4678200000000  0.4733040000000  0.5342530000000 1.0
C      1  0.4733860000000  0.4854430000000  0.5055610000000 1.0
C      1  0.4085620000000  0.5223820000000  0.5289120000000 1.0
C      1  0.4179960000000  0.5323340000000  0.4435280000000 1.0
C      1  0.4941110000000  0.5327950000000  0.3800490000000 1.0
C      1  0.5772320000000  0.5406400000000  0.4215810000000 1.0
C      1  0.5790170000000  0.5341380000000  0.5176860000000 1.0
C      1  0.5539850000000  0.5250040000000  0.5857640000000 1.0
C      1  0.4673630000000  0.5323080000000  0.6006220000000 1.0
C      1  0.5040300000000  0.5224080000000  0.5829710000000 1.0
C      1  0.4460250000000  0.5132930000000  0.5394640000000 1.0
C      1  0.4385750000000  0.5152890000000  0.4853490000000 1.0
C      1  0.4715970000000  0.5340040000000  0.4514640000000 1.0
C      1  0.5270670000000  0.5310110000000  0.4480790000000 1.0
C      1  0.5640080000000  0.5195020000000  0.4735750000000 1.0
C      1  0.5557510000000  0.5177150000000  0.5465610000000 1.0
C      1  0.4987840000000  0.5430280000000  0.4335110000000 1.0
C      1  0.5512510000000  0.5486290000000  0.4643170000000 1.0
C      1  0.5686810000000  0.5692130000000  0.5336930000000 1.0
C      1  0.5093430000000  0.5479650000000  0.5646190000000 1.0
C      1  0.4755160000000  0.5642080000000  0.5508970000000 1.0
C      1  0.4335190000000  0.5464210000000  0.4951430000000 1.0
C      1  0.4542100000000  0.5572180000000  0.4375710000000 1.0
C      1  0.4895640000000  0.4513600000000  0.5456890000000 1.0
C      1  0.4471500000000  0.4664810000000  0.5011330000000 1.0
C      1  0.4675380000000  0.4630790000000  0.4675320000000 1.0
C      1  0.5013980000000  0.4600810000000  0.4356780000000 1.0
C      1  0.5370960000000  0.4764890000000  0.4693880000000 1.0
C      1  0.5455740000000  0.4730100000000  0.5214640000000 1.0
C      1  0.5202380000000  0.4501810000000  0.5423600000000 1.0
C      1  0.4673350000000  0.4437630000000  0.4229070000000 1.0
C      1  0.5469470000000  0.4511320000000  0.4259000000000 1.0
C      1  0.5855490000000  0.4467200000000  0.4944720000000 1.0
C      1  0.5638890000000  0.4528640000000  0.5682160000000 1.0
C      1  0.5010420000000  0.4515250000000  0.5838700000000 1.0
C      1  0.4296410000000  0.4446590000000  0.5486870000000 1.0
C      1  0.4236620000000  0.4396290000000  0.4663440000000 1.0
C      1  0.5181990000000  0.5574270000000  0.5959340000000 1.0
C      1  0.4432010000000  0.5593320000000  0.5624680000000 1.0
C      1  0.4069070000000  0.5490990000000  0.4780720000000 1.0
C      1  0.4588920000000  0.5560470000000  0.4079820000000 1.0
C      1  0.5263880000000  0.5520520000000  0.4142080000000 1.0
C      1  0.5846760000000  0.5532280000000  0.4688960000000 1.0
C      1  0.5897770000000  0.5498370000000  0.5438210000000 1.0
C      1  0.4671130000000  0.4169620000000  0.5580210000000 1.0
C      1  0.4274850000000  0.4297550000000  0.5181980000000 1.0
C      1  0.4374470000000  0.4328090000000  0.4358640000000 1.0
C      1  0.5088590000000  0.4086250000000  0.4338860000000 1.0
C      1  0.5651360000000  0.4326180000000  0.4701870000000 1.0
C      1  0.6134010000000  0.4339260000000  0.5435260000000 1.0
C      1  0.5337790000000  0.4417430000000  0.5796770000000 1.0
C      1  0.5937420000000  0.4840510000000  0.4495240000000 1.0
C      1  0.5974230000000  0.4830140000000  0.5345210000000 1.0
C      1  0.5290600000000  0.4854290000000  0.5991030000000 1.0
C      1  0.4622430000000  0.4830360000000  0.5953230000000 1.0
C      1  0.4038830000000  0.4766650000000  0.5080420000000 1.0
C      1  0.4258880000000  0.4864150000000  0.4430320000000 1.0
C      1  0.5036640000000  0.4862420000000  0.4018970000000 1.0
C      1  0.4823120000000  0.4217970000000  0.5305490000000 1.0
C      1  0.4459210000000  0.4366020000000  0.4907540000000 1.0
C      1  0.4764560000000  0.4315520000000  0.4766690000000 1.0
C      1  0.4890700000000  0.4297900000000  0.4450300000000 1.0
C      1  0.5381330000000  0.4467880000000  0.4794880000000 1.0
C      1  0.5550930000000  0.4446180000000  0.5067230000000 1.0
C      1  0.5263550000000  0.4372730000000  0.5195780000000 1.0
C      1  0.5437070000000  0.4790290000000  0.4373610000000 1.0
C      1  0.5597440000000  0.4850840000000  0.4933360000000 1.0
C      1  0.5425750000000  0.4703290000000  0.5534990000000 1.0
C      1  0.4893790000000  0.4782900000000  0.5664580000000 1.0
C      1  0.4361980000000  0.4708940000000  0.5308060000000 1.0
C      1  0.4367590000000  0.4767100000000  0.4729170000000 1.0
C      1  0.4864540000000  0.4963940000000  0.4282750000000 1.0
C      1  0.5396070000000  0.5572760000000  0.4952530000000 1.0
C      1  0.5352990000000  0.5672340000000  0.5275150000000 1.0
C      1  0.5045260000000  0.5714500000000  0.5413670000000 1.0
C      1  0.4570570000000  0.5585900000000  0.5250510000000 1.0
C      1  0.4573030000000  0.5672380000000  0.4949870000000 1.0
C      1  0.4858970000000  0.5648020000000  0.4800950000000 1.0
C      1  0.5169420000000  0.5674260000000  0.4719930000000 1.0
C      1  0.3978920000000  0.5051960000000  0.4474510000000 1.0
C      1  0.4999800000000  0.5084380000000  0.3792030000000 1.0
C      1  0.5820920000000  0.5073390000000  0.4265750000000 1.0
C      1  0.5944720000000  0.5044500000000  0.5115480000000 1.0
C      1  0.5812260000000  0.5183350000000  0.5842150000000 1.0
C      1  0.4746960000000  0.5060200000000  0.6045040000000 1.0
C      1  0.3976210000000  0.4925970000000  0.5379410000000 1.0
C      1  0.5551470000000  0.5111090000000  0.5143160000000 1.0
C      1  0.5389080000000  0.4991710000000  0.5695780000000 1.0
C      1  0.4548750000000  0.4829920000000  0.5638910000000 1.0
C      1  0.4285450000000  0.4993620000000  0.5138400000000 1.0
C      1  0.4443350000000  0.5136640000000  0.4518010000000 1.0
C      1  0.5165310000000  0.5083840000000  0.4249470000000 1.0
C      1  0.5646390000000  0.4996780000000  0.4529050000000 1.0
C      1  0.5686710000000  0.5806660000000  0.4806020000000 1.0
C      1  0.5394880000000  0.5737240000000  0.5606540000000 1.0
C      1  0.4948040000000  0.5781860000000  0.5863010000000 1.0
C      1  0.4286590000000  0.5728560000000  0.5371390000000 1.0
C      1  0.4261760000000  0.5756400000000  0.4690810000000 1.0
C      1  0.4820390000000  0.5771660000000  0.4212410000000 1.0
C      1  0.5290950000000  0.5713420000000  0.4404670000000 1.0
C      1  0.5699410000000  0.4374080000000  0.4386310000000 1.0
C      1  0.6002810000000  0.4525160000000  0.5197590000000 1.0
C      1  0.5542360000000  0.4623370000000  0.5992640000000 1.0
C      1  0.4672650000000  0.4531420000000  0.5876030000000 1.0
C      1  0.4022980000000  0.4500910000000  0.5292120000000 1.0
C      1  0.4118730000000  0.4555980000000  0.4398370000000 1.0
C      1  0.4941730000000  0.4536390000000  0.4040090000000 1.0
C      1  0.5009750000000  0.5321530000000  0.5081060000000 1.0
C      1  0.5078060000000  0.5019000000000  0.5561050000000 1.0
C      1  0.4385970000000  0.6025350000000  0.4958170000000 1.0
C      1  0.4983280000000  0.4279060000000  0.5024670000000 1.0
END
