TITL C-2622966-9038-257 0.00541053813669277 125000 -473.011462454458 0 0 82 (C1) n - 1
REM
REM in /nfs/bkarasulu/CARBON/AIRSS/Generating-Clusters/AIREBO/with-SteepDescent/Higher-Symm/SD-CG/HFTN-CG
REM
REM
REM
REM
REM
REM ./C.cell (b20cbc046b6831c77cfcea5457e17084)
REM
REM compiler GCC version 9.2.1 20190827 (Red Hat 9.2.1-1)
REM options -cpp -mtune=generic -march=x86-64 -g -O0 -fpre-include=/usr/include/finclude/math-vector-fortran.h
REM seed 1437710315 1055116438 -458214546 1293443571 30889461 848814885 -1833697735 -1074769805 593483099 1095512643 -755250261 71644637 1948313330 1171030903 -450047481 -512463478 528768465 -1897020937 -700861665 -2125230955 134268492 868020141 582178080 -2095522582 93151574 -2003668151 644331572 -741107630 -845989984 1176468452 -2081951963 -1279387676 -989236698
REM
CELL 1.54180   50.00000   50.00000   50.00000   90.00000   90.00000   90.00000
LATT -1
SFAC C  
C      1  0.4849250000000  0.4804860000000  0.5314590000000 1.0
C      1  0.4860820000000  0.5074340000000  0.5367760000000 1.0
C      1  0.4847710000000  0.5316800000000  0.5206920000000 1.0
C      1  0.5004680000000  0.5406130000000  0.4990130000000 1.0
C      1  0.4769820000000  0.5287110000000  0.4812600000000 1.0
C      1  0.4824250000000  0.5041680000000  0.4631550000000 1.0
C      1  0.5002050000000  0.4860570000000  0.4714500000000 1.0
C      1  0.4935610000000  0.4655450000000  0.4885490000000 1.0
C      1  0.5015840000000  0.4640690000000  0.5147330000000 1.0
C      1  0.5169750000000  0.5226810000000  0.4256160000000 1.0
C      1  0.5444250000000  0.4859520000000  0.4356710000000 1.0
C      1  0.5251740000000  0.4327130000000  0.4504130000000 1.0
C      1  0.5148070000000  0.4336940000000  0.5225460000000 1.0
C      1  0.5225040000000  0.4503480000000  0.5579380000000 1.0
C      1  0.5221640000000  0.4871800000000  0.5770060000000 1.0
C      1  0.5284710000000  0.5463830000000  0.5547020000000 1.0
C      1  0.5146220000000  0.5710300000000  0.5047310000000 1.0
C      1  0.5252930000000  0.5551080000000  0.4693890000000 1.0
C      1  0.5881700000000  0.4589390000000  0.5117020000000 1.0
C      1  0.5968390000000  0.4749080000000  0.5330600000000 1.0
C      1  0.5837450000000  0.4986940000000  0.5382810000000 1.0
C      1  0.5757550000000  0.5251310000000  0.5240290000000 1.0
C      1  0.5685310000000  0.5413860000000  0.5033680000000 1.0
C      1  0.5846410000000  0.5439000000000  0.4805110000000 1.0
C      1  0.5838030000000  0.5233770000000  0.4615430000000 1.0
C      1  0.5757780000000  0.4949750000000  0.4723340000000 1.0
C      1  0.5764230000000  0.4745670000000  0.4874610000000 1.0
C      1  0.4929860000000  0.4909290000000  0.5754830000000 1.0
C      1  0.5145370000000  0.5324340000000  0.5758370000000 1.0
C      1  0.5053080000000  0.5798010000000  0.5324750000000 1.0
C      1  0.4938230000000  0.5631070000000  0.4582110000000 1.0
C      1  0.4887790000000  0.5225750000000  0.4276720000000 1.0
C      1  0.4812680000000  0.4700790000000  0.4177920000000 1.0
C      1  0.4947560000000  0.4340990000000  0.4531900000000 1.0
C      1  0.4872050000000  0.4275680000000  0.5073870000000 1.0
C      1  0.4912910000000  0.4461430000000  0.5583360000000 1.0
C      1  0.5317870000000  0.5308420000000  0.4490040000000 1.0
C      1  0.5547230000000  0.5104790000000  0.4524750000000 1.0
C      1  0.5438080000000  0.4469770000000  0.4751840000000 1.0
C      1  0.5558600000000  0.4533550000000  0.5034570000000 1.0
C      1  0.5380520000000  0.4554740000000  0.5276650000000 1.0
C      1  0.5374330000000  0.4797810000000  0.5497300000000 1.0
C      1  0.5509800000000  0.5041250000000  0.5375200000000 1.0
C      1  0.5374320000000  0.5330300000000  0.5310690000000 1.0
C      1  0.5379390000000  0.5475160000000  0.5001490000000 1.0
C      1  0.5375520000000  0.4341590000000  0.5787240000000 1.0
C      1  0.5312250000000  0.5121000000000  0.5888340000000 1.0
C      1  0.5238280000000  0.5738250000000  0.5522170000000 1.0
C      1  0.5212130000000  0.5944540000000  0.4902140000000 1.0
C      1  0.5414240000000  0.5782810000000  0.4607850000000 1.0
C      1  0.5296780000000  0.4992330000000  0.4146930000000 1.0
C      1  0.5386030000000  0.4635730000000  0.4485270000000 1.0
C      1  0.5356550000000  0.4107330000000  0.4371230000000 1.0
C      1  0.5257160000000  0.4085990000000  0.5297930000000 1.0
C      1  0.4532570000000  0.5453310000000  0.4664280000000 1.0
C      1  0.4549190000000  0.4938350000000  0.4489600000000 1.0
C      1  0.4526800000000  0.4615280000000  0.4582160000000 1.0
C      1  0.4651070000000  0.4529590000000  0.4859340000000 1.0
C      1  0.4551740000000  0.4503800000000  0.5151520000000 1.0
C      1  0.4570560000000  0.4688990000000  0.5437580000000 1.0
C      1  0.4617100000000  0.5257430000000  0.5518800000000 1.0
C      1  0.4647360000000  0.5536170000000  0.5281080000000 1.0
C      1  0.4554910000000  0.5614880000000  0.4963480000000 1.0
C      1  0.4339220000000  0.5159060000000  0.5407410000000 1.0
C      1  0.4213320000000  0.5332650000000  0.5215880000000 1.0
C      1  0.4265240000000  0.5454090000000  0.4959830000000 1.0
C      1  0.4250680000000  0.5299200000000  0.4690450000000 1.0
C      1  0.4252800000000  0.5047360000000  0.4581610000000 1.0
C      1  0.4243450000000  0.4757930000000  0.4669130000000 1.0
C      1  0.4139900000000  0.4680580000000  0.4920920000000 1.0
C      1  0.4281030000000  0.4677550000000  0.5165010000000 1.0
C      1  0.4310600000000  0.4883480000000  0.5383100000000 1.0
C      1  0.4843380000000  0.4279770000000  0.4785050000000 1.0
C      1  0.4772730000000  0.4351700000000  0.5362680000000 1.0
C      1  0.4774110000000  0.4689790000000  0.5689710000000 1.0
C      1  0.4867800000000  0.5201650000000  0.5741710000000 1.0
C      1  0.4787600000000  0.5781640000000  0.5382730000000 1.0
C      1  0.4746670000000  0.5781890000000  0.4735470000000 1.0
C      1  0.4784280000000  0.5425620000000  0.4438270000000 1.0
C      1  0.4750900000000  0.4977900000000  0.4246610000000 1.0
C      1  0.4765150000000  0.4501810000000  0.4384300000000 1.0
C      1  0.4603140000000  0.5085470000000  0.4957600000000 1.0
END
