TITL C-2622966-9038-691 0.00167916796778987 125000 -425.400953941753 0 0 77 (C1) n - 1
REM
REM in /nfs/bkarasulu/CARBON/AIRSS/Generating-Clusters/AIREBO/with-SteepDescent/Higher-Symm/SD-CG/HFTN-CG
REM
REM
REM
REM
REM
REM ./C.cell (b20cbc046b6831c77cfcea5457e17084)
REM
REM compiler GCC version 9.2.1 20190827 (Red Hat 9.2.1-1)
REM options -cpp -mtune=generic -march=x86-64 -g -O0 -fpre-include=/usr/include/finclude/math-vector-fortran.h
REM seed 734309367 -1107089830 -1894623121 -168120905 -1124943625 35220623 1264546195 1405269662 2035759104 1905524492 207968342 1738559737 140095828 110473672 -172864997 1831541387 -1660688897 -1285617641 1160646996 2022785529 1374186897 -1272409109 -43784829 -1178794180 2098598277 47278242 877845849 -215486358 1646860390 627814380 2035936029 -603627057 153198203
REM
CELL 1.54180   50.00000   50.00000   50.00000   90.00000   90.00000   90.00000
LATT -1
SFAC C  
C      1  0.5152440000000  0.4582670000000  0.4369980000000 1.0
C      1  0.4946410000000  0.5555670000000  0.5665300000000 1.0
C      1  0.4656530000000  0.5044390000000  0.5488490000000 1.0
C      1  0.5395750000000  0.4808980000000  0.4444970000000 1.0
C      1  0.5644030000000  0.5375420000000  0.5176240000000 1.0
C      1  0.4360750000000  0.4601610000000  0.4730360000000 1.0
C      1  0.5590150000000  0.4951020000000  0.4976830000000 1.0
C      1  0.4342020000000  0.5075300000000  0.5015800000000 1.0
C      1  0.5173040000000  0.5752710000000  0.5569890000000 1.0
C      1  0.4879710000000  0.4379880000000  0.4379740000000 1.0
C      1  0.4580460000000  0.5383080000000  0.4397090000000 1.0
C      1  0.5492150000000  0.4704440000000  0.5604500000000 1.0
C      1  0.4326580000000  0.4530290000000  0.4468900000000 1.0
C      1  0.5726430000000  0.5434880000000  0.5431070000000 1.0
C      1  0.5529690000000  0.5639480000000  0.5014420000000 1.0
C      1  0.4497120000000  0.4355750000000  0.4922760000000 1.0
C      1  0.4620690000000  0.5793110000000  0.5055410000000 1.0
C      1  0.5461410000000  0.4205330000000  0.5004830000000 1.0
C      1  0.4942130000000  0.5130700000000  0.4753840000000 1.0
C      1  0.4959590000000  0.4941640000000  0.5370780000000 1.0
C      1  0.4687270000000  0.4381430000000  0.4666110000000 1.0
C      1  0.5335520000000  0.5689200000000  0.5290270000000 1.0
C      1  0.4861390000000  0.4700630000000  0.4500310000000 1.0
C      1  0.5231080000000  0.5404240000000  0.5557040000000 1.0
C      1  0.4828190000000  0.4993860000000  0.5756200000000 1.0
C      1  0.5177850000000  0.4960590000000  0.4247920000000 1.0
C      1  0.5127730000000  0.5600350000000  0.5074100000000 1.0
C      1  0.4918280000000  0.4387680000000  0.5031610000000 1.0
C      1  0.5516670000000  0.5568620000000  0.5551530000000 1.0
C      1  0.4541190000000  0.4377440000000  0.4359100000000 1.0
C      1  0.5259110000000  0.5360430000000  0.4925490000000 1.0
C      1  0.4728360000000  0.4671510000000  0.5003180000000 1.0
C      1  0.5162110000000  0.4694550000000  0.4953930000000 1.0
C      1  0.4754000000000  0.5171310000000  0.5104360000000 1.0
C      1  0.5596720000000  0.4445670000000  0.5105650000000 1.0
C      1  0.4442540000000  0.5575110000000  0.4943670000000 1.0
C      1  0.5385560000000  0.5671430000000  0.4708180000000 1.0
C      1  0.4590790000000  0.4278910000000  0.5230010000000 1.0
C      1  0.5368250000000  0.4620840000000  0.4704340000000 1.0
C      1  0.4605790000000  0.5340530000000  0.5366620000000 1.0
C      1  0.5561520000000  0.4676060000000  0.4943070000000 1.0
C      1  0.4393820000000  0.5342990000000  0.5100700000000 1.0
C      1  0.5413500000000  0.5153530000000  0.5149510000000 1.0
C      1  0.4518080000000  0.4863200000000  0.4816670000000 1.0
C      1  0.4421810000000  0.4622440000000  0.5119750000000 1.0
C      1  0.5566030000000  0.5390280000000  0.4785880000000 1.0
C      1  0.5194570000000  0.4191090000000  0.5072060000000 1.0
C      1  0.4888890000000  0.5804930000000  0.4944640000000 1.0
C      1  0.5026640000000  0.5169050000000  0.4336860000000 1.0
C      1  0.5054430000000  0.4814930000000  0.5737410000000 1.0
C      1  0.4984750000000  0.4519380000000  0.4738650000000 1.0
C      1  0.4848500000000  0.5489040000000  0.5180440000000 1.0
C      1  0.4614120000000  0.4620300000000  0.5758700000000 1.0
C      1  0.5421560000000  0.5394790000000  0.4374050000000 1.0
C      1  0.4743110000000  0.5166820000000  0.4375800000000 1.0
C      1  0.5293210000000  0.4889560000000  0.5622340000000 1.0
C      1  0.4686320000000  0.5509630000000  0.5628990000000 1.0
C      1  0.5413190000000  0.4410230000000  0.4447840000000 1.0
C      1  0.5659180000000  0.5103060000000  0.4748070000000 1.0
C      1  0.4305990000000  0.4853570000000  0.5217290000000 1.0
C      1  0.4728160000000  0.4944230000000  0.4595160000000 1.0
C      1  0.5241210000000  0.5126650000000  0.5418080000000 1.0
C      1  0.5627230000000  0.5001600000000  0.4487840000000 1.0
C      1  0.4387790000000  0.4908270000000  0.5480420000000 1.0
C      1  0.4368480000000  0.4728150000000  0.5694820000000 1.0
C      1  0.5616700000000  0.5215090000000  0.4305410000000 1.0
C      1  0.5461240000000  0.4486330000000  0.5403930000000 1.0
C      1  0.4609860000000  0.5554510000000  0.4648220000000 1.0
C      1  0.5176110000000  0.5322020000000  0.4597870000000 1.0
C      1  0.4840070000000  0.4661860000000  0.5533810000000 1.0
C      1  0.5116400000000  0.5648840000000  0.4580410000000 1.0
C      1  0.4837800000000  0.4417520000000  0.5360640000000 1.0
C      1  0.4789530000000  0.5398110000000  0.4860030000000 1.0
C      1  0.5230730000000  0.4567740000000  0.5198850000000 1.0
C      1  0.5143360000000  0.4305480000000  0.5371620000000 1.0
C      1  0.4876350000000  0.5739160000000  0.4670340000000 1.0
C      1  0.4952670000000  0.4925550000000  0.5031090000000 1.0
END
