TITL C-2622958-629-829 0.0011377215858859 125000 -773.502704565217 0 0 143 (C1) n - 1
REM
REM in /nfs/bkarasulu/CARBON/AIRSS/Generating-Clusters/AIREBO/with-SteepDescent/Higher-Symm/SD-CG/HFTN-CG
REM
REM
REM
REM
REM
REM ./C.cell (b20cbc046b6831c77cfcea5457e17084)
REM
REM compiler GCC version 9.2.1 20190827 (Red Hat 9.2.1-1)
REM options -cpp -mtune=generic -march=x86-64 -g -O0 -fpre-include=/usr/include/finclude/math-vector-fortran.h
REM seed 1351570932 46973778 1939448447 -163554132 -1068546473 -1068720250 1589275463 1596520195 -634257580 -1304945539 1297090055 -944416290 -1076001897 -1793436822 1615208590 845123526 1903137943 -1454556180 -1669510593 569813193 225843208 1207873086 -1112955214 2222339 409422243 -1931068034 1661805310 1303190638 473037136 79691321 -1084689410 58964848 1566807094
REM
CELL 1.54180   50.00000   50.00000   50.00000   90.00000   90.00000   90.00000
LATT -1
SFAC C  
C      1  0.5120650000000  0.4330460000000  0.4966620000000 1.0
C      1  0.4453030000000  0.5083680000000  0.5206020000000 1.0
C      1  0.5079280000000  0.5306380000000  0.4440570000000 1.0
C      1  0.4783670000000  0.5619820000000  0.5080140000000 1.0
C      1  0.5115470000000  0.5664310000000  0.5019380000000 1.0
C      1  0.4788120000000  0.4315860000000  0.5040110000000 1.0
C      1  0.5574570000000  0.4962310000000  0.5165880000000 1.0
C      1  0.4388180000000  0.5029130000000  0.4869240000000 1.0
C      1  0.5691530000000  0.4967260000000  0.4841670000000 1.0
C      1  0.5002380000000  0.4714640000000  0.4376690000000 1.0
C      1  0.5032750000000  0.4686780000000  0.5551000000000 1.0
C      1  0.4963030000000  0.5366130000000  0.5615280000000 1.0
C      1  0.4471180000000  0.5403860000000  0.5319620000000 1.0
C      1  0.5422720000000  0.5272700000000  0.4401290000000 1.0
C      1  0.5309040000000  0.4280140000000  0.5448450000000 1.0
C      1  0.5581630000000  0.4649150000000  0.5298870000000 1.0
C      1  0.4350810000000  0.4698250000000  0.4796860000000 1.0
C      1  0.5645230000000  0.5477330000000  0.4511930000000 1.0
C      1  0.4491030000000  0.4558970000000  0.4285630000000 1.0
C      1  0.5359440000000  0.4589980000000  0.5550140000000 1.0
C      1  0.4628460000000  0.5428040000000  0.5620250000000 1.0
C      1  0.4647740000000  0.5687160000000  0.5384570000000 1.0
C      1  0.5202820000000  0.5695310000000  0.4696160000000 1.0
C      1  0.4643130000000  0.4347720000000  0.4464700000000 1.0
C      1  0.4764330000000  0.4865280000000  0.5917970000000 1.0
C      1  0.4849810000000  0.5861660000000  0.4770830000000 1.0
C      1  0.5913800000000  0.4689330000000  0.5024260000000 1.0
C      1  0.5204650000000  0.5182780000000  0.5884480000000 1.0
C      1  0.4851110000000  0.5164370000000  0.4100500000000 1.0
C      1  0.5347270000000  0.4853760000000  0.4074230000000 1.0
C      1  0.5001310000000  0.3957640000000  0.4640690000000 1.0
C      1  0.4972020000000  0.4039230000000  0.5262220000000 1.0
C      1  0.5157040000000  0.5963960000000  0.5272910000000 1.0
C      1  0.4129210000000  0.5290590000000  0.5048420000000 1.0
C      1  0.5903200000000  0.5224480000000  0.5092350000000 1.0
C      1  0.4217050000000  0.4767280000000  0.5163710000000 1.0
C      1  0.5915120000000  0.5535100000000  0.4311740000000 1.0
C      1  0.5163840000000  0.4335560000000  0.5949480000000 1.0
C      1  0.4364580000000  0.5911060000000  0.5101530000000 1.0
C      1  0.4352070000000  0.4771420000000  0.4405500000000 1.0
C      1  0.5773830000000  0.4926630000000  0.5510750000000 1.0
C      1  0.4375820000000  0.5191680000000  0.5634070000000 1.0
C      1  0.4867690000000  0.5731610000000  0.5908760000000 1.0
C      1  0.5188580000000  0.5680600000000  0.4213180000000 1.0
C      1  0.4853990000000  0.4310690000000  0.4062500000000 1.0
C      1  0.5563210000000  0.4140470000000  0.5270560000000 1.0
C      1  0.4449900000000  0.4263840000000  0.4732070000000 1.0
C      1  0.5593970000000  0.5663890000000  0.4738610000000 1.0
C      1  0.5447300000000  0.5587320000000  0.5025750000000 1.0
C      1  0.5514840000000  0.5098020000000  0.5471980000000 1.0
C      1  0.5074560000000  0.5652800000000  0.5693400000000 1.0
C      1  0.4491910000000  0.4463920000000  0.4999100000000 1.0
C      1  0.5581940000000  0.4388040000000  0.5068940000000 1.0
C      1  0.4485550000000  0.5681890000000  0.4928270000000 1.0
C      1  0.4485770000000  0.4920620000000  0.5502760000000 1.0
C      1  0.5551620000000  0.4985070000000  0.4531550000000 1.0
C      1  0.4480690000000  0.5037960000000  0.4540360000000 1.0
C      1  0.5041320000000  0.4360480000000  0.5642190000000 1.0
C      1  0.4966780000000  0.4396340000000  0.4371720000000 1.0
C      1  0.4972280000000  0.5621320000000  0.4460160000000 1.0
C      1  0.4850510000000  0.5521570000000  0.4761560000000 1.0
C      1  0.5597470000000  0.4666670000000  0.4901510000000 1.0
C      1  0.4802370000000  0.4865780000000  0.5614000000000 1.0
C      1  0.4976130000000  0.4286690000000  0.4689680000000 1.0
C      1  0.4944830000000  0.4375400000000  0.5316470000000 1.0
C      1  0.5093420000000  0.5639560000000  0.5355220000000 1.0
C      1  0.4416960000000  0.5363220000000  0.4925670000000 1.0
C      1  0.5569960000000  0.5286890000000  0.5061860000000 1.0
C      1  0.4555220000000  0.4773470000000  0.5124700000000 1.0
C      1  0.5199620000000  0.5126210000000  0.5567690000000 1.0
C      1  0.4792320000000  0.5123780000000  0.4432990000000 1.0
C      1  0.5265210000000  0.4869910000000  0.4388800000000 1.0
C      1  0.5907300000000  0.4421430000000  0.4839970000000 1.0
C      1  0.4546310000000  0.4697340000000  0.5940990000000 1.0
C      1  0.4755170000000  0.5949970000000  0.4528630000000 1.0
C      1  0.4068770000000  0.5492450000000  0.4780710000000 1.0
C      1  0.5892000000000  0.5517160000000  0.5214710000000 1.0
C      1  0.4137320000000  0.4522180000000  0.5249660000000 1.0
C      1  0.5454080000000  0.5295880000000  0.5918880000000 1.0
C      1  0.4550080000000  0.5248870000000  0.4100330000000 1.0
C      1  0.5582790000000  0.4711560000000  0.4122260000000 1.0
C      1  0.5245210000000  0.4008510000000  0.4443890000000 1.0
C      1  0.4752560000000  0.4002550000000  0.5485260000000 1.0
C      1  0.5338910000000  0.6011260000000  0.5516340000000 1.0
C      1  0.5653970000000  0.4308980000000  0.4742790000000 1.0
C      1  0.4444750000000  0.4646410000000  0.5676970000000 1.0
C      1  0.4661590000000  0.5720350000000  0.4360290000000 1.0
C      1  0.4288860000000  0.5629580000000  0.4663000000000 1.0
C      1  0.5644530000000  0.5615120000000  0.5277250000000 1.0
C      1  0.4371040000000  0.4355400000000  0.5298050000000 1.0
C      1  0.5572770000000  0.5343390000000  0.5664420000000 1.0
C      1  0.4441150000000  0.5294410000000  0.4346610000000 1.0
C      1  0.5610130000000  0.4671560000000  0.4407710000000 1.0
C      1  0.5286510000000  0.4283480000000  0.4399080000000 1.0
C      1  0.4722690000000  0.4243440000000  0.5621400000000 1.0
C      1  0.5360540000000  0.5769250000000  0.5642110000000 1.0
C      1  0.4682180000000  0.4563560000000  0.4063400000000 1.0
C      1  0.4673170000000  0.4040180000000  0.4606640000000 1.0
C      1  0.4116430000000  0.4731600000000  0.4607060000000 1.0
C      1  0.5300040000000  0.5436940000000  0.4135200000000 1.0
C      1  0.4682690000000  0.5524080000000  0.5931980000000 1.0
C      1  0.5255650000000  0.4607060000000  0.5872320000000 1.0
C      1  0.5401900000000  0.5908670000000  0.4792450000000 1.0
C      1  0.4549830000000  0.5965410000000  0.5299460000000 1.0
C      1  0.5286150000000  0.3955450000000  0.5361760000000 1.0
C      1  0.5933180000000  0.5311410000000  0.4529780000000 1.0
C      1  0.4160080000000  0.5285090000000  0.5388390000000 1.0
C      1  0.5909070000000  0.4657820000000  0.5352460000000 1.0
C      1  0.4937100000000  0.5349960000000  0.5219130000000 1.0
C      1  0.5336550000000  0.5137050000000  0.4897130000000 1.0
C      1  0.5138360000000  0.4895110000000  0.5334140000000 1.0
C      1  0.5132790000000  0.4606870000000  0.5152800000000 1.0
C      1  0.4889000000000  0.4581570000000  0.4761660000000 1.0
C      1  0.5027390000000  0.5267030000000  0.4840890000000 1.0
C      1  0.4799410000000  0.4848980000000  0.4939680000000 1.0
C      1  0.5321580000000  0.4819280000000  0.4989390000000 1.0
C      1  0.4688560000000  0.5238320000000  0.5015700000000 1.0
C      1  0.4820730000000  0.5126610000000  0.5447730000000 1.0
C      1  0.5172570000000  0.5060790000000  0.4623640000000 1.0
C      1  0.4831200000000  0.4856080000000  0.4598880000000 1.0
C      1  0.6006800000000  0.4978660000000  0.5288070000000 1.0
C      1  0.4752940000000  0.5322450000000  0.6104400000000 1.0
C      1  0.5285010000000  0.6070970000000  0.4982050000000 1.0
C      1  0.3867340000000  0.5138350000000  0.5296760000000 1.0
C      1  0.5950440000000  0.5119540000000  0.4710020000000 1.0
C      1  0.3917750000000  0.4869340000000  0.4761780000000 1.0
C      1  0.5149410000000  0.4814170000000  0.6006700000000 1.0
C      1  0.4876700000000  0.4767290000000  0.4095060000000 1.0
C      1  0.5135690000000  0.5281310000000  0.3974380000000 1.0
C      1  0.4745910000000  0.4029870000000  0.4933310000000 1.0
C      1  0.5305440000000  0.4096900000000  0.5053150000000 1.0
C      1  0.4745580000000  0.6139120000000  0.5224120000000 1.0
C      1  0.4946020000000  0.5084460000000  0.6042890000000 1.0
C      1  0.4954530000000  0.6030200000000  0.5007940000000 1.0
C      1  0.6071760000000  0.4959920000000  0.4959910000000 1.0
C      1  0.5081680000000  0.4959060000000  0.3954060000000 1.0
C      1  0.5050110000000  0.3894890000000  0.4964120000000 1.0
C      1  0.4022330000000  0.4972790000000  0.5043380000000 1.0
C      1  0.4501040000000  0.4400790000000  0.5548210000000 1.0
C      1  0.5552010000000  0.5592190000000  0.5543350000000 1.0
C      1  0.5520260000000  0.4413040000000  0.4509840000000 1.0
C      1  0.4437600000000  0.5561690000000  0.4432920000000 1.0
C      1  0.5006970000000  0.5041260000000  0.5094380000000 1.0
END
