TITL C-2622964-2985-825 0.00201743916943878 125000 -414.41119562874 0 0 83 (C1) n - 1
REM
REM in /nfs/bkarasulu/CARBON/AIRSS/Generating-Clusters/AIREBO/with-SteepDescent/Higher-Symm/SD-CG/HFTN-CG
REM
REM
REM
REM
REM
REM ./C.cell (b20cbc046b6831c77cfcea5457e17084)
REM
REM compiler GCC version 9.2.1 20190827 (Red Hat 9.2.1-1)
REM options -cpp -mtune=generic -march=x86-64 -g -O0 -fpre-include=/usr/include/finclude/math-vector-fortran.h
REM seed 1918409044 90616018 220078625 -1905671540 -654083637 1348961200 1615978301 1305403265 2040283076 1163235809 1059123111 343384342 -343813070 1910869306 -1035539067 872939239 516309959 -1177754911 -187488993 2060739443 2046351773 579462286 1448752604 1476719087 -685741173 447761697 -1292137323 -1638346667 -9108166 1061461699 1069573981 114236579 842448605
REM
CELL 1.54180   50.00000   50.00000   50.00000   90.00000   90.00000   90.00000
LATT -1
SFAC C  
C      1  0.5495170000000  0.4601840000000  0.5197970000000 1.0
C      1  0.5503000000000  0.4694090000000  0.4599770000000 1.0
C      1  0.5520820000000  0.5250740000000  0.4583380000000 1.0
C      1  0.5571460000000  0.5507590000000  0.5079850000000 1.0
C      1  0.5518110000000  0.5038600000000  0.5410760000000 1.0
C      1  0.4515360000000  0.4428860000000  0.5396140000000 1.0
C      1  0.4533880000000  0.4429180000000  0.4587770000000 1.0
C      1  0.4534750000000  0.5216770000000  0.4326960000000 1.0
C      1  0.4529780000000  0.5703260000000  0.4992030000000 1.0
C      1  0.4507320000000  0.5198290000000  0.5661470000000 1.0
C      1  0.4519470000000  0.4804430000000  0.4830780000000 1.0
C      1  0.4499990000000  0.5104590000000  0.4761690000000 1.0
C      1  0.4509630000000  0.5250730000000  0.5033300000000 1.0
C      1  0.4524710000000  0.5046630000000  0.5256620000000 1.0
C      1  0.4523260000000  0.4770680000000  0.5134250000000 1.0
C      1  0.4815980000000  0.4204250000000  0.4947420000000 1.0
C      1  0.4820770000000  0.4798360000000  0.4239050000000 1.0
C      1  0.4825800000000  0.5660050000000  0.4592450000000 1.0
C      1  0.4772530000000  0.5612070000000  0.5533060000000 1.0
C      1  0.4804400000000  0.4684610000000  0.5746410000000 1.0
C      1  0.5739550000000  0.5279860000000  0.5182380000000 1.0
C      1  0.5752570000000  0.4893640000000  0.5288710000000 1.0
C      1  0.5646160000000  0.4675160000000  0.4972520000000 1.0
C      1  0.5710260000000  0.4908270000000  0.4656940000000 1.0
C      1  0.5740290000000  0.5286180000000  0.4784330000000 1.0
C      1  0.4347910000000  0.4451510000000  0.4884570000000 1.0
C      1  0.4341330000000  0.4943530000000  0.4436330000000 1.0
C      1  0.4349000000000  0.5499480000000  0.4769480000000 1.0
C      1  0.4330650000000  0.5360840000000  0.5401050000000 1.0
C      1  0.4342200000000  0.4719800000000  0.5483630000000 1.0
C      1  0.4804910000000  0.4535640000000  0.4456850000000 1.0
C      1  0.4809490000000  0.5370280000000  0.4415240000000 1.0
C      1  0.4784950000000  0.5680210000000  0.5199640000000 1.0
C      1  0.4773320000000  0.5023630000000  0.5762270000000 1.0
C      1  0.4784770000000  0.4318320000000  0.5267420000000 1.0
C      1  0.5531350000000  0.4464040000000  0.4779030000000 1.0
C      1  0.5569260000000  0.5030220000000  0.4395600000000 1.0
C      1  0.5604760000000  0.5581600000000  0.4787200000000 1.0
C      1  0.5545880000000  0.5325330000000  0.5434430000000 1.0
C      1  0.5609500000000  0.4657420000000  0.5472980000000 1.0
C      1  0.4863160000000  0.4405830000000  0.5590090000000 1.0
C      1  0.4906810000000  0.4272800000000  0.4649440000000 1.0
C      1  0.4911380000000  0.5112170000000  0.4217620000000 1.0
C      1  0.4921230000000  0.5759050000000  0.4905490000000 1.0
C      1  0.4860950000000  0.5356550000000  0.5739330000000 1.0
C      1  0.5114310000000  0.5521040000000  0.4478130000000 1.0
C      1  0.5063960000000  0.5677130000000  0.5394050000000 1.0
C      1  0.5077090000000  0.4879470000000  0.5710790000000 1.0
C      1  0.5078870000000  0.4185760000000  0.5159820000000 1.0
C      1  0.5099930000000  0.4617200000000  0.4308800000000 1.0
C      1  0.4678810000000  0.4724520000000  0.5435100000000 1.0
C      1  0.4683450000000  0.4507270000000  0.4883020000000 1.0
C      1  0.4674990000000  0.4959970000000  0.4500260000000 1.0
C      1  0.4682530000000  0.5454080000000  0.4818210000000 1.0
C      1  0.4668920000000  0.5326850000000  0.5391310000000 1.0
C      1  0.4915940000000  0.5253220000000  0.4781660000000 1.0
C      1  0.4928590000000  0.5307610000000  0.5176570000000 1.0
C      1  0.4913680000000  0.4950540000000  0.5355420000000 1.0
C      1  0.4933970000000  0.4673520000000  0.5018090000000 1.0
C      1  0.4934080000000  0.4931200000000  0.4689370000000 1.0
C      1  0.5248160000000  0.5414830000000  0.5129920000000 1.0
C      1  0.5237900000000  0.4926540000000  0.5297210000000 1.0
C      1  0.5190990000000  0.4563610000000  0.5136350000000 1.0
C      1  0.5196050000000  0.4817510000000  0.4638320000000 1.0
C      1  0.5247100000000  0.5215240000000  0.4757380000000 1.0
C      1  0.5257340000000  0.5429490000000  0.5463620000000 1.0
C      1  0.5281090000000  0.4681130000000  0.5524630000000 1.0
C      1  0.5253810000000  0.4329200000000  0.4905300000000 1.0
C      1  0.5295890000000  0.4894790000000  0.4322620000000 1.0
C      1  0.5335640000000  0.5630020000000  0.4682200000000 1.0
C      1  0.4280930000000  0.4539180000000  0.5191600000000 1.0
C      1  0.4297500000000  0.4665160000000  0.4615080000000 1.0
C      1  0.4287510000000  0.5266160000000  0.4551100000000 1.0
C      1  0.4286660000000  0.5496120000000  0.5108610000000 1.0
C      1  0.4273970000000  0.5030980000000  0.5485750000000 1.0
C      1  0.5190510000000  0.5671650000000  0.4926710000000 1.0
C      1  0.5071880000000  0.5181800000000  0.5555060000000 1.0
C      1  0.5141490000000  0.4397660000000  0.5419850000000 1.0
C      1  0.5166410000000  0.4483560000000  0.4615130000000 1.0
C      1  0.5159610000000  0.5187010000000  0.4430870000000 1.0
C      1  0.5357770000000  0.5104130000000  0.5045760000000 1.0
C      1  0.5678870000000  0.5013860000000  0.4978960000000 1.0
C      1  0.4908390000000  0.5006340000000  0.5020070000000 1.0
END
