TITL C-2622968-4806-557 -0.00392807591834863 125000 -1046.60661140977 0 0 192 (C1) n - 1
REM
REM in /nfs/bkarasulu/CARBON/AIRSS/Generating-Clusters/AIREBO/with-SteepDescent/Higher-Symm/SD-CG/HFTN-CG
REM
REM
REM
REM
REM
REM ./C.cell (b20cbc046b6831c77cfcea5457e17084)
REM
REM compiler GCC version 9.2.1 20190827 (Red Hat 9.2.1-1)
REM options -cpp -mtune=generic -march=x86-64 -g -O0 -fpre-include=/usr/include/finclude/math-vector-fortran.h
REM seed 1322510999 1420799655 -41816800 668720215 293208411 2088804585 -994174732 -1410059264 1678554165 276201980 1640955761 -1131758908 -1776227414 -1080690106 -1561456761 -628286236 540661523 -1693334455 -64279881 -318851133 -1540877621 -996520439 -515775066 -638380455 -378816106 -1056472358 -1407310382 -366118834 671928372 -371271859 275428640 -1769927142 1731112877
REM
CELL 1.54180   50.00000   50.00000   50.00000   90.00000   90.00000   90.00000
LATT -1
SFAC C  
C      1  0.4892030000000  0.5724610000000  0.5137190000000 1.0
C      1  0.4851290000000  0.5228650000000  0.4430060000000 1.0
C      1  0.4908280000000  0.4475740000000  0.4614040000000 1.0
C      1  0.4795450000000  0.4347390000000  0.5390340000000 1.0
C      1  0.4921200000000  0.5097230000000  0.5606670000000 1.0
C      1  0.4547300000000  0.4115900000000  0.4524430000000 1.0
C      1  0.4534700000000  0.4141200000000  0.5611770000000 1.0
C      1  0.4589360000000  0.5408830000000  0.5982440000000 1.0
C      1  0.4660240000000  0.6036960000000  0.4843070000000 1.0
C      1  0.4623190000000  0.5198920000000  0.4023650000000 1.0
C      1  0.4835670000000  0.5495950000000  0.5382440000000 1.0
C      1  0.4918750000000  0.5465730000000  0.4664000000000 1.0
C      1  0.4879050000000  0.4771850000000  0.4556110000000 1.0
C      1  0.4870940000000  0.4408920000000  0.5064470000000 1.0
C      1  0.5011270000000  0.4776220000000  0.5599030000000 1.0
C      1  0.4370800000000  0.5292180000000  0.5157610000000 1.0
C      1  0.4371180000000  0.5286170000000  0.4826620000000 1.0
C      1  0.4368640000000  0.4975220000000  0.4753370000000 1.0
C      1  0.4386540000000  0.4670580000000  0.5172650000000 1.0
C      1  0.4428460000000  0.4988990000000  0.5409070000000 1.0
C      1  0.5066170000000  0.5375450000000  0.3931520000000 1.0
C      1  0.5098050000000  0.4156340000000  0.4272080000000 1.0
C      1  0.5020860000000  0.3944870000000  0.5735710000000 1.0
C      1  0.5072750000000  0.5271940000000  0.6048210000000 1.0
C      1  0.5081250000000  0.6207600000000  0.5034680000000 1.0
C      1  0.4094480000000  0.4560260000000  0.5146890000000 1.0
C      1  0.4092160000000  0.4976420000000  0.5463730000000 1.0
C      1  0.4100480000000  0.5422280000000  0.5219050000000 1.0
C      1  0.4092950000000  0.5354110000000  0.4686130000000 1.0
C      1  0.4152900000000  0.4800840000000  0.4618990000000 1.0
C      1  0.5301840000000  0.5308590000000  0.4628680000000 1.0
C      1  0.5506680000000  0.4733420000000  0.4624740000000 1.0
C      1  0.5521970000000  0.4681950000000  0.5166670000000 1.0
C      1  0.5349490000000  0.4916930000000  0.5438830000000 1.0
C      1  0.5457410000000  0.5351560000000  0.5062940000000 1.0
C      1  0.5102750000000  0.3994820000000  0.5420830000000 1.0
C      1  0.4997730000000  0.5018590000000  0.5916330000000 1.0
C      1  0.5029480000000  0.5992900000000  0.5249640000000 1.0
C      1  0.5019860000000  0.5626500000000  0.4039990000000 1.0
C      1  0.5077940000000  0.4328430000000  0.4061840000000 1.0
C      1  0.4497640000000  0.4293000000000  0.5235420000000 1.0
C      1  0.4435100000000  0.5114190000000  0.5725150000000 1.0
C      1  0.4556600000000  0.5706030000000  0.5191430000000 1.0
C      1  0.4558150000000  0.5392620000000  0.4482880000000 1.0
C      1  0.4612640000000  0.4499780000000  0.4447160000000 1.0
C      1  0.5072000000000  0.5628250000000  0.5889240000000 1.0
C      1  0.5205190000000  0.5980870000000  0.4743910000000 1.0
C      1  0.5106100000000  0.4992260000000  0.4038140000000 1.0
C      1  0.5130850000000  0.4043120000000  0.4644460000000 1.0
C      1  0.5144050000000  0.4317290000000  0.5813380000000 1.0
C      1  0.4615410000000  0.6013040000000  0.5122260000000 1.0
C      1  0.4605910000000  0.5423860000000  0.4182580000000 1.0
C      1  0.4601490000000  0.4266810000000  0.4223010000000 1.0
C      1  0.4581140000000  0.4001190000000  0.5350220000000 1.0
C      1  0.4535660000000  0.5123250000000  0.6012240000000 1.0
C      1  0.5065100000000  0.4532850000000  0.5391900000000 1.0
C      1  0.5084870000000  0.5284210000000  0.5414440000000 1.0
C      1  0.5071850000000  0.5616530000000  0.4915300000000 1.0
C      1  0.5073080000000  0.4969890000000  0.4375980000000 1.0
C      1  0.5114390000000  0.4483160000000  0.4884140000000 1.0
C      1  0.5354310000000  0.3909380000000  0.5262250000000 1.0
C      1  0.5233060000000  0.4837010000000  0.5936130000000 1.0
C      1  0.5272260000000  0.5972450000000  0.5421210000000 1.0
C      1  0.5258840000000  0.5712430000000  0.4161670000000 1.0
C      1  0.5301690000000  0.4465710000000  0.3971090000000 1.0
C      1  0.4594620000000  0.5817570000000  0.5694870000000 1.0
C      1  0.4715830000000  0.5802550000000  0.4422260000000 1.0
C      1  0.4601760000000  0.4719500000000  0.3946730000000 1.0
C      1  0.4650340000000  0.4020720000000  0.4973850000000 1.0
C      1  0.4651280000000  0.4653060000000  0.5932120000000 1.0
C      1  0.4860780000000  0.4174080000000  0.4509440000000 1.0
C      1  0.4834510000000  0.4223950000000  0.5707070000000 1.0
C      1  0.4843780000000  0.5482630000000  0.6060230000000 1.0
C      1  0.4908570000000  0.6142490000000  0.4783430000000 1.0
C      1  0.4860490000000  0.5176450000000  0.3892000000000 1.0
C      1  0.5182440000000  0.5170290000000  0.5148530000000 1.0
C      1  0.5112470000000  0.5169910000000  0.4847100000000 1.0
C      1  0.5229260000000  0.4923140000000  0.4676340000000 1.0
C      1  0.5223110000000  0.4735460000000  0.5026880000000 1.0
C      1  0.5050980000000  0.4885110000000  0.5279190000000 1.0
C      1  0.5570560000000  0.4154380000000  0.5512200000000 1.0
C      1  0.5604350000000  0.5281980000000  0.5984790000000 1.0
C      1  0.5672660000000  0.5981340000000  0.5118010000000 1.0
C      1  0.5625370000000  0.5372700000000  0.3993600000000 1.0
C      1  0.5650140000000  0.4223550000000  0.4260730000000 1.0
C      1  0.4216450000000  0.4235680000000  0.4569780000000 1.0
C      1  0.4316970000000  0.4320340000000  0.5626810000000 1.0
C      1  0.4145800000000  0.5383110000000  0.5787140000000 1.0
C      1  0.4230360000000  0.5862750000000  0.4882210000000 1.0
C      1  0.4188150000000  0.5122970000000  0.4177030000000 1.0
C      1  0.3913220000000  0.4779180000000  0.5063000000000 1.0
C      1  0.3897300000000  0.4990520000000  0.5249900000000 1.0
C      1  0.3883360000000  0.5243920000000  0.5117650000000 1.0
C      1  0.3894760000000  0.5185370000000  0.4833340000000 1.0
C      1  0.3926790000000  0.4897660000000  0.4804210000000 1.0
C      1  0.4133990000000  0.5311410000000  0.4360440000000 1.0
C      1  0.4126300000000  0.4489400000000  0.4484920000000 1.0
C      1  0.4138060000000  0.4336480000000  0.5402610000000 1.0
C      1  0.4038390000000  0.5130680000000  0.5750010000000 1.0
C      1  0.4165590000000  0.5737730000000  0.5113930000000 1.0
C      1  0.5804750000000  0.5024980000000  0.4229020000000 1.0
C      1  0.5947830000000  0.4210780000000  0.4900100000000 1.0
C      1  0.5866940000000  0.4677830000000  0.5781210000000 1.0
C      1  0.5829270000000  0.5415080000000  0.5623680000000 1.0
C      1  0.5882410000000  0.5680610000000  0.4613480000000 1.0
C      1  0.5417150000000  0.4415920000000  0.5993480000000 1.0
C      1  0.5369030000000  0.5798440000000  0.5872030000000 1.0
C      1  0.5448520000000  0.5999220000000  0.4521920000000 1.0
C      1  0.5393270000000  0.4916940000000  0.3869920000000 1.0
C      1  0.5411000000000  0.3884690000000  0.4758990000000 1.0
C      1  0.4979810000000  0.4110980000000  0.4941570000000 1.0
C      1  0.4937030000000  0.4585250000000  0.5844440000000 1.0
C      1  0.4921160000000  0.5738550000000  0.5605140000000 1.0
C      1  0.4982170000000  0.5787820000000  0.4573530000000 1.0
C      1  0.4925490000000  0.4734210000000  0.3909980000000 1.0
C      1  0.4494220000000  0.5787780000000  0.4681180000000 1.0
C      1  0.4464090000000  0.4929860000000  0.4149280000000 1.0
C      1  0.4441600000000  0.4236080000000  0.4824620000000 1.0
C      1  0.4423500000000  0.4612160000000  0.5724440000000 1.0
C      1  0.4442410000000  0.5523820000000  0.5697990000000 1.0
C      1  0.5594600000000  0.5647910000000  0.5707660000000 1.0
C      1  0.5656600000000  0.5802620000000  0.4521220000000 1.0
C      1  0.5635860000000  0.4887360000000  0.4033880000000 1.0
C      1  0.5669630000000  0.4066850000000  0.4812230000000 1.0
C      1  0.5641810000000  0.4578620000000  0.5949940000000 1.0
C      1  0.5374190000000  0.4147770000000  0.4431170000000 1.0
C      1  0.5257310000000  0.4279170000000  0.5511620000000 1.0
C      1  0.5329140000000  0.5402360000000  0.5888310000000 1.0
C      1  0.5360450000000  0.6013140000000  0.5027580000000 1.0
C      1  0.5317940000000  0.5258310000000  0.4063520000000 1.0
C      1  0.5429120000000  0.5147750000000  0.4366830000000 1.0
C      1  0.5569520000000  0.4339280000000  0.4633210000000 1.0
C      1  0.5472170000000  0.4534780000000  0.5447330000000 1.0
C      1  0.5436420000000  0.5389720000000  0.5568780000000 1.0
C      1  0.5438560000000  0.5683180000000  0.5001330000000 1.0
C      1  0.4733880000000  0.5006370000000  0.5259310000000 1.0
C      1  0.4708120000000  0.5316880000000  0.5122740000000 1.0
C      1  0.4806510000000  0.5186800000000  0.4824310000000 1.0
C      1  0.4673120000000  0.4871030000000  0.4797120000000 1.0
C      1  0.4714940000000  0.4709990000000  0.5093700000000 1.0
C      1  0.5159690000000  0.4577370000000  0.6101480000000 1.0
C      1  0.5171540000000  0.5953240000000  0.5688230000000 1.0
C      1  0.5210370000000  0.5908760000000  0.4358910000000 1.0
C      1  0.5220180000000  0.4684470000000  0.3810730000000 1.0
C      1  0.5224420000000  0.3880880000000  0.4995260000000 1.0
C      1  0.5371270000000  0.4814930000000  0.4323700000000 1.0
C      1  0.5340200000000  0.4287830000000  0.4878930000000 1.0
C      1  0.5400710000000  0.4738420000000  0.5676070000000 1.0
C      1  0.5225440000000  0.5577600000000  0.5402460000000 1.0
C      1  0.5331030000000  0.5605250000000  0.4695130000000 1.0
C      1  0.5646570000000  0.5024230000000  0.4592110000000 1.0
C      1  0.5612090000000  0.4580020000000  0.4869630000000 1.0
C      1  0.5637740000000  0.4958090000000  0.5322740000000 1.0
C      1  0.5586660000000  0.5265830000000  0.5337670000000 1.0
C      1  0.5631960000000  0.5220970000000  0.4835460000000 1.0
C      1  0.4242610000000  0.4848820000000  0.5734280000000 1.0
C      1  0.4320980000000  0.5614170000000  0.5392720000000 1.0
C      1  0.4293560000000  0.5568990000000  0.4515250000000 1.0
C      1  0.4358470000000  0.4697230000000  0.4368800000000 1.0
C      1  0.4221300000000  0.4254830000000  0.5083200000000 1.0
C      1  0.4868100000000  0.3969890000000  0.5230130000000 1.0
C      1  0.4727510000000  0.4920220000000  0.6031520000000 1.0
C      1  0.4743170000000  0.5968460000000  0.5428630000000 1.0
C      1  0.4757790000000  0.5665270000000  0.4169280000000 1.0
C      1  0.4786100000000  0.4446060000000  0.4029740000000 1.0
C      1  0.4549490000000  0.4555660000000  0.4765730000000 1.0
C      1  0.4549350000000  0.4578280000000  0.5432050000000 1.0
C      1  0.4644070000000  0.5288220000000  0.5558380000000 1.0
C      1  0.4571510000000  0.5543850000000  0.4905190000000 1.0
C      1  0.4674630000000  0.4966950000000  0.4401230000000 1.0
C      1  0.5866350000000  0.5414700000000  0.5285660000000 1.0
C      1  0.5862050000000  0.5359040000000  0.4626570000000 1.0
C      1  0.5871840000000  0.4801840000000  0.4479110000000 1.0
C      1  0.5867830000000  0.4488360000000  0.5051290000000 1.0
C      1  0.5882180000000  0.4894640000000  0.5526570000000 1.0
C      1  0.5737350000000  0.4510360000000  0.4387340000000 1.0
C      1  0.5690840000000  0.4335880000000  0.5273320000000 1.0
C      1  0.5782220000000  0.5115670000000  0.5748740000000 1.0
C      1  0.5725390000000  0.5675140000000  0.5185530000000 1.0
C      1  0.5707580000000  0.5337580000000  0.4321690000000 1.0
C      1  0.6027630000000  0.4943520000000  0.5237540000000 1.0
C      1  0.6024900000000  0.5208260000000  0.5119580000000 1.0
C      1  0.6027140000000  0.5171050000000  0.4830470000000 1.0
C      1  0.6014570000000  0.4887930000000  0.4772510000000 1.0
C      1  0.6015780000000  0.4752720000000  0.5027430000000 1.0
C      1  0.5568560000000  0.4908660000000  0.5913480000000 1.0
C      1  0.5503050000000  0.5755050000000  0.5400410000000 1.0
C      1  0.5474290000000  0.5576360000000  0.4387330000000 1.0
C      1  0.5517920000000  0.4592080000000  0.4151730000000 1.0
C      1  0.5512080000000  0.4135100000000  0.5105700000000 1.0
C      1  0.5446300000000  0.4974340000000  0.4933150000000 1.0
C      1  0.4384160000000  0.4971040000000  0.5072380000000 1.0
END
