TITL C-2622967-6265-109 -0.000476463183441811 125000 -876.127295039996 0 0 160 (C1) n - 1
REM
REM in /nfs/bkarasulu/CARBON/AIRSS/Generating-Clusters/AIREBO/with-SteepDescent/Higher-Symm/SD-CG/HFTN-CG
REM
REM
REM
REM
REM
REM ./C.cell (b20cbc046b6831c77cfcea5457e17084)
REM
REM compiler GCC version 9.2.1 20190827 (Red Hat 9.2.1-1)
REM options -cpp -mtune=generic -march=x86-64 -g -O0 -fpre-include=/usr/include/finclude/math-vector-fortran.h
REM seed -1662450733 557947524 -813489652 -1569427181 1363884770 1594498175 -2123622549 -997639194 -1111347185 -850536045 1172621135 932109275 948725859 1677012047 267903557 -879497129 -587995427 1155719382 -650747072 453227260 -229746354 -1867429745 2070218609 971477303 908739521 621934746 -66757083 1042932121 -1044063817 973692655 1775139715 -679609612 -1438890594
REM
CELL 1.54180   50.00000   50.00000   50.00000   90.00000   90.00000   90.00000
LATT -1
SFAC C  
C      1  0.5731270000000  0.4569860000000  0.5688290000000 1.0
C      1  0.4593170000000  0.3990440000000  0.5233560000000 1.0
C      1  0.4921530000000  0.4845900000000  0.5787220000000 1.0
C      1  0.4653470000000  0.5116900000000  0.4422760000000 1.0
C      1  0.4615090000000  0.4350880000000  0.4268360000000 1.0
C      1  0.4479570000000  0.5190270000000  0.5882220000000 1.0
C      1  0.4397630000000  0.4534730000000  0.5373580000000 1.0
C      1  0.4409040000000  0.4255790000000  0.4446220000000 1.0
C      1  0.4802010000000  0.5679920000000  0.4676630000000 1.0
C      1  0.5364240000000  0.4461150000000  0.4132050000000 1.0
C      1  0.5961890000000  0.4852200000000  0.5255080000000 1.0
C      1  0.4595570000000  0.5895370000000  0.5263260000000 1.0
C      1  0.5067600000000  0.4058570000000  0.5191070000000 1.0
C      1  0.5443970000000  0.4266180000000  0.4471740000000 1.0
C      1  0.4413700000000  0.5467400000000  0.5886830000000 1.0
C      1  0.5269570000000  0.5249690000000  0.4072290000000 1.0
C      1  0.5344230000000  0.5056730000000  0.4571120000000 1.0
C      1  0.5112880000000  0.5687900000000  0.4672520000000 1.0
C      1  0.5220910000000  0.5370860000000  0.4613860000000 1.0
C      1  0.5357530000000  0.5577490000000  0.5584570000000 1.0
C      1  0.5774060000000  0.4625530000000  0.4344140000000 1.0
C      1  0.4208240000000  0.4089450000000  0.4928170000000 1.0
C      1  0.4060560000000  0.5004620000000  0.4494620000000 1.0
C      1  0.5139140000000  0.4376190000000  0.5774290000000 1.0
C      1  0.4505490000000  0.5904900000000  0.4993160000000 1.0
C      1  0.5020260000000  0.6012210000000  0.4702640000000 1.0
C      1  0.4917330000000  0.4288790000000  0.4369040000000 1.0
C      1  0.5995730000000  0.5324170000000  0.5030980000000 1.0
C      1  0.5151400000000  0.5004110000000  0.3895040000000 1.0
C      1  0.4424640000000  0.5100900000000  0.4177480000000 1.0
C      1  0.4294550000000  0.5629650000000  0.4575060000000 1.0
C      1  0.5752750000000  0.4340730000000  0.5171180000000 1.0
C      1  0.4542870000000  0.4938470000000  0.4642530000000 1.0
C      1  0.4778380000000  0.4649380000000  0.4274420000000 1.0
C      1  0.3766060000000  0.5019880000000  0.4947990000000 1.0
C      1  0.5528920000000  0.5496750000000  0.4962860000000 1.0
C      1  0.5281860000000  0.5038350000000  0.4905010000000 1.0
C      1  0.5848540000000  0.4564580000000  0.5395490000000 1.0
C      1  0.5341000000000  0.4972530000000  0.4239530000000 1.0
C      1  0.5622310000000  0.4045760000000  0.4637590000000 1.0
C      1  0.4760270000000  0.4619560000000  0.5934530000000 1.0
C      1  0.4977760000000  0.5157220000000  0.6029240000000 1.0
C      1  0.5787160000000  0.4604510000000  0.4846070000000 1.0
C      1  0.3962240000000  0.4831670000000  0.5113130000000 1.0
C      1  0.5868630000000  0.5622540000000  0.5129750000000 1.0
C      1  0.4950540000000  0.4410230000000  0.5971380000000 1.0
C      1  0.5591490000000  0.5878220000000  0.4710380000000 1.0
C      1  0.4167450000000  0.4457450000000  0.5132760000000 1.0
C      1  0.4758780000000  0.4797560000000  0.4845020000000 1.0
C      1  0.5202400000000  0.4755720000000  0.4976960000000 1.0
C      1  0.5442530000000  0.5527350000000  0.5274560000000 1.0
C      1  0.4901990000000  0.4690180000000  0.5505520000000 1.0
C      1  0.5024400000000  0.4305220000000  0.4762050000000 1.0
C      1  0.4705850000000  0.4433530000000  0.5419840000000 1.0
C      1  0.4534260000000  0.5665730000000  0.5718490000000 1.0
C      1  0.5515040000000  0.5850810000000  0.5337310000000 1.0
C      1  0.4822690000000  0.5594770000000  0.5673460000000 1.0
C      1  0.4274530000000  0.5382670000000  0.4807890000000 1.0
C      1  0.5635950000000  0.5168300000000  0.5318700000000 1.0
C      1  0.5930970000000  0.4704310000000  0.4581040000000 1.0
C      1  0.5654780000000  0.5002050000000  0.4291160000000 1.0
C      1  0.5683550000000  0.5197110000000  0.4985590000000 1.0
C      1  0.5269160000000  0.4722650000000  0.4045290000000 1.0
C      1  0.5333030000000  0.5220060000000  0.5173060000000 1.0
C      1  0.4735850000000  0.4363280000000  0.4647060000000 1.0
C      1  0.4072120000000  0.5312610000000  0.5285070000000 1.0
C      1  0.5411320000000  0.4563990000000  0.5732560000000 1.0
C      1  0.5509840000000  0.5831110000000  0.5025280000000 1.0
C      1  0.5733400000000  0.5651020000000  0.4642170000000 1.0
C      1  0.5129710000000  0.4335890000000  0.5061620000000 1.0
C      1  0.5291900000000  0.5957660000000  0.5480240000000 1.0
C      1  0.4655750000000  0.5295540000000  0.4993800000000 1.0
C      1  0.5103220000000  0.5403090000000  0.4295090000000 1.0
C      1  0.4488810000000  0.4277930000000  0.4979230000000 1.0
C      1  0.5319730000000  0.4844160000000  0.5825020000000 1.0
C      1  0.4065810000000  0.4570750000000  0.4828350000000 1.0
C      1  0.4652070000000  0.4850800000000  0.5361930000000 1.0
C      1  0.5491790000000  0.4503000000000  0.4711230000000 1.0
C      1  0.4709440000000  0.5925780000000  0.4811630000000 1.0
C      1  0.4334300000000  0.5229780000000  0.5084900000000 1.0
C      1  0.5549610000000  0.4044430000000  0.4901060000000 1.0
C      1  0.5013570000000  0.4309180000000  0.5493620000000 1.0
C      1  0.4995900000000  0.5447630000000  0.5127430000000 1.0
C      1  0.5939470000000  0.5104650000000  0.5463070000000 1.0
C      1  0.4174560000000  0.4913990000000  0.4259000000000 1.0
C      1  0.4250430000000  0.4829110000000  0.4941250000000 1.0
C      1  0.4641960000000  0.5188010000000  0.5319170000000 1.0
C      1  0.5102270000000  0.4876170000000  0.6073850000000 1.0
C      1  0.4828880000000  0.5360140000000  0.4098460000000 1.0
C      1  0.5040450000000  0.5172490000000  0.5322270000000 1.0
C      1  0.5939590000000  0.5584940000000  0.4819420000000 1.0
C      1  0.4232190000000  0.4476950000000  0.4585390000000 1.0
C      1  0.4306410000000  0.4167630000000  0.5244170000000 1.0
C      1  0.5543600000000  0.4784640000000  0.4527810000000 1.0
C      1  0.4883510000000  0.4937980000000  0.5128550000000 1.0
C      1  0.5527480000000  0.3831990000000  0.5071640000000 1.0
C      1  0.4828800000000  0.4058700000000  0.5356400000000 1.0
C      1  0.5215390000000  0.5580970000000  0.4951310000000 1.0
C      1  0.4415910000000  0.5806150000000  0.5502340000000 1.0
C      1  0.4300250000000  0.5627850000000  0.5282420000000 1.0
C      1  0.5706320000000  0.4883480000000  0.5587920000000 1.0
C      1  0.4763990000000  0.5138120000000  0.5803750000000 1.0
C      1  0.5466110000000  0.4348490000000  0.5013320000000 1.0
C      1  0.4583270000000  0.5498960000000  0.5242930000000 1.0
C      1  0.4531170000000  0.5389460000000  0.4157940000000 1.0
C      1  0.5921710000000  0.4961200000000  0.4728140000000 1.0
C      1  0.4485920000000  0.4782070000000  0.4281900000000 1.0
C      1  0.5563430000000  0.5427750000000  0.4538660000000 1.0
C      1  0.4823430000000  0.6034630000000  0.4444230000000 1.0
C      1  0.4941800000000  0.5667320000000  0.4156920000000 1.0
C      1  0.4341880000000  0.4954540000000  0.5859300000000 1.0
C      1  0.4409040000000  0.4788330000000  0.5584440000000 1.0
C      1  0.4943420000000  0.5329940000000  0.4807130000000 1.0
C      1  0.4038240000000  0.5575440000000  0.5072030000000 1.0
C      1  0.4909520000000  0.5064430000000  0.4207060000000 1.0
C      1  0.4093400000000  0.4686560000000  0.5372000000000 1.0
C      1  0.5802250000000  0.5687440000000  0.5418470000000 1.0
C      1  0.5430910000000  0.4837610000000  0.5442920000000 1.0
C      1  0.5071760000000  0.5756300000000  0.5536550000000 1.0
C      1  0.4717170000000  0.5379410000000  0.4561890000000 1.0
C      1  0.5652390000000  0.4858640000000  0.5005110000000 1.0
C      1  0.5844560000000  0.5411320000000  0.5575140000000 1.0
C      1  0.5009510000000  0.5609100000000  0.5934800000000 1.0
C      1  0.5313720000000  0.6005360000000  0.4807990000000 1.0
C      1  0.5166380000000  0.4303110000000  0.4276940000000 1.0
C      1  0.5553710000000  0.5383590000000  0.4044260000000 1.0
C      1  0.3884610000000  0.5277300000000  0.5005140000000 1.0
C      1  0.4944450000000  0.4782050000000  0.4049340000000 1.0
C      1  0.4170030000000  0.5008640000000  0.5288700000000 1.0
C      1  0.5640940000000  0.4406340000000  0.4232630000000 1.0
C      1  0.4267600000000  0.5062600000000  0.4728050000000 1.0
C      1  0.4858360000000  0.5693480000000  0.5289420000000 1.0
C      1  0.5272430000000  0.4520950000000  0.5429140000000 1.0
C      1  0.5607830000000  0.5708910000000  0.5696610000000 1.0
C      1  0.5185090000000  0.4107080000000  0.4624480000000 1.0
C      1  0.4493170000000  0.4673550000000  0.5892220000000 1.0
C      1  0.4531280000000  0.5606120000000  0.4395900000000 1.0
C      1  0.4971770000000  0.4612530000000  0.5181830000000 1.0
C      1  0.6004960000000  0.4555700000000  0.5093730000000 1.0
C      1  0.4510720000000  0.4757660000000  0.5061900000000 1.0
C      1  0.4522670000000  0.4615150000000  0.4576200000000 1.0
C      1  0.4286170000000  0.5714300000000  0.4894840000000 1.0
C      1  0.5161930000000  0.4584430000000  0.4724400000000 1.0
C      1  0.5604770000000  0.5201360000000  0.5653020000000 1.0
C      1  0.5433950000000  0.4653270000000  0.5160660000000 1.0
C      1  0.5026130000000  0.4988130000000  0.4484150000000 1.0
C      1  0.4831380000000  0.5301790000000  0.5557350000000 1.0
C      1  0.4608050000000  0.3897040000000  0.4966950000000 1.0
C      1  0.4538470000000  0.4096590000000  0.4705170000000 1.0
C      1  0.3794130000000  0.4765500000000  0.4761780000000 1.0
C      1  0.5678600000000  0.5289480000000  0.4278620000000 1.0
C      1  0.5242140000000  0.5056010000000  0.5570290000000 1.0
C      1  0.5431710000000  0.4905670000000  0.6131930000000 1.0
C      1  0.5660290000000  0.5142470000000  0.4663050000000 1.0
C      1  0.6039080000000  0.5016460000000  0.4980190000000 1.0
C      1  0.4668830000000  0.4485100000000  0.5085980000000 1.0
C      1  0.5146580000000  0.5374980000000  0.5974950000000 1.0
C      1  0.5329960000000  0.5317050000000  0.5747920000000 1.0
C      1  0.4921830000000  0.4719530000000  0.4575610000000 1.0
C      1  0.4745360000000  0.5815620000000  0.4304680000000 1.0
END
