TITL C-2622964-2985-240 -0.00329116137934467 125000 -858.358598089975 0 0 160 (C1) n - 1
REM
REM in /nfs/bkarasulu/CARBON/AIRSS/Generating-Clusters/AIREBO/with-SteepDescent/Higher-Symm/SD-CG/HFTN-CG
REM
REM
REM
REM
REM
REM ./C.cell (b20cbc046b6831c77cfcea5457e17084)
REM
REM compiler GCC version 9.2.1 20190827 (Red Hat 9.2.1-1)
REM options -cpp -mtune=generic -march=x86-64 -g -O0 -fpre-include=/usr/include/finclude/math-vector-fortran.h
REM seed -45088763 2061473651 -845046242 1113122228 -939659247 2010726535 -883695173 -51941643 -271363890 -434687326 351413658 1271539776 620591301 -393182085 -1279763045 434397189 -2087687547 822277721 1961429312 -105935845 -99669102 1202358862 263884524 333277406 769727683 -577151669 1740808794 387732895 -2006113275 551254323 -1561363982 -1720748978 1794433112
REM
CELL 1.54180   50.00000   50.00000   50.00000   90.00000   90.00000   90.00000
LATT -1
SFAC C  
C      1  0.4260830000000  0.5319280000000  0.5153140000000 1.0
C      1  0.4231870000000  0.4972530000000  0.4613260000000 1.0
C      1  0.4227900000000  0.4722840000000  0.5180690000000 1.0
C      1  0.5624390000000  0.5350210000000  0.5070600000000 1.0
C      1  0.5633170000000  0.4913150000000  0.4628250000000 1.0
C      1  0.5656790000000  0.4707290000000  0.5230870000000 1.0
C      1  0.5453840000000  0.5808520000000  0.4627160000000 1.0
C      1  0.5461290000000  0.4278720000000  0.4503420000000 1.0
C      1  0.5469720000000  0.4916650000000  0.5958040000000 1.0
C      1  0.4561260000000  0.5911600000000  0.4549360000000 1.0
C      1  0.4573360000000  0.4158640000000  0.4437370000000 1.0
C      1  0.4575720000000  0.4925850000000  0.6005050000000 1.0
C      1  0.4938490000000  0.4168870000000  0.4437620000000 1.0
C      1  0.4919410000000  0.4937890000000  0.6020620000000 1.0
C      1  0.4926420000000  0.5915980000000  0.4556110000000 1.0
C      1  0.5218840000000  0.4113470000000  0.4393490000000 1.0
C      1  0.5212270000000  0.4901280000000  0.6103690000000 1.0
C      1  0.5208080000000  0.5985960000000  0.4546520000000 1.0
C      1  0.5051840000000  0.4558220000000  0.5256470000000 1.0
C      1  0.5090780000000  0.5448390000000  0.5270810000000 1.0
C      1  0.5096330000000  0.4996950000000  0.4470230000000 1.0
C      1  0.4739010000000  0.4693530000000  0.5246060000000 1.0
C      1  0.4776280000000  0.5320750000000  0.5236260000000 1.0
C      1  0.4787420000000  0.5054500000000  0.4600480000000 1.0
C      1  0.5255970000000  0.4508880000000  0.4360260000000 1.0
C      1  0.5290100000000  0.4706360000000  0.5763280000000 1.0
C      1  0.5252140000000  0.5808870000000  0.4900990000000 1.0
C      1  0.4748200000000  0.4440160000000  0.4360980000000 1.0
C      1  0.4764250000000  0.4731870000000  0.5798890000000 1.0
C      1  0.4739500000000  0.5845190000000  0.4831290000000 1.0
C      1  0.4387080000000  0.5138920000000  0.4167710000000 1.0
C      1  0.4376960000000  0.4240910000000  0.5284460000000 1.0
C      1  0.4378840000000  0.5643730000000  0.5530400000000 1.0
C      1  0.5752600000000  0.5113490000000  0.4107590000000 1.0
C      1  0.5742180000000  0.4148410000000  0.5352030000000 1.0
C      1  0.5749520000000  0.5670830000000  0.5549820000000 1.0
C      1  0.5084890000000  0.5677430000000  0.5506880000000 1.0
C      1  0.5092590000000  0.5096860000000  0.4155270000000 1.0
C      1  0.5111890000000  0.4255720000000  0.5323400000000 1.0
C      1  0.4765170000000  0.5571690000000  0.5459050000000 1.0
C      1  0.4770680000000  0.5105790000000  0.4274940000000 1.0
C      1  0.4830090000000  0.4120900000000  0.5397400000000 1.0
C      1  0.5338580000000  0.5816600000000  0.5350970000000 1.0
C      1  0.5350010000000  0.4893590000000  0.4110780000000 1.0
C      1  0.5374420000000  0.4277560000000  0.5516190000000 1.0
C      1  0.4582450000000  0.5796340000000  0.5340690000000 1.0
C      1  0.4589340000000  0.4896150000000  0.4134150000000 1.0
C      1  0.4592170000000  0.4303490000000  0.5490990000000 1.0
C      1  0.5258330000000  0.6144200000000  0.4958070000000 1.0
C      1  0.5260100000000  0.4392440000000  0.4040830000000 1.0
C      1  0.5269270000000  0.4452190000000  0.5988300000000 1.0
C      1  0.4697140000000  0.6165940000000  0.4936100000000 1.0
C      1  0.4711450000000  0.4358250000000  0.4032930000000 1.0
C      1  0.4701550000000  0.4461760000000  0.5995750000000 1.0
C      1  0.4509360000000  0.5581910000000  0.5773680000000 1.0
C      1  0.4523970000000  0.5383370000000  0.4130010000000 1.0
C      1  0.4517390000000  0.4079210000000  0.5097910000000 1.0
C      1  0.5463230000000  0.5662860000000  0.5627800000000 1.0
C      1  0.5470320000000  0.5211720000000  0.4104800000000 1.0
C      1  0.5468570000000  0.4095060000000  0.5245120000000 1.0
C      1  0.4335190000000  0.4680780000000  0.4583540000000 1.0
C      1  0.4344820000000  0.4855120000000  0.5442680000000 1.0
C      1  0.4348630000000  0.5506240000000  0.4932460000000 1.0
C      1  0.5536930000000  0.4601340000000  0.4626920000000 1.0
C      1  0.5567730000000  0.4875660000000  0.5490550000000 1.0
C      1  0.5527170000000  0.5532530000000  0.4823460000000 1.0
C      1  0.4208340000000  0.5166430000000  0.4380800000000 1.0
C      1  0.4216400000000  0.4420850000000  0.5139900000000 1.0
C      1  0.4228440000000  0.5422040000000  0.5447300000000 1.0
C      1  0.5857490000000  0.5020280000000  0.4396130000000 1.0
C      1  0.5846050000000  0.4432730000000  0.5279230000000 1.0
C      1  0.5821320000000  0.5480290000000  0.5295370000000 1.0
C      1  0.4853250000000  0.5413920000000  0.4163700000000 1.0
C      1  0.4846240000000  0.4083930000000  0.5061820000000 1.0
C      1  0.4841580000000  0.5544580000000  0.5790160000000 1.0
C      1  0.5177170000000  0.5392910000000  0.4066110000000 1.0
C      1  0.5166250000000  0.4000650000000  0.5117060000000 1.0
C      1  0.5174140000000  0.5612460000000  0.5811300000000 1.0
C      1  0.4918280000000  0.4807020000000  0.4772950000000 1.0
C      1  0.4933460000000  0.4942000000000  0.5291910000000 1.0
C      1  0.4909580000000  0.5320270000000  0.4938850000000 1.0
C      1  0.5225080000000  0.4762880000000  0.4826220000000 1.0
C      1  0.5236610000000  0.4964180000000  0.5285880000000 1.0
C      1  0.5216150000000  0.5274470000000  0.4872370000000 1.0
C      1  0.4822640000000  0.4343170000000  0.5729270000000 1.0
C      1  0.4803370000000  0.5996830000000  0.5193900000000 1.0
C      1  0.4810310000000  0.4666080000000  0.4038820000000 1.0
C      1  0.5152010000000  0.4266460000000  0.5761170000000 1.0
C      1  0.5138660000000  0.6042190000000  0.5227420000000 1.0
C      1  0.5143520000000  0.4678570000000  0.3972180000000 1.0
C      1  0.5127980000000  0.5558820000000  0.4706660000000 1.0
C      1  0.5123470000000  0.4480510000000  0.4672220000000 1.0
C      1  0.5173770000000  0.4985450000000  0.5607680000000 1.0
C      1  0.4797090000000  0.5531650000000  0.4743800000000 1.0
C      1  0.4797500000000  0.4534480000000  0.4676720000000 1.0
C      1  0.4838200000000  0.4989710000000  0.5594550000000 1.0
C      1  0.4556890000000  0.5267620000000  0.5800140000000 1.0
C      1  0.4570970000000  0.5537030000000  0.4414840000000 1.0
C      1  0.4567600000000  0.4244340000000  0.4825710000000 1.0
C      1  0.5445700000000  0.5348130000000  0.5694490000000 1.0
C      1  0.5462750000000  0.5430490000000  0.4338530000000 1.0
C      1  0.5464430000000  0.4190690000000  0.4938640000000 1.0
C      1  0.4193810000000  0.5222650000000  0.5638800000000 1.0
C      1  0.4153390000000  0.5430770000000  0.4454920000000 1.0
C      1  0.4175320000000  0.4346660000000  0.4876490000000 1.0
C      1  0.5831710000000  0.5279820000000  0.5569900000000 1.0
C      1  0.5845620000000  0.5327870000000  0.4540680000000 1.0
C      1  0.5840400000000  0.4445590000000  0.4942670000000 1.0
C      1  0.4317110000000  0.5084990000000  0.5924240000000 1.0
C      1  0.4314140000000  0.5733730000000  0.4455610000000 1.0
C      1  0.4318380000000  0.4168160000000  0.4624910000000 1.0
C      1  0.5641240000000  0.5112310000000  0.5816530000000 1.0
C      1  0.5701490000000  0.5629450000000  0.4477670000000 1.0
C      1  0.5714510000000  0.4231280000000  0.4710520000000 1.0
C      1  0.5332570000000  0.4701240000000  0.5128290000000 1.0
C      1  0.5330810000000  0.5256450000000  0.5176980000000 1.0
C      1  0.5327890000000  0.5034670000000  0.4681120000000 1.0
C      1  0.4513110000000  0.4843620000000  0.5040380000000 1.0
C      1  0.4512800000000  0.5137110000000  0.5215810000000 1.0
C      1  0.4505590000000  0.5042370000000  0.4762990000000 1.0
C      1  0.4223470000000  0.4506830000000  0.4245280000000 1.0
C      1  0.4296210000000  0.4586450000000  0.5729270000000 1.0
C      1  0.4211480000000  0.5877460000000  0.4945430000000 1.0
C      1  0.5851300000000  0.4678270000000  0.4394160000000 1.0
C      1  0.5855240000000  0.4617790000000  0.5564470000000 1.0
C      1  0.5844040000000  0.5678580000000  0.5018680000000 1.0
C      1  0.3988270000000  0.4865160000000  0.5085440000000 1.0
C      1  0.4018390000000  0.5175200000000  0.5058780000000 1.0
C      1  0.4000380000000  0.4993780000000  0.4798310000000 1.0
C      1  0.5869160000000  0.4854690000000  0.5083020000000 1.0
C      1  0.5862070000000  0.5161760000000  0.5059480000000 1.0
C      1  0.5875600000000  0.4987240000000  0.4799880000000 1.0
C      1  0.5879630000000  0.4949800000000  0.5636540000000 1.0
C      1  0.5912180000000  0.5600260000000  0.4739900000000 1.0
C      1  0.5917410000000  0.4481010000000  0.4608740000000 1.0
C      1  0.4148750000000  0.4892280000000  0.5711010000000 1.0
C      1  0.4130760000000  0.5643520000000  0.4717590000000 1.0
C      1  0.4116570000000  0.4425540000000  0.4550890000000 1.0
C      1  0.5517860000000  0.5731890000000  0.5098790000000 1.0
C      1  0.5524630000000  0.4709810000000  0.4304880000000 1.0
C      1  0.5521040000000  0.4548350000000  0.5570130000000 1.0
C      1  0.4494260000000  0.5777070000000  0.5042400000000 1.0
C      1  0.4498150000000  0.4647690000000  0.4298300000000 1.0
C      1  0.4576000000000  0.4624300000000  0.5536980000000 1.0
C      1  0.4856800000000  0.4108740000000  0.4731650000000 1.0
C      1  0.4851800000000  0.5238300000000  0.5939550000000 1.0
C      1  0.4868180000000  0.5688710000000  0.4355710000000 1.0
C      1  0.5158510000000  0.4199800000000  0.4840820000000 1.0
C      1  0.5135560000000  0.5276490000000  0.5775330000000 1.0
C      1  0.5167820000000  0.5539710000000  0.4373360000000 1.0
C      1  0.5533920000000  0.5181230000000  0.5438740000000 1.0
C      1  0.5530070000000  0.5299500000000  0.4619200000000 1.0
C      1  0.5513160000000  0.4502640000000  0.4919550000000 1.0
C      1  0.4559360000000  0.5101650000000  0.5531380000000 1.0
C      1  0.4529080000000  0.5366910000000  0.4706490000000 1.0
C      1  0.4521610000000  0.4581550000000  0.4823580000000 1.0
C      1  0.5007960000000  0.5735220000000  0.5120840000000 1.0
C      1  0.5047210000000  0.4551880000000  0.5582220000000 1.0
C      1  0.5020000000000  0.4732640000000  0.4298150000000 1.0
C      1  0.4869950000000  0.5016350000000  0.4997100000000 1.0
END
