TITL C-2622960-5345-583 -0.00254993351349168 125000 -726.113365616434 0 0 137 (C1) n - 1
REM
REM in /nfs/bkarasulu/CARBON/AIRSS/Generating-Clusters/AIREBO/with-SteepDescent/Higher-Symm/SD-CG/HFTN-CG
REM
REM
REM
REM
REM
REM ./C.cell (b20cbc046b6831c77cfcea5457e17084)
REM
REM compiler GCC version 9.2.1 20190827 (Red Hat 9.2.1-1)
REM options -cpp -mtune=generic -march=x86-64 -g -O0 -fpre-include=/usr/include/finclude/math-vector-fortran.h
REM seed -1485609066 1978448611 -475242209 -452903148 -1869487174 -947942110 1047987304 1165093886 -487195748 -358496949 -76389636 -1866736212 1860483227 -1415606996 -284366261 -380224524 119885479 -398783591 834752427 -1688778562 203692359 993793805 -739785952 -859052164 1974287711 -976922318 768906676 -973604765 -2089888214 1451576965 -942133506 419531935 1299321098
REM
CELL 1.54180   50.00000   50.00000   50.00000   90.00000   90.00000   90.00000
LATT -1
SFAC C  
C      1  0.4506870000000  0.4703220000000  0.4765100000000 1.0
C      1  0.5047870000000  0.4825160000000  0.5210160000000 1.0
C      1  0.5045340000000  0.4412280000000  0.4564180000000 1.0
C      1  0.5381000000000  0.5214940000000  0.5084680000000 1.0
C      1  0.4593580000000  0.5434490000000  0.4877230000000 1.0
C      1  0.5564550000000  0.5484650000000  0.5154060000000 1.0
C      1  0.5531850000000  0.5795590000000  0.5287830000000 1.0
C      1  0.4297090000000  0.4653490000000  0.5547120000000 1.0
C      1  0.4648190000000  0.4547420000000  0.5797560000000 1.0
C      1  0.3956000000000  0.5032750000000  0.4938390000000 1.0
C      1  0.5717610000000  0.4835440000000  0.5821870000000 1.0
C      1  0.5271810000000  0.4677930000000  0.5979470000000 1.0
C      1  0.5217510000000  0.5611680000000  0.4751260000000 1.0
C      1  0.5094280000000  0.5345190000000  0.4114850000000 1.0
C      1  0.5629950000000  0.5412110000000  0.4134990000000 1.0
C      1  0.4590840000000  0.4322530000000  0.4455420000000 1.0
C      1  0.4419800000000  0.4753100000000  0.4270110000000 1.0
C      1  0.5237350000000  0.5154300000000  0.5879910000000 1.0
C      1  0.5438240000000  0.4731990000000  0.4665440000000 1.0
C      1  0.5243140000000  0.4503500000000  0.4825410000000 1.0
C      1  0.5865480000000  0.4986530000000  0.4157880000000 1.0
C      1  0.4943950000000  0.5924790000000  0.4406430000000 1.0
C      1  0.5172510000000  0.4767180000000  0.5683910000000 1.0
C      1  0.4751610000000  0.4075700000000  0.4608150000000 1.0
C      1  0.4416180000000  0.5706900000000  0.5204820000000 1.0
C      1  0.4590240000000  0.4230980000000  0.5095030000000 1.0
C      1  0.5954700000000  0.5137620000000  0.5064790000000 1.0
C      1  0.5149600000000  0.5292320000000  0.4847770000000 1.0
C      1  0.4891560000000  0.4956710000000  0.4539260000000 1.0
C      1  0.5141410000000  0.4573100000000  0.4006210000000 1.0
C      1  0.4767020000000  0.5254320000000  0.4646830000000 1.0
C      1  0.5700960000000  0.5168900000000  0.4268320000000 1.0
C      1  0.4911160000000  0.5825930000000  0.5322270000000 1.0
C      1  0.4884580000000  0.4299710000000  0.5111520000000 1.0
C      1  0.5026620000000  0.4109220000000  0.5634620000000 1.0
C      1  0.4278080000000  0.4425320000000  0.4939050000000 1.0
C      1  0.4448030000000  0.5136890000000  0.5518560000000 1.0
C      1  0.5084670000000  0.5701660000000  0.5727270000000 1.0
C      1  0.4017930000000  0.4896610000000  0.4669980000000 1.0
C      1  0.5165620000000  0.5777700000000  0.4458910000000 1.0
C      1  0.5936550000000  0.5348500000000  0.4592110000000 1.0
C      1  0.4986330000000  0.4581550000000  0.4971020000000 1.0
C      1  0.5784920000000  0.5058190000000  0.5348460000000 1.0
C      1  0.5847890000000  0.5413470000000  0.5211960000000 1.0
C      1  0.5601960000000  0.5679870000000  0.4337780000000 1.0
C      1  0.5187920000000  0.4553030000000  0.5467510000000 1.0
C      1  0.5680660000000  0.4381460000000  0.4877020000000 1.0
C      1  0.5783720000000  0.5155950000000  0.4804040000000 1.0
C      1  0.5123000000000  0.4938380000000  0.6040480000000 1.0
C      1  0.5257670000000  0.5594810000000  0.5084090000000 1.0
C      1  0.5334580000000  0.4243470000000  0.4535600000000 1.0
C      1  0.4208410000000  0.4238250000000  0.5190440000000 1.0
C      1  0.4514880000000  0.5435460000000  0.5667880000000 1.0
C      1  0.4841620000000  0.4752020000000  0.5606810000000 1.0
C      1  0.4490660000000  0.5701780000000  0.4350980000000 1.0
C      1  0.4010990000000  0.4837490000000  0.5215260000000 1.0
C      1  0.4852520000000  0.5046710000000  0.5876330000000 1.0
C      1  0.5978670000000  0.4387440000000  0.4844370000000 1.0
C      1  0.4658170000000  0.5090260000000  0.5061550000000 1.0
C      1  0.4949310000000  0.5672780000000  0.5040670000000 1.0
C      1  0.5541290000000  0.4612680000000  0.5843480000000 1.0
C      1  0.5867660000000  0.5333650000000  0.5531580000000 1.0
C      1  0.4701830000000  0.4917580000000  0.4259820000000 1.0
C      1  0.4403580000000  0.5459000000000  0.4225850000000 1.0
C      1  0.4876440000000  0.5350710000000  0.5046580000000 1.0
C      1  0.4042900000000  0.4706190000000  0.5441320000000 1.0
C      1  0.4525950000000  0.5105770000000  0.4484600000000 1.0
C      1  0.4991210000000  0.4193470000000  0.4818730000000 1.0
C      1  0.4637970000000  0.5896380000000  0.5123000000000 1.0
C      1  0.5343610000000  0.4657210000000  0.5212010000000 1.0
C      1  0.5420100000000  0.4373850000000  0.5070710000000 1.0
C      1  0.4571980000000  0.5358840000000  0.4015070000000 1.0
C      1  0.5197410000000  0.4956160000000  0.4866410000000 1.0
C      1  0.4533270000000  0.4847980000000  0.5499780000000 1.0
C      1  0.5177610000000  0.5112790000000  0.5337610000000 1.0
C      1  0.4642970000000  0.5647510000000  0.5434900000000 1.0
C      1  0.4364180000000  0.5510950000000  0.5014440000000 1.0
C      1  0.4891190000000  0.4493080000000  0.5391150000000 1.0
C      1  0.5687500000000  0.4529130000000  0.5369570000000 1.0
C      1  0.5116920000000  0.4596240000000  0.4335560000000 1.0
C      1  0.6043770000000  0.5308610000000  0.5740240000000 1.0
C      1  0.5598920000000  0.5145530000000  0.4530350000000 1.0
C      1  0.5222770000000  0.5854020000000  0.5389400000000 1.0
C      1  0.5281320000000  0.4533440000000  0.3799130000000 1.0
C      1  0.4846990000000  0.4636370000000  0.4147690000000 1.0
C      1  0.4609170000000  0.4814620000000  0.5926700000000 1.0
C      1  0.4469600000000  0.4217420000000  0.5407970000000 1.0
C      1  0.5212460000000  0.4883820000000  0.4453620000000 1.0
C      1  0.4139890000000  0.4631600000000  0.4705380000000 1.0
C      1  0.4242950000000  0.5475520000000  0.5497440000000 1.0
C      1  0.4747110000000  0.5807740000000  0.4813280000000 1.0
C      1  0.4703200000000  0.4811370000000  0.5238530000000 1.0
C      1  0.4397950000000  0.4561910000000  0.4511390000000 1.0
C      1  0.4527520000000  0.5136670000000  0.5831890000000 1.0
C      1  0.4839390000000  0.5370930000000  0.5918770000000 1.0
C      1  0.4471400000000  0.5027670000000  0.4789590000000 1.0
C      1  0.4249830000000  0.5243420000000  0.5287400000000 1.0
C      1  0.5567150000000  0.5915190000000  0.4527250000000 1.0
C      1  0.5798900000000  0.4346770000000  0.5193920000000 1.0
C      1  0.5311080000000  0.4261550000000  0.5555840000000 1.0
C      1  0.5554860000000  0.4417050000000  0.4594900000000 1.0
C      1  0.5302130000000  0.5581440000000  0.4233940000000 1.0
C      1  0.4806210000000  0.4728770000000  0.4746750000000 1.0
C      1  0.5353010000000  0.5037280000000  0.5608410000000 1.0
C      1  0.4839450000000  0.5374140000000  0.5387290000000 1.0
C      1  0.4522010000000  0.4260870000000  0.4782670000000 1.0
C      1  0.5083180000000  0.4020110000000  0.4540740000000 1.0
C      1  0.5364860000000  0.5630510000000  0.5603340000000 1.0
C      1  0.4281840000000  0.5240110000000  0.4377380000000 1.0
C      1  0.4795480000000  0.4207750000000  0.5501180000000 1.0
C      1  0.5534350000000  0.4949400000000  0.4909000000000 1.0
C      1  0.4908020000000  0.5079360000000  0.5542300000000 1.0
C      1  0.4898700000000  0.5549840000000  0.4650390000000 1.0
C      1  0.4907720000000  0.4968440000000  0.4935470000000 1.0
C      1  0.4907730000000  0.5503930000000  0.5694540000000 1.0
C      1  0.4813840000000  0.5168770000000  0.4068130000000 1.0
C      1  0.5230050000000  0.5447150000000  0.5371270000000 1.0
C      1  0.5113810000000  0.5017130000000  0.4156680000000 1.0
C      1  0.4059140000000  0.5075800000000  0.4451900000000 1.0
C      1  0.5441310000000  0.5867590000000  0.4742960000000 1.0
C      1  0.5083800000000  0.4049780000000  0.5197820000000 1.0
C      1  0.4080680000000  0.5342150000000  0.5009390000000 1.0
C      1  0.6233350000000  0.5030130000000  0.5035350000000 1.0
C      1  0.4439360000000  0.4427490000000  0.5642860000000 1.0
C      1  0.5110680000000  0.5385820000000  0.4441090000000 1.0
C      1  0.4681390000000  0.5847270000000  0.4498450000000 1.0
C      1  0.5331320000000  0.4155420000000  0.5263620000000 1.0
C      1  0.4430460000000  0.4694430000000  0.5080720000000 1.0
C      1  0.5868960000000  0.5524140000000  0.4432890000000 1.0
C      1  0.4270540000000  0.4994770000000  0.5061940000000 1.0
C      1  0.5674850000000  0.5593750000000  0.5521140000000 1.0
C      1  0.5548880000000  0.4454590000000  0.5608560000000 1.0
C      1  0.5647560000000  0.5005350000000  0.5622520000000 1.0
C      1  0.4661420000000  0.4380330000000  0.4180420000000 1.0
C      1  0.5302670000000  0.5181110000000  0.4565070000000 1.0
C      1  0.3846610000000  0.5537510000000  0.4980370000000 1.0
C      1  0.5627640000000  0.4816460000000  0.5209630000000 1.0
END
