TITL C-2622956-4641-244 0.00160706749167684 125000 -1024.93749399923 0 0 193 (C1) n - 1
REM
REM in /nfs/bkarasulu/CARBON/AIRSS/Generating-Clusters/AIREBO/with-SteepDescent/Higher-Symm/SD-CG/HFTN-CG
REM
REM
REM
REM
REM
REM ./C.cell (b20cbc046b6831c77cfcea5457e17084)
REM
REM compiler GCC version 9.2.1 20190827 (Red Hat 9.2.1-1)
REM options -cpp -mtune=generic -march=x86-64 -g -O0 -fpre-include=/usr/include/finclude/math-vector-fortran.h
REM seed 2017665859 -885303682 1404185859 -66568495 1793343570 -536447221 513211352 805529953 -1149307767 -589569792 328684950 1943790877 -1850304384 44136798 945992119 1190395205 -2039202751 486207475 1600321526 63393250 219085498 1625193787 -519857553 -133411473 1355844607 1132596117 1394093280 536503207 -328913887 -223490727 -1576391424 -637679742 -87439377
REM
CELL 1.54180   50.00000   50.00000   50.00000   90.00000   90.00000   90.00000
LATT -1
SFAC C  
C      1  0.5242220000000  0.5678340000000  0.4234490000000 1.0
C      1  0.4354100000000  0.5355340000000  0.5775720000000 1.0
C      1  0.5701130000000  0.4215780000000  0.5266690000000 1.0
C      1  0.4731170000000  0.4271280000000  0.4310860000000 1.0
C      1  0.4747900000000  0.5690030000000  0.5744560000000 1.0
C      1  0.5322490000000  0.4285050000000  0.5654710000000 1.0
C      1  0.5733230000000  0.4705000000000  0.5658500000000 1.0
C      1  0.5712350000000  0.5432770000000  0.4316990000000 1.0
C      1  0.4271960000000  0.4722170000000  0.4207820000000 1.0
C      1  0.4201570000000  0.5616030000000  0.5376080000000 1.0
C      1  0.4239400000000  0.4389170000000  0.4597420000000 1.0
C      1  0.5739510000000  0.5802250000000  0.4735930000000 1.0
C      1  0.4243790000000  0.5085340000000  0.5318020000000 1.0
C      1  0.5183520000000  0.4291600000000  0.5141460000000 1.0
C      1  0.5177500000000  0.5157060000000  0.4267800000000 1.0
C      1  0.5544570000000  0.4891270000000  0.5152870000000 1.0
C      1  0.5607870000000  0.5129550000000  0.4719230000000 1.0
C      1  0.4361530000000  0.4903010000000  0.4694320000000 1.0
C      1  0.4621170000000  0.5690390000000  0.5171900000000 1.0
C      1  0.4749910000000  0.4271980000000  0.4926330000000 1.0
C      1  0.5147670000000  0.5601340000000  0.5031280000000 1.0
C      1  0.4941110000000  0.4835440000000  0.4271920000000 1.0
C      1  0.4914310000000  0.5215160000000  0.5723890000000 1.0
C      1  0.5124520000000  0.4787580000000  0.5592700000000 1.0
C      1  0.4987940000000  0.6128000000000  0.4968950000000 1.0
C      1  0.5313190000000  0.4893390000000  0.6039700000000 1.0
C      1  0.6004960000000  0.5312640000000  0.4965410000000 1.0
C      1  0.5161160000000  0.3986340000000  0.5125560000000 1.0
C      1  0.5155930000000  0.5951840000000  0.4740050000000 1.0
C      1  0.4916080000000  0.3978380000000  0.4888600000000 1.0
C      1  0.4780380000000  0.5143610000000  0.6028120000000 1.0
C      1  0.4759720000000  0.4887090000000  0.3993070000000 1.0
C      1  0.5266580000000  0.5162270000000  0.3939280000000 1.0
C      1  0.3878570000000  0.4882800000000  0.4830300000000 1.0
C      1  0.3867930000000  0.5181170000000  0.5002090000000 1.0
C      1  0.6014930000000  0.4742650000000  0.5136570000000 1.0
C      1  0.4697340000000  0.4658560000000  0.4845620000000 1.0
C      1  0.4937630000000  0.4640810000000  0.4632390000000 1.0
C      1  0.4693290000000  0.4954230000000  0.4693970000000 1.0
C      1  0.5316360000000  0.5326750000000  0.4922330000000 1.0
C      1  0.5258080000000  0.4658660000000  0.5001900000000 1.0
C      1  0.4791830000000  0.5233440000000  0.5064900000000 1.0
C      1  0.5017610000000  0.5338790000000  0.4588840000000 1.0
C      1  0.4957440000000  0.4747050000000  0.5134520000000 1.0
C      1  0.4974300000000  0.5324880000000  0.5273430000000 1.0
C      1  0.5132920000000  0.5105880000000  0.4777510000000 1.0
C      1  0.5234340000000  0.4917140000000  0.5234520000000 1.0
C      1  0.4683860000000  0.4810170000000  0.5326980000000 1.0
C      1  0.4022750000000  0.4643230000000  0.5733440000000 1.0
C      1  0.5738570000000  0.4164700000000  0.4816370000000 1.0
C      1  0.4754320000000  0.5701360000000  0.4094810000000 1.0
C      1  0.5920140000000  0.5218640000000  0.5674230000000 1.0
C      1  0.5870430000000  0.4735180000000  0.4456830000000 1.0
C      1  0.4070490000000  0.5456470000000  0.4252550000000 1.0
C      1  0.4375010000000  0.5830940000000  0.4808400000000 1.0
C      1  0.4319510000000  0.4155840000000  0.5099670000000 1.0
C      1  0.5766380000000  0.5965600000000  0.5190340000000 1.0
C      1  0.5246390000000  0.4333310000000  0.4164930000000 1.0
C      1  0.5255100000000  0.5700050000000  0.5881770000000 1.0
C      1  0.4893230000000  0.4207510000000  0.5910590000000 1.0
C      1  0.5099870000000  0.4686010000000  0.5978770000000 1.0
C      1  0.5995500000000  0.5082650000000  0.4800920000000 1.0
C      1  0.4723680000000  0.6148500000000  0.5006630000000 1.0
C      1  0.5009400000000  0.5372440000000  0.6075370000000 1.0
C      1  0.4938920000000  0.4613260000000  0.3940180000000 1.0
C      1  0.5046190000000  0.5396870000000  0.3886510000000 1.0
C      1  0.3858510000000  0.4980380000000  0.4514120000000 1.0
C      1  0.3767530000000  0.5146360000000  0.5292230000000 1.0
C      1  0.6074410000000  0.4927230000000  0.5330920000000 1.0
C      1  0.5408070000000  0.3886550000000  0.4976180000000 1.0
C      1  0.5379400000000  0.6097930000000  0.4937730000000 1.0
C      1  0.4712780000000  0.3756370000000  0.4990710000000 1.0
C      1  0.4283100000000  0.5229440000000  0.4677080000000 1.0
C      1  0.4593440000000  0.4424560000000  0.5373320000000 1.0
C      1  0.5174260000000  0.4637210000000  0.4420250000000 1.0
C      1  0.5506730000000  0.4832760000000  0.4586980000000 1.0
C      1  0.5646580000000  0.5255160000000  0.5385710000000 1.0
C      1  0.4374850000000  0.4823060000000  0.5445050000000 1.0
C      1  0.5439660000000  0.5580790000000  0.5204520000000 1.0
C      1  0.5305060000000  0.4300000000000  0.4685440000000 1.0
C      1  0.4635710000000  0.5473830000000  0.4922450000000 1.0
C      1  0.4737150000000  0.5363700000000  0.4305980000000 1.0
C      1  0.4861910000000  0.4590990000000  0.5654770000000 1.0
C      1  0.5256870000000  0.5417610000000  0.5418620000000 1.0
C      1  0.4478930000000  0.5209150000000  0.6037710000000 1.0
C      1  0.5938830000000  0.4447110000000  0.5191500000000 1.0
C      1  0.5274870000000  0.5919510000000  0.4423090000000 1.0
C      1  0.5587620000000  0.4939250000000  0.5844150000000 1.0
C      1  0.5567210000000  0.5238030000000  0.4078870000000 1.0
C      1  0.4447160000000  0.4889050000000  0.4019480000000 1.0
C      1  0.4033680000000  0.5452990000000  0.5128950000000 1.0
C      1  0.3982700000000  0.4565920000000  0.4735400000000 1.0
C      1  0.5924130000000  0.5642810000000  0.4972850000000 1.0
C      1  0.4808360000000  0.4080360000000  0.4581850000000 1.0
C      1  0.4912020000000  0.5950030000000  0.5599170000000 1.0
C      1  0.5163790000000  0.4054270000000  0.5461500000000 1.0
C      1  0.5572390000000  0.4695470000000  0.4876310000000 1.0
C      1  0.4921410000000  0.5568990000000  0.4773720000000 1.0
C      1  0.4699930000000  0.5008160000000  0.5586240000000 1.0
C      1  0.4334150000000  0.5216790000000  0.5015600000000 1.0
C      1  0.4318980000000  0.4690820000000  0.4957220000000 1.0
C      1  0.5589160000000  0.5179880000000  0.5057890000000 1.0
C      1  0.5047370000000  0.4428960000000  0.4865960000000 1.0
C      1  0.4908400000000  0.5640850000000  0.5269810000000 1.0
C      1  0.4921990000000  0.4445630000000  0.5288110000000 1.0
C      1  0.5215900000000  0.5086570000000  0.5484970000000 1.0
C      1  0.5227680000000  0.4959260000000  0.4515930000000 1.0
C      1  0.4835970000000  0.5080900000000  0.4461560000000 1.0
C      1  0.4681600000000  0.5683240000000  0.4415550000000 1.0
C      1  0.4295780000000  0.4780430000000  0.5757050000000 1.0
C      1  0.5809140000000  0.4451190000000  0.4875560000000 1.0
C      1  0.5106490000000  0.4304420000000  0.4444780000000 1.0
C      1  0.5320090000000  0.5709710000000  0.5561710000000 1.0
C      1  0.4923990000000  0.4265870000000  0.5576990000000 1.0
C      1  0.5472860000000  0.5202150000000  0.5675270000000 1.0
C      1  0.5600440000000  0.4692070000000  0.4297530000000 1.0
C      1  0.4349390000000  0.5286510000000  0.4347260000000 1.0
C      1  0.4302310000000  0.5541820000000  0.4920340000000 1.0
C      1  0.4362620000000  0.4430130000000  0.5186370000000 1.0
C      1  0.5725590000000  0.5652170000000  0.5248800000000 1.0
C      1  0.5203440000000  0.4527560000000  0.5461240000000 1.0
C      1  0.5517090000000  0.5370670000000  0.4555060000000 1.0
C      1  0.4447990000000  0.5420670000000  0.5270230000000 1.0
C      1  0.4887980000000  0.5467560000000  0.5561990000000 1.0
C      1  0.4696400000000  0.4547560000000  0.4462970000000 1.0
C      1  0.5255300000000  0.5419150000000  0.4410250000000 1.0
C      1  0.4469060000000  0.4687650000000  0.4461170000000 1.0
C      1  0.4466540000000  0.5208390000000  0.5532040000000 1.0
C      1  0.5553570000000  0.4698410000000  0.5387960000000 1.0
C      1  0.5457100000000  0.4408050000000  0.5287900000000 1.0
C      1  0.5522660000000  0.5565340000000  0.4795260000000 1.0
C      1  0.4484530000000  0.4433810000000  0.4808250000000 1.0
C      1  0.5898350000000  0.5629690000000  0.4489660000000 1.0
C      1  0.4466730000000  0.5730130000000  0.5556950000000 1.0
C      1  0.5560580000000  0.4461740000000  0.5821320000000 1.0
C      1  0.4251190000000  0.4415320000000  0.4266890000000 1.0
C      1  0.4119230000000  0.5527880000000  0.5674260000000 1.0
C      1  0.5942100000000  0.4474150000000  0.5521690000000 1.0
C      1  0.5609260000000  0.4130710000000  0.5556930000000 1.0
C      1  0.5582100000000  0.5963390000000  0.4481250000000 1.0
C      1  0.4482650000000  0.4164320000000  0.4517270000000 1.0
C      1  0.4550490000000  0.5535020000000  0.5969240000000 1.0
C      1  0.4442110000000  0.4259340000000  0.4132190000000 1.0
C      1  0.5509580000000  0.5572780000000  0.4104020000000 1.0
C      1  0.5171520000000  0.4846160000000  0.4020920000000 1.0
C      1  0.3761220000000  0.5242450000000  0.4707820000000 1.0
C      1  0.4677160000000  0.4076690000000  0.5439530000000 1.0
C      1  0.4895260000000  0.5180010000000  0.4079520000000 1.0
C      1  0.4826350000000  0.4850710000000  0.5861650000000 1.0
C      1  0.5208660000000  0.5168710000000  0.5888070000000 1.0
C      1  0.5875820000000  0.4842850000000  0.4920230000000 1.0
C      1  0.5966760000000  0.5217170000000  0.5277520000000 1.0
C      1  0.4144000000000  0.4669540000000  0.5248060000000 1.0
C      1  0.5174820000000  0.5923090000000  0.5137940000000 1.0
C      1  0.5351030000000  0.3903360000000  0.4677250000000 1.0
C      1  0.4912570000000  0.5823850000000  0.4561130000000 1.0
C      1  0.4004050000000  0.5351930000000  0.4525360000000 1.0
C      1  0.4532050000000  0.4276340000000  0.5655250000000 1.0
C      1  0.5499420000000  0.4422730000000  0.4178010000000 1.0
C      1  0.5981410000000  0.4542990000000  0.4629530000000 1.0
C      1  0.5834390000000  0.5507070000000  0.5515730000000 1.0
C      1  0.3936970000000  0.4609840000000  0.5498380000000 1.0
C      1  0.5642270000000  0.5694490000000  0.5671400000000 1.0
C      1  0.5543210000000  0.4137020000000  0.4625210000000 1.0
C      1  0.4435580000000  0.5829260000000  0.4543600000000 1.0
C      1  0.4486540000000  0.5500190000000  0.4121080000000 1.0
C      1  0.4545950000000  0.4714500000000  0.5964870000000 1.0
C      1  0.5489770000000  0.5493730000000  0.5849710000000 1.0
C      1  0.5870030000000  0.4994140000000  0.4550010000000 1.0
C      1  0.4539050000000  0.5939920000000  0.5012600000000 1.0
C      1  0.5117340000000  0.4402850000000  0.5899040000000 1.0
C      1  0.4122660000000  0.4881060000000  0.4449270000000 1.0
C      1  0.3959500000000  0.5104260000000  0.5449840000000 1.0
C      1  0.5950730000000  0.4957970000000  0.5592500000000 1.0
C      1  0.5655830000000  0.4020620000000  0.5042050000000 1.0
C      1  0.5651970000000  0.6030830000000  0.4948110000000 1.0
C      1  0.4615140000000  0.4041490000000  0.5138830000000 1.0
C      1  0.4999650000000  0.5636330000000  0.5966940000000 1.0
C      1  0.4961470000000  0.4366990000000  0.4079370000000 1.0
C      1  0.5019370000000  0.5646680000000  0.4022230000000 1.0
C      1  0.4337810000000  0.4947190000000  0.6051090000000 1.0
C      1  0.6223870000000  0.4421940000000  0.4585910000000 1.0
C      1  0.4990060000000  0.6106970000000  0.4416880000000 1.0
C      1  0.5623220000000  0.4927940000000  0.6171470000000 1.0
C      1  0.5495090000000  0.4907130000000  0.4109390000000 1.0
C      1  0.4464270000000  0.5164770000000  0.4067760000000 1.0
C      1  0.3985880000000  0.5504290000000  0.4801410000000 1.0
C      1  0.3896710000000  0.4637040000000  0.5038500000000 1.0
C      1  0.6127110000000  0.5511140000000  0.5212180000000 1.0
C      1  0.5114080000000  0.3978760000000  0.4543990000000 1.0
C      1  0.5141670000000  0.5917500000000  0.5439980000000 1.0
C      1  0.4945510000000  0.3867890000000  0.5608590000000 1.0
C      1  0.4892200000000  0.4994970000000  0.4926760000000 1.0
END
