TITL C-2622961-1971-730 0.00230307870178518 125000 -703.622104353965 0 0 130 (C1) n - 1
REM
REM in /nfs/bkarasulu/CARBON/AIRSS/Generating-Clusters/AIREBO/with-SteepDescent/Higher-Symm/SD-CG/HFTN-CG
REM
REM
REM
REM
REM
REM ./C.cell (b20cbc046b6831c77cfcea5457e17084)
REM
REM compiler GCC version 9.2.1 20190827 (Red Hat 9.2.1-1)
REM options -cpp -mtune=generic -march=x86-64 -g -O0 -fpre-include=/usr/include/finclude/math-vector-fortran.h
REM seed 2049497847 -91994388 1218447899 -1540284994 -1405366242 1209692924 1009673510 1179651731 1690419956 -1788354914 -1582716373 -1640953376 602436300 -1107989526 -140078170 -763735362 304497589 2111411708 -1667972486 1071214341 582266994 1108019897 -128422743 1538714381 254587454 1032606793 -1813937508 -513059406 -1273289849 552241460 -1175687934 -67396918 -2101357397
REM
CELL 1.54180   50.00000   50.00000   50.00000   90.00000   90.00000   90.00000
LATT -1
SFAC C  
C      1  0.4550610000000  0.4319740000000  0.4903300000000 1.0
C      1  0.4527340000000  0.4295270000000  0.5555000000000 1.0
C      1  0.4466070000000  0.5105650000000  0.5843350000000 1.0
C      1  0.4540040000000  0.5635820000000  0.5346980000000 1.0
C      1  0.4548210000000  0.5726640000000  0.4748850000000 1.0
C      1  0.4519610000000  0.5223710000000  0.4417010000000 1.0
C      1  0.4526880000000  0.4655040000000  0.4390350000000 1.0
C      1  0.6132270000000  0.5360100000000  0.4999610000000 1.0
C      1  0.6092310000000  0.5195980000000  0.4774850000000 1.0
C      1  0.6039870000000  0.4883780000000  0.4789480000000 1.0
C      1  0.5983860000000  0.4692650000000  0.4983490000000 1.0
C      1  0.5990860000000  0.4806260000000  0.5265250000000 1.0
C      1  0.6075770000000  0.5056070000000  0.5363740000000 1.0
C      1  0.5985530000000  0.5293740000000  0.5233810000000 1.0
C      1  0.4207570000000  0.5354920000000  0.4636770000000 1.0
C      1  0.4119410000000  0.4946710000000  0.4356130000000 1.0
C      1  0.4132050000000  0.4531180000000  0.4589590000000 1.0
C      1  0.4227940000000  0.4243380000000  0.5003050000000 1.0
C      1  0.4172780000000  0.4802320000000  0.5653250000000 1.0
C      1  0.4295680000000  0.5290800000000  0.5654790000000 1.0
C      1  0.4304290000000  0.5515010000000  0.5144730000000 1.0
C      1  0.4541350000000  0.4972230000000  0.4781950000000 1.0
C      1  0.4506250000000  0.4713640000000  0.4910000000000 1.0
C      1  0.4439820000000  0.4637180000000  0.5219100000000 1.0
C      1  0.4012310000000  0.4692560000000  0.5075250000000 1.0
C      1  0.4655520000000  0.5140550000000  0.5259200000000 1.0
C      1  0.4584840000000  0.5276160000000  0.4991250000000 1.0
C      1  0.4779690000000  0.5178330000000  0.4748290000000 1.0
C      1  0.4768060000000  0.5961300000000  0.5308900000000 1.0
C      1  0.4789310000000  0.5857580000000  0.4459100000000 1.0
C      1  0.4763560000000  0.5235720000000  0.4094480000000 1.0
C      1  0.4791230000000  0.4336600000000  0.4279550000000 1.0
C      1  0.4827690000000  0.4001110000000  0.5055590000000 1.0
C      1  0.4667490000000  0.4481590000000  0.5693040000000 1.0
C      1  0.4721520000000  0.5235090000000  0.5858320000000 1.0
C      1  0.5612440000000  0.5817700000000  0.5377110000000 1.0
C      1  0.5564060000000  0.5811720000000  0.4646140000000 1.0
C      1  0.5525260000000  0.5249210000000  0.4127660000000 1.0
C      1  0.5562090000000  0.4509400000000  0.4298080000000 1.0
C      1  0.5521770000000  0.4118380000000  0.4962910000000 1.0
C      1  0.5539180000000  0.4410280000000  0.5670190000000 1.0
C      1  0.5562730000000  0.5167340000000  0.5822810000000 1.0
C      1  0.4375310000000  0.4843490000000  0.5843280000000 1.0
C      1  0.4470190000000  0.5563020000000  0.5627460000000 1.0
C      1  0.4439180000000  0.5773950000000  0.5019750000000 1.0
C      1  0.4421940000000  0.5532970000000  0.4498690000000 1.0
C      1  0.4413150000000  0.4931300000000  0.4278870000000 1.0
C      1  0.4434250000000  0.4398740000000  0.4596780000000 1.0
C      1  0.4471700000000  0.4298900000000  0.5233550000000 1.0
C      1  0.4867570000000  0.5642990000000  0.5320020000000 1.0
C      1  0.4873860000000  0.5723190000000  0.4754500000000 1.0
C      1  0.4859600000000  0.5217710000000  0.4420140000000 1.0
C      1  0.4852440000000  0.4607160000000  0.4476180000000 1.0
C      1  0.4883480000000  0.4321560000000  0.4973770000000 1.0
C      1  0.4904680000000  0.4590580000000  0.5545780000000 1.0
C      1  0.4927310000000  0.5142120000000  0.5680000000000 1.0
C      1  0.4172930000000  0.4760990000000  0.5321900000000 1.0
C      1  0.4150900000000  0.5065440000000  0.5450010000000 1.0
C      1  0.4380570000000  0.5269980000000  0.5334120000000 1.0
C      1  0.4277860000000  0.5312330000000  0.4900760000000 1.0
C      1  0.4051280000000  0.5191020000000  0.4473960000000 1.0
C      1  0.4013310000000  0.4697190000000  0.4421050000000 1.0
C      1  0.4212160000000  0.4549950000000  0.4892800000000 1.0
C      1  0.5257040000000  0.5115960000000  0.5455810000000 1.0
C      1  0.5355050000000  0.5466170000000  0.5131670000000 1.0
C      1  0.5413250000000  0.5308550000000  0.4626010000000 1.0
C      1  0.5325960000000  0.5025810000000  0.4559750000000 1.0
C      1  0.5345700000000  0.4636720000000  0.4689230000000 1.0
C      1  0.5366660000000  0.4493210000000  0.5113490000000 1.0
C      1  0.5323000000000  0.4726040000000  0.5428710000000 1.0
C      1  0.5263510000000  0.5853950000000  0.5062160000000 1.0
C      1  0.5227970000000  0.5651750000000  0.4378890000000 1.0
C      1  0.5228980000000  0.4899540000000  0.4193850000000 1.0
C      1  0.5247330000000  0.4273340000000  0.4555550000000 1.0
C      1  0.5193790000000  0.4186810000000  0.5303530000000 1.0
C      1  0.5259930000000  0.4745110000000  0.5852250000000 1.0
C      1  0.5280060000000  0.5476710000000  0.5618720000000 1.0
C      1  0.4565960000000  0.5084820000000  0.4036980000000 1.0
C      1  0.4565820000000  0.4234340000000  0.4351560000000 1.0
C      1  0.4610710000000  0.3990960000000  0.5195000000000 1.0
C      1  0.4544580000000  0.4627090000000  0.5896540000000 1.0
C      1  0.4667790000000  0.5521330000000  0.5827220000000 1.0
C      1  0.4549740000000  0.6004250000000  0.5182250000000 1.0
C      1  0.4575210000000  0.5772570000000  0.4352750000000 1.0
C      1  0.4995440000000  0.5519070000000  0.4511240000000 1.0
C      1  0.4987290000000  0.4904710000000  0.4379140000000 1.0
C      1  0.4998370000000  0.4356790000000  0.4654260000000 1.0
C      1  0.4955580000000  0.4353380000000  0.5304820000000 1.0
C      1  0.5051340000000  0.4864120000000  0.5687160000000 1.0
C      1  0.4994710000000  0.5412900000000  0.5484790000000 1.0
C      1  0.4992120000000  0.5777190000000  0.5033400000000 1.0
C      1  0.5741880000000  0.5341640000000  0.5693130000000 1.0
C      1  0.5755170000000  0.5813030000000  0.5131320000000 1.0
C      1  0.5704990000000  0.5650130000000  0.4464130000000 1.0
C      1  0.5696710000000  0.5038760000000  0.4204500000000 1.0
C      1  0.5729540000000  0.4384500000000  0.4491350000000 1.0
C      1  0.5673710000000  0.4184210000000  0.5188780000000 1.0
C      1  0.5720910000000  0.4629450000000  0.5686370000000 1.0
C      1  0.5777770000000  0.5095360000000  0.4738360000000 1.0
C      1  0.5637850000000  0.4810590000000  0.4682390000000 1.0
C      1  0.5646140000000  0.4598400000000  0.4948020000000 1.0
C      1  0.5681240000000  0.4797590000000  0.5221450000000 1.0
C      1  0.5550740000000  0.5067820000000  0.5381300000000 1.0
C      1  0.5657050000000  0.5332310000000  0.5212410000000 1.0
C      1  0.5633150000000  0.5351460000000  0.4873620000000 1.0
C      1  0.5322750000000  0.5880490000000  0.4507380000000 1.0
C      1  0.5288420000000  0.5116970000000  0.4032460000000 1.0
C      1  0.5325460000000  0.4345800000000  0.4286560000000 1.0
C      1  0.5266630000000  0.4029370000000  0.5068770000000 1.0
C      1  0.5325760000000  0.4463880000000  0.5855270000000 1.0
C      1  0.5328270000000  0.5331640000000  0.5854240000000 1.0
C      1  0.5364010000000  0.5949660000000  0.5316410000000 1.0
C      1  0.5057810000000  0.4609620000000  0.5021530000000 1.0
C      1  0.5016930000000  0.4791870000000  0.5295710000000 1.0
C      1  0.4994440000000  0.5136850000000  0.5286190000000 1.0
C      1  0.5143720000000  0.5282590000000  0.5042950000000 1.0
C      1  0.5091460000000  0.5297010000000  0.4735260000000 1.0
C      1  0.5082830000000  0.4844720000000  0.4699930000000 1.0
C      1  0.4807320000000  0.4676040000000  0.4806120000000 1.0
C      1  0.5506770000000  0.4886400000000  0.5665730000000 1.0
C      1  0.5579860000000  0.5536110000000  0.5473570000000 1.0
C      1  0.5522180000000  0.5679720000000  0.4926430000000 1.0
C      1  0.5478970000000  0.5448630000000  0.4342210000000 1.0
C      1  0.5507350000000  0.4811210000000  0.4368200000000 1.0
C      1  0.5514500000000  0.4348270000000  0.4752200000000 1.0
C      1  0.5466120000000  0.4332230000000  0.5396150000000 1.0
C      1  0.5187830000000  0.4985250000000  0.4965730000000 1.0
C      1  0.5371650000000  0.4833170000000  0.5115980000000 1.0
C      1  0.3758240000000  0.4726160000000  0.5036010000000 1.0
C      1  0.4679900000000  0.4827190000000  0.5267900000000 1.0
END
