TITL C-2622968-4806-8 -0.000621321137953639 125000 -588.561913175711 0 0 110 (C1) n - 1
REM
REM in /nfs/bkarasulu/CARBON/AIRSS/Generating-Clusters/AIREBO/with-SteepDescent/Higher-Symm/SD-CG/HFTN-CG
REM
REM
REM
REM
REM
REM ./C.cell (b20cbc046b6831c77cfcea5457e17084)
REM
REM compiler GCC version 9.2.1 20190827 (Red Hat 9.2.1-1)
REM options -cpp -mtune=generic -march=x86-64 -g -O0 -fpre-include=/usr/include/finclude/math-vector-fortran.h
REM seed -1025861793 -993817329 1221121510 -535165352 330967168 401357976 -1950897270 1221915906 2008647146 -1159450858 -661446642 -1805724808 1474037523 -1637372052 667719121 -1785462571 2071175226 -776463707 1348449664 -1676900388 -1320897068 -1057430528 -1275830933 1285029095 -1941153672 935132901 764468358 889094409 -1296496137 -574492787 1524178100 -2011644578 515021925
REM
CELL 1.54180   50.00000   50.00000   50.00000   90.00000   90.00000   90.00000
LATT -1
SFAC C  
C      1  0.5194130000000  0.4248270000000  0.4943600000000 1.0
C      1  0.4684090000000  0.5711580000000  0.4474980000000 1.0
C      1  0.5572760000000  0.5842640000000  0.5202290000000 1.0
C      1  0.5818920000000  0.4853070000000  0.5001200000000 1.0
C      1  0.5796930000000  0.5189380000000  0.5414810000000 1.0
C      1  0.5674630000000  0.5027830000000  0.5601160000000 1.0
C      1  0.4937970000000  0.4956670000000  0.4841050000000 1.0
C      1  0.4544560000000  0.4281850000000  0.5238040000000 1.0
C      1  0.4881700000000  0.5205100000000  0.5875460000000 1.0
C      1  0.5296070000000  0.4971090000000  0.5887740000000 1.0
C      1  0.4541010000000  0.5025340000000  0.5565420000000 1.0
C      1  0.4870690000000  0.5763150000000  0.5514440000000 1.0
C      1  0.5079710000000  0.4771320000000  0.5717550000000 1.0
C      1  0.4507790000000  0.5065610000000  0.4325110000000 1.0
C      1  0.4903500000000  0.5269360000000  0.4506110000000 1.0
C      1  0.5019670000000  0.4697940000000  0.4636150000000 1.0
C      1  0.5036400000000  0.4310640000000  0.5754180000000 1.0
C      1  0.5263030000000  0.5481600000000  0.4726660000000 1.0
C      1  0.5565500000000  0.5736560000000  0.4939480000000 1.0
C      1  0.5294700000000  0.5557600000000  0.5176600000000 1.0
C      1  0.4373600000000  0.4699790000000  0.4999550000000 1.0
C      1  0.4319810000000  0.4503650000000  0.4728910000000 1.0
C      1  0.4569220000000  0.4176920000000  0.4980220000000 1.0
C      1  0.5132870000000  0.5664050000000  0.4299180000000 1.0
C      1  0.4823070000000  0.4309920000000  0.5386370000000 1.0
C      1  0.4316650000000  0.4622060000000  0.5510220000000 1.0
C      1  0.4206110000000  0.4965140000000  0.4460500000000 1.0
C      1  0.5613850000000  0.4709210000000  0.4442940000000 1.0
C      1  0.5725460000000  0.5417120000000  0.4492730000000 1.0
C      1  0.5834260000000  0.5391750000000  0.5076180000000 1.0
C      1  0.4683640000000  0.5689210000000  0.5072330000000 1.0
C      1  0.5436110000000  0.5106090000000  0.5047910000000 1.0
C      1  0.5302330000000  0.4324010000000  0.4630110000000 1.0
C      1  0.5413210000000  0.5323950000000  0.4465390000000 1.0
C      1  0.4608490000000  0.4840360000000  0.5822730000000 1.0
C      1  0.4805850000000  0.5394360000000  0.5100660000000 1.0
C      1  0.4712740000000  0.5315310000000  0.5601730000000 1.0
C      1  0.4551170000000  0.5712620000000  0.4772640000000 1.0
C      1  0.5110660000000  0.4463850000000  0.4196810000000 1.0
C      1  0.4634540000000  0.4953970000000  0.4686140000000 1.0
C      1  0.4892020000000  0.5696140000000  0.4731740000000 1.0
C      1  0.4642640000000  0.5611680000000  0.5462380000000 1.0
C      1  0.4836160000000  0.4552740000000  0.5624120000000 1.0
C      1  0.5579320000000  0.4873850000000  0.5223740000000 1.0
C      1  0.4891330000000  0.5525110000000  0.4370470000000 1.0
C      1  0.4263950000000  0.4907820000000  0.5483960000000 1.0
C      1  0.5431610000000  0.4982390000000  0.4668650000000 1.0
C      1  0.4409520000000  0.5600970000000  0.5253020000000 1.0
C      1  0.4902340000000  0.5882730000000  0.5081610000000 1.0
C      1  0.4899320000000  0.4451090000000  0.5111240000000 1.0
C      1  0.5316720000000  0.4634160000000  0.4491440000000 1.0
C      1  0.4762760000000  0.4837920000000  0.5454050000000 1.0
C      1  0.4768730000000  0.4578540000000  0.4669720000000 1.0
C      1  0.5095020000000  0.4139800000000  0.5250910000000 1.0
C      1  0.5203910000000  0.4521020000000  0.5245870000000 1.0
C      1  0.5660530000000  0.4897960000000  0.4249570000000 1.0
C      1  0.5263470000000  0.4874640000000  0.4895200000000 1.0
C      1  0.5620750000000  0.4497150000000  0.4925480000000 1.0
C      1  0.5061570000000  0.4793650000000  0.5314600000000 1.0
C      1  0.5451330000000  0.5166710000000  0.5744440000000 1.0
C      1  0.5304270000000  0.5739730000000  0.4513990000000 1.0
C      1  0.4120120000000  0.5407470000000  0.4807980000000 1.0
C      1  0.4975620000000  0.5319080000000  0.5385610000000 1.0
C      1  0.4270050000000  0.5301340000000  0.5251990000000 1.0
C      1  0.4836660000000  0.4976860000000  0.4345100000000 1.0
C      1  0.5543670000000  0.4475890000000  0.5221370000000 1.0
C      1  0.4364100000000  0.4496030000000  0.5264170000000 1.0
C      1  0.5719220000000  0.4622610000000  0.5405270000000 1.0
C      1  0.4428760000000  0.4730950000000  0.4528520000000 1.0
C      1  0.4855330000000  0.4215010000000  0.4532960000000 1.0
C      1  0.4485450000000  0.5426910000000  0.5809860000000 1.0
C      1  0.5539700000000  0.5399090000000  0.4906410000000 1.0
C      1  0.5817550000000  0.5288770000000  0.4744350000000 1.0
C      1  0.5506080000000  0.5862970000000  0.4688950000000 1.0
C      1  0.4864960000000  0.4222030000000  0.4862050000000 1.0
C      1  0.4117550000000  0.5086820000000  0.4765390000000 1.0
C      1  0.5151210000000  0.5716200000000  0.4946080000000 1.0
C      1  0.4144530000000  0.5054020000000  0.5274030000000 1.0
C      1  0.4680160000000  0.4569240000000  0.4931640000000 1.0
C      1  0.5115370000000  0.4796210000000  0.4270210000000 1.0
C      1  0.4408040000000  0.5193010000000  0.4624140000000 1.0
C      1  0.5183020000000  0.5271100000000  0.5120310000000 1.0
C      1  0.5124410000000  0.5038230000000  0.5506680000000 1.0
C      1  0.4511700000000  0.4572450000000  0.5723990000000 1.0
C      1  0.5730030000000  0.4996570000000  0.4725090000000 1.0
C      1  0.5297910000000  0.4571720000000  0.4924650000000 1.0
C      1  0.5785720000000  0.4664850000000  0.4717160000000 1.0
C      1  0.4530670000000  0.5268300000000  0.5064830000000 1.0
C      1  0.4350510000000  0.4239260000000  0.4804320000000 1.0
C      1  0.5399550000000  0.5756240000000  0.5424580000000 1.0
C      1  0.5003050000000  0.5289270000000  0.4832260000000 1.0
C      1  0.5581660000000  0.5423520000000  0.5302890000000 1.0
C      1  0.5305350000000  0.5019000000000  0.4387540000000 1.0
C      1  0.5131080000000  0.5580810000000  0.5537900000000 1.0
C      1  0.5105890000000  0.4274090000000  0.4416330000000 1.0
C      1  0.5535330000000  0.5163360000000  0.4189460000000 1.0
C      1  0.4358330000000  0.5511130000000  0.4924190000000 1.0
C      1  0.4826720000000  0.4880720000000  0.5134080000000 1.0
C      1  0.4596060000000  0.4934160000000  0.4033670000000 1.0
C      1  0.4861230000000  0.4929800000000  0.5905790000000 1.0
C      1  0.5211330000000  0.4230300000000  0.5520300000000 1.0
C      1  0.5408120000000  0.4850830000000  0.5504550000000 1.0
C      1  0.4651690000000  0.4700540000000  0.4273550000000 1.0
C      1  0.5949360000000  0.5086520000000  0.5172360000000 1.0
C      1  0.4129040000000  0.4917630000000  0.5022840000000 1.0
C      1  0.4662000000000  0.4421230000000  0.4431180000000 1.0
C      1  0.4638160000000  0.4993060000000  0.3789650000000 1.0
C      1  0.4570090000000  0.4977290000000  0.4995860000000 1.0
C      1  0.5295770000000  0.4552920000000  0.5571790000000 1.0
C      1  0.5407380000000  0.5408840000000  0.5594630000000 1.0
END
