TITL C-2622954-8726-554 -0.000758709919959285 125000 -411.608510722931 0 0 77 (C1) n - 1
REM
REM in /nfs/bkarasulu/CARBON/AIRSS/Generating-Clusters/AIREBO/with-SteepDescent/Higher-Symm/SD-CG/HFTN-CG
REM
REM
REM
REM
REM
REM ./C.cell (b20cbc046b6831c77cfcea5457e17084)
REM
REM compiler GCC version 9.2.1 20190827 (Red Hat 9.2.1-1)
REM options -cpp -mtune=generic -march=x86-64 -g -O0 -fpre-include=/usr/include/finclude/math-vector-fortran.h
REM seed -613868679 -1312690440 -392558298 -1881021011 1958549470 -1897200457 -998285299 -686874289 1457200361 -825610005 -715832867 -392279039 -747930459 587379375 1086306014 1240913554 -758291561 1950054710 -1433525198 1559159266 -186828038 1484717071 936506806 -2028821549 1511585352 226455324 294706319 930286101 825577141 1541816182 32648204 -1120369954 -521092431
REM
CELL 1.54180   50.00000   50.00000   50.00000   90.00000   90.00000   90.00000
LATT -1
SFAC C  
C      1  0.4914710000000  0.4552490000000  0.4347710000000 1.0
C      1  0.5020990000000  0.4630880000000  0.5620650000000 1.0
C      1  0.4931340000000  0.5300960000000  0.4215300000000 1.0
C      1  0.5158480000000  0.5434900000000  0.5640540000000 1.0
C      1  0.4387420000000  0.4706650000000  0.5255290000000 1.0
C      1  0.5640990000000  0.4739820000000  0.4698250000000 1.0
C      1  0.4227690000000  0.5307560000000  0.5356640000000 1.0
C      1  0.5600610000000  0.5426240000000  0.4728810000000 1.0
C      1  0.5280230000000  0.5541200000000  0.4415250000000 1.0
C      1  0.4657620000000  0.5336590000000  0.5594140000000 1.0
C      1  0.5380450000000  0.4496710000000  0.4520950000000 1.0
C      1  0.4696500000000  0.4608310000000  0.5521600000000 1.0
C      1  0.5294890000000  0.5494420000000  0.4976910000000 1.0
C      1  0.4609960000000  0.5545930000000  0.5148290000000 1.0
C      1  0.5480220000000  0.4312030000000  0.4772790000000 1.0
C      1  0.4719850000000  0.4488410000000  0.5234360000000 1.0
C      1  0.4608890000000  0.4918000000000  0.4922260000000 1.0
C      1  0.5324320000000  0.4866670000000  0.5078560000000 1.0
C      1  0.4599040000000  0.5227640000000  0.5029050000000 1.0
C      1  0.5370070000000  0.5164070000000  0.4946690000000 1.0
C      1  0.4605500000000  0.5295100000000  0.4218810000000 1.0
C      1  0.5435840000000  0.5270640000000  0.5711900000000 1.0
C      1  0.4645560000000  0.4751160000000  0.4309950000000 1.0
C      1  0.5427130000000  0.4697740000000  0.5655660000000 1.0
C      1  0.4482250000000  0.4868570000000  0.5544500000000 1.0
C      1  0.5450710000000  0.4823220000000  0.4457110000000 1.0
C      1  0.4408750000000  0.5176780000000  0.5536130000000 1.0
C      1  0.5292490000000  0.5040750000000  0.4423150000000 1.0
C      1  0.5671650000000  0.5060870000000  0.5065280000000 1.0
C      1  0.4327380000000  0.5176970000000  0.4830820000000 1.0
C      1  0.5715040000000  0.4789310000000  0.5094110000000 1.0
C      1  0.4317590000000  0.4869300000000  0.4745080000000 1.0
C      1  0.4798430000000  0.4416250000000  0.5763080000000 1.0
C      1  0.5157920000000  0.4375170000000  0.4347420000000 1.0
C      1  0.4848810000000  0.5469620000000  0.5724340000000 1.0
C      1  0.5110350000000  0.5533880000000  0.4227350000000 1.0
C      1  0.5073750000000  0.4894790000000  0.5768420000000 1.0
C      1  0.4935380000000  0.4824050000000  0.4173030000000 1.0
C      1  0.5066610000000  0.5139550000000  0.5781730000000 1.0
C      1  0.5079710000000  0.5045890000000  0.4241970000000 1.0
C      1  0.5009870000000  0.4716200000000  0.4848640000000 1.0
C      1  0.4946130000000  0.4736840000000  0.5182010000000 1.0
C      1  0.5004180000000  0.5293330000000  0.4796060000000 1.0
C      1  0.4975580000000  0.5308500000000  0.5136840000000 1.0
C      1  0.5283430000000  0.4187430000000  0.5008870000000 1.0
C      1  0.4768270000000  0.4134790000000  0.4944150000000 1.0
C      1  0.5225910000000  0.5951190000000  0.5067430000000 1.0
C      1  0.4738610000000  0.5943850000000  0.4920980000000 1.0
C      1  0.4682830000000  0.4920460000000  0.4591960000000 1.0
C      1  0.5381740000000  0.4873110000000  0.5413650000000 1.0
C      1  0.4721680000000  0.5219020000000  0.4506080000000 1.0
C      1  0.5524890000000  0.5137130000000  0.5482070000000 1.0
C      1  0.5702500000000  0.5379030000000  0.4982170000000 1.0
C      1  0.4301470000000  0.5470580000000  0.5132990000000 1.0
C      1  0.5666730000000  0.4499040000000  0.4925870000000 1.0
C      1  0.4449780000000  0.4498440000000  0.5052510000000 1.0
C      1  0.4774590000000  0.4599120000000  0.4655330000000 1.0
C      1  0.5208780000000  0.4589610000000  0.5340010000000 1.0
C      1  0.4722440000000  0.5464580000000  0.4712670000000 1.0
C      1  0.5221060000000  0.5469980000000  0.5307920000000 1.0
C      1  0.5151210000000  0.4240570000000  0.4723570000000 1.0
C      1  0.4859690000000  0.4234250000000  0.5196080000000 1.0
C      1  0.5166570000000  0.5721340000000  0.4865970000000 1.0
C      1  0.4783840000000  0.5758240000000  0.5160250000000 1.0
C      1  0.5137700000000  0.4275330000000  0.5227770000000 1.0
C      1  0.4876270000000  0.4281880000000  0.4726700000000 1.0
C      1  0.5058390000000  0.5762700000000  0.5248300000000 1.0
C      1  0.4895320000000  0.5725950000000  0.4778150000000 1.0
C      1  0.5525610000000  0.4553400000000  0.5221860000000 1.0
C      1  0.4459720000000  0.4577760000000  0.4782340000000 1.0
C      1  0.5533150000000  0.5342110000000  0.5263970000000 1.0
C      1  0.4405340000000  0.5490090000000  0.4809180000000 1.0
C      1  0.5304480000000  0.5286710000000  0.4636350000000 1.0
C      1  0.4744340000000  0.5214850000000  0.5323620000000 1.0
C      1  0.5324070000000  0.4678260000000  0.4805100000000 1.0
C      1  0.4661950000000  0.4907340000000  0.5258330000000 1.0
C      1  0.4983890000000  0.5020120000000  0.4994050000000 1.0
END
