TITL C-2622958-629-80 0.00115288325546043 125000 -395.620585861029 0 0 73 (C1) n - 1
REM
REM in /nfs/bkarasulu/CARBON/AIRSS/Generating-Clusters/AIREBO/with-SteepDescent/Higher-Symm/SD-CG/HFTN-CG
REM
REM
REM
REM
REM
REM ./C.cell (b20cbc046b6831c77cfcea5457e17084)
REM
REM compiler GCC version 9.2.1 20190827 (Red Hat 9.2.1-1)
REM options -cpp -mtune=generic -march=x86-64 -g -O0 -fpre-include=/usr/include/finclude/math-vector-fortran.h
REM seed 1526510260 1378022552 1829044865 1360843940 -504545959 1760069666 -1759332493 -1412777820 1268109761 -1915384347 -660945507 -1169543448 -374347128 591853928 -1391758681 621515142 -97803051 1923323176 -1922586269 -1221791585 165217248 -1614851772 -1146564656 -1900222494 913050668 1589766908 1533789914 -1534804728 -1645520870 -132200471 1490831804 1470613881 1973378171
REM
CELL 1.54180   50.00000   50.00000   50.00000   90.00000   90.00000   90.00000
LATT -1
SFAC C  
C      1  0.4539610000000  0.5646360000000  0.5382610000000 1.0
C      1  0.4503530000000  0.4363880000000  0.4274830000000 1.0
C      1  0.5548020000000  0.5605030000000  0.4616150000000 1.0
C      1  0.5420640000000  0.4309180000000  0.5425120000000 1.0
C      1  0.5571750000000  0.5153650000000  0.5685250000000 1.0
C      1  0.4458280000000  0.4884650000000  0.5517060000000 1.0
C      1  0.4494510000000  0.5103440000000  0.4355030000000 1.0
C      1  0.5405340000000  0.4731940000000  0.4549360000000 1.0
C      1  0.4379550000000  0.5497170000000  0.5144590000000 1.0
C      1  0.4813460000000  0.4447030000000  0.4327670000000 1.0
C      1  0.5594190000000  0.5498170000000  0.4902510000000 1.0
C      1  0.5204600000000  0.4487940000000  0.5550210000000 1.0
C      1  0.4565740000000  0.4528290000000  0.4628630000000 1.0
C      1  0.5299720000000  0.5306830000000  0.4712130000000 1.0
C      1  0.5299300000000  0.5054110000000  0.5411980000000 1.0
C      1  0.4796310000000  0.5273730000000  0.5280370000000 1.0
C      1  0.4395510000000  0.4883820000000  0.4567750000000 1.0
C      1  0.5451220000000  0.5048440000000  0.4447700000000 1.0
C      1  0.5617930000000  0.4868600000000  0.5559650000000 1.0
C      1  0.4646890000000  0.5142190000000  0.5621120000000 1.0
C      1  0.4999170000000  0.5193410000000  0.4248540000000 1.0
C      1  0.5695990000000  0.4743960000000  0.4976690000000 1.0
C      1  0.5043880000000  0.5355600000000  0.5821810000000 1.0
C      1  0.4266990000000  0.4721380000000  0.5020050000000 1.0
C      1  0.4668620000000  0.4481620000000  0.5263280000000 1.0
C      1  0.4697730000000  0.5485340000000  0.4612760000000 1.0
C      1  0.5351240000000  0.4430470000000  0.4644590000000 1.0
C      1  0.5294970000000  0.5807910000000  0.5294560000000 1.0
C      1  0.4919520000000  0.5697470000000  0.4667620000000 1.0
C      1  0.5436810000000  0.4415080000000  0.4952220000000 1.0
C      1  0.5047530000000  0.5709030000000  0.5409130000000 1.0
C      1  0.4677940000000  0.4333020000000  0.5027790000000 1.0
C      1  0.4664240000000  0.5032870000000  0.5079820000000 1.0
C      1  0.4913220000000  0.4951100000000  0.4649420000000 1.0
C      1  0.5292750000000  0.5084190000000  0.4983660000000 1.0
C      1  0.5033890000000  0.4955460000000  0.5304000000000 1.0
C      1  0.4639230000000  0.4734020000000  0.4382280000000 1.0
C      1  0.5623890000000  0.5216080000000  0.4664370000000 1.0
C      1  0.5305860000000  0.4787850000000  0.5621220000000 1.0
C      1  0.4472770000000  0.5252580000000  0.5361610000000 1.0
C      1  0.4767290000000  0.5202270000000  0.4471740000000 1.0
C      1  0.5444530000000  0.4804860000000  0.4862900000000 1.0
C      1  0.5274960000000  0.5302770000000  0.5610850000000 1.0
C      1  0.4528730000000  0.4757400000000  0.5228360000000 1.0
C      1  0.4858630000000  0.4912690000000  0.5561860000000 1.0
C      1  0.4424340000000  0.5070720000000  0.4829170000000 1.0
C      1  0.5151630000000  0.4880310000000  0.4443090000000 1.0
C      1  0.5580730000000  0.5009580000000  0.5252390000000 1.0
C      1  0.4276260000000  0.5172970000000  0.5107540000000 1.0
C      1  0.4883510000000  0.4887740000000  0.4255900000000 1.0
C      1  0.5619250000000  0.5178430000000  0.4998020000000 1.0
C      1  0.4992730000000  0.4700260000000  0.5716890000000 1.0
C      1  0.5028220000000  0.5456520000000  0.4834970000000 1.0
C      1  0.5195770000000  0.4625160000000  0.4955150000000 1.0
C      1  0.5062300000000  0.5386640000000  0.5359030000000 1.0
C      1  0.4754970000000  0.4466600000000  0.4798560000000 1.0
C      1  0.5417210000000  0.5630670000000  0.5114970000000 1.0
C      1  0.4912640000000  0.4487920000000  0.5387910000000 1.0
C      1  0.4460100000000  0.5408530000000  0.4845330000000 1.0
C      1  0.5054100000000  0.4439100000000  0.4479040000000 1.0
C      1  0.4780030000000  0.5613420000000  0.5528210000000 1.0
C      1  0.4284030000000  0.4438260000000  0.4523650000000 1.0
C      1  0.5321760000000  0.5519620000000  0.4447850000000 1.0
C      1  0.5560840000000  0.4414980000000  0.5208790000000 1.0
C      1  0.4765180000000  0.5275610000000  0.4864080000000 1.0
C      1  0.5001030000000  0.4634240000000  0.4737170000000 1.0
C      1  0.5212320000000  0.5396620000000  0.5091150000000 1.0
C      1  0.5081110000000  0.4664900000000  0.5216670000000 1.0
C      1  0.4794570000000  0.5395080000000  0.5714910000000 1.0
C      1  0.4223020000000  0.4681650000000  0.4753150000000 1.0
C      1  0.5256850000000  0.5262590000000  0.4316390000000 1.0
C      1  0.5718980000000  0.4692780000000  0.5293020000000 1.0
C      1  0.4976990000000  0.4958490000000  0.4968750000000 1.0
END
