TITL C-2622959-7779-646 0.000646284385690277 125000 -519.043194627374 0 0 91 (C1) n - 1
REM
REM in /nfs/bkarasulu/CARBON/AIRSS/Generating-Clusters/AIREBO/with-SteepDescent/Higher-Symm/SD-CG/HFTN-CG
REM
REM
REM
REM
REM
REM ./C.cell (b20cbc046b6831c77cfcea5457e17084)
REM
REM compiler GCC version 9.2.1 20190827 (Red Hat 9.2.1-1)
REM options -cpp -mtune=generic -march=x86-64 -g -O0 -fpre-include=/usr/include/finclude/math-vector-fortran.h
REM seed -2051975880 -1721503454 -2103056529 -272096791 1852489644 -1315700830 -1959140911 439165897 116730575 1242596766 1705918694 -381428916 -2077576707 -51022907 -1863471841 1416944944 -1333271723 2075549320 -1971371840 -1126330706 1835892578 -1447222964 919627277 -1759892052 -1399963302 -1441840365 1163400906 1839517137 2048362017 656864116 -310405635 1402307571 1570719628
REM
CELL 1.54180   50.00000   50.00000   50.00000   90.00000   90.00000   90.00000
LATT -1
SFAC C  
C      1  0.5648070000000  0.5331830000000  0.5138370000000 1.0
C      1  0.4580750000000  0.5176490000000  0.5484350000000 1.0
C      1  0.4815120000000  0.5270670000000  0.4348930000000 1.0
C      1  0.4914680000000  0.5156190000000  0.4615710000000 1.0
C      1  0.5351930000000  0.5237300000000  0.5161080000000 1.0
C      1  0.4763620000000  0.5142620000000  0.5199720000000 1.0
C      1  0.5048660000000  0.4345270000000  0.4775020000000 1.0
C      1  0.5170770000000  0.4319400000000  0.5178820000000 1.0
C      1  0.4801250000000  0.4348840000000  0.4948060000000 1.0
C      1  0.5259450000000  0.5775490000000  0.4549180000000 1.0
C      1  0.5200980000000  0.5838710000000  0.5490150000000 1.0
C      1  0.4621760000000  0.5825230000000  0.4961910000000 1.0
C      1  0.5279030000000  0.4814820000000  0.4219860000000 1.0
C      1  0.5520820000000  0.4867760000000  0.5600940000000 1.0
C      1  0.4187590000000  0.4810970000000  0.5139470000000 1.0
C      1  0.4470730000000  0.5761830000000  0.4743950000000 1.0
C      1  0.5524090000000  0.5748190000000  0.4585070000000 1.0
C      1  0.5047590000000  0.5724840000000  0.5684600000000 1.0
C      1  0.4952960000000  0.5713870000000  0.4452190000000 1.0
C      1  0.5436930000000  0.5808390000000  0.5246940000000 1.0
C      1  0.4525970000000  0.5811500000000  0.5235760000000 1.0
C      1  0.4670910000000  0.4802260000000  0.4259550000000 1.0
C      1  0.5806660000000  0.4738540000000  0.5112090000000 1.0
C      1  0.4476350000000  0.4661870000000  0.5578860000000 1.0
C      1  0.4934100000000  0.4782850000000  0.5708770000000 1.0
C      1  0.4461470000000  0.4756810000000  0.4523500000000 1.0
C      1  0.5685050000000  0.4734020000000  0.4794690000000 1.0
C      1  0.5059580000000  0.5601000000000  0.4736190000000 1.0
C      1  0.5114230000000  0.5733030000000  0.5183990000000 1.0
C      1  0.4915190000000  0.5675600000000  0.4981640000000 1.0
C      1  0.5349990000000  0.4654770000000  0.5560520000000 1.0
C      1  0.4324080000000  0.4626250000000  0.4982430000000 1.0
C      1  0.5341140000000  0.4635260000000  0.4426250000000 1.0
C      1  0.4653480000000  0.4828070000000  0.5261830000000 1.0
C      1  0.4947130000000  0.4843930000000  0.4554740000000 1.0
C      1  0.5415440000000  0.4809970000000  0.5144880000000 1.0
C      1  0.4679650000000  0.4853550000000  0.4728060000000 1.0
C      1  0.5392150000000  0.4842950000000  0.4843870000000 1.0
C      1  0.4941620000000  0.4844110000000  0.5397630000000 1.0
C      1  0.5637980000000  0.4930440000000  0.5336440000000 1.0
C      1  0.4349060000000  0.4843220000000  0.5362810000000 1.0
C      1  0.4998210000000  0.4814910000000  0.4241620000000 1.0
C      1  0.5438400000000  0.5058610000000  0.5789500000000 1.0
C      1  0.4086050000000  0.5034220000000  0.5003190000000 1.0
C      1  0.5470240000000  0.5021530000000  0.4196840000000 1.0
C      1  0.5335270000000  0.5134350000000  0.4881560000000 1.0
C      1  0.5069480000000  0.5122720000000  0.5314220000000 1.0
C      1  0.4701690000000  0.5137280000000  0.4865390000000 1.0
C      1  0.4977710000000  0.4016500000000  0.4827800000000 1.0
C      1  0.5047870000000  0.4092020000000  0.5129900000000 1.0
C      1  0.4724070000000  0.4040170000000  0.5067970000000 1.0
C      1  0.4947320000000  0.5021530000000  0.5855410000000 1.0
C      1  0.4281100000000  0.5027860000000  0.4552020000000 1.0
C      1  0.5760440000000  0.5013510000000  0.4648630000000 1.0
C      1  0.5040060000000  0.4381030000000  0.4455020000000 1.0
C      1  0.5450980000000  0.4363330000000  0.5308210000000 1.0
C      1  0.4552940000000  0.4316650000000  0.5174670000000 1.0
C      1  0.4626820000000  0.5591060000000  0.5398510000000 1.0
C      1  0.4748430000000  0.5549330000000  0.4369160000000 1.0
C      1  0.5626970000000  0.5655010000000  0.5113230000000 1.0
C      1  0.5184300000000  0.5176160000000  0.5804140000000 1.0
C      1  0.4243500000000  0.5148900000000  0.4805050000000 1.0
C      1  0.5590560000000  0.5119420000000  0.4427010000000 1.0
C      1  0.4415220000000  0.4369790000000  0.4864960000000 1.0
C      1  0.5373780000000  0.4362760000000  0.4554560000000 1.0
C      1  0.5212410000000  0.4380020000000  0.5564930000000 1.0
C      1  0.4662730000000  0.4655870000000  0.4994570000000 1.0
C      1  0.5159710000000  0.4660720000000  0.4712820000000 1.0
C      1  0.5173150000000  0.4647040000000  0.5270080000000 1.0
C      1  0.5475800000000  0.5308160000000  0.4649560000000 1.0
C      1  0.5085020000000  0.5343890000000  0.5569260000000 1.0
C      1  0.4474450000000  0.5367850000000  0.4847650000000 1.0
C      1  0.4919000000000  0.4489960000000  0.5581410000000 1.0
C      1  0.4513020000000  0.4430060000000  0.4602440000000 1.0
C      1  0.5563470000000  0.4415030000000  0.4777280000000 1.0
C      1  0.4523440000000  0.4938560000000  0.5706820000000 1.0
C      1  0.4609970000000  0.5114130000000  0.4241070000000 1.0
C      1  0.5868790000000  0.5073380000000  0.5146250000000 1.0
C      1  0.5616880000000  0.4469660000000  0.5085440000000 1.0
C      1  0.4650380000000  0.4457070000000  0.5469020000000 1.0
C      1  0.4763120000000  0.4516100000000  0.4419040000000 1.0
C      1  0.5656870000000  0.5535860000000  0.4796160000000 1.0
C      1  0.4802790000000  0.5495820000000  0.5629260000000 1.0
C      1  0.4474430000000  0.5506210000000  0.4537610000000 1.0
C      1  0.4702830000000  0.5215300000000  0.5793850000000 1.0
C      1  0.4380830000000  0.5221900000000  0.4373030000000 1.0
C      1  0.5810040000000  0.5231720000000  0.4855450000000 1.0
C      1  0.5145730000000  0.5315470000000  0.4702200000000 1.0
C      1  0.5236370000000  0.5475840000000  0.5332270000000 1.0
C      1  0.4682890000000  0.5458210000000  0.5102580000000 1.0
C      1  0.4997320000000  0.4716280000000  0.4996390000000 1.0
END
