TITL C-2622966-9038-272 -0.00225416443272177 125000 -513.908935645954 0 0 92 (C1) n - 1
REM
REM in /nfs/bkarasulu/CARBON/AIRSS/Generating-Clusters/AIREBO/with-SteepDescent/Higher-Symm/SD-CG/HFTN-CG
REM
REM
REM
REM
REM
REM ./C.cell (b20cbc046b6831c77cfcea5457e17084)
REM
REM compiler GCC version 9.2.1 20190827 (Red Hat 9.2.1-1)
REM options -cpp -mtune=generic -march=x86-64 -g -O0 -fpre-include=/usr/include/finclude/math-vector-fortran.h
REM seed -2022671470 -1037963366 1461334333 -1660937936 2044149114 -1867894508 -1127169735 1556297877 713085057 -1321868030 1359628228 -1317036195 -2111985262 1558157673 -648320652 -182876338 -1925838448 -446971347 87312479 1090390724 1364292598 -2104234069 -471692719 -363544048 1119668534 -1480282085 86483527 -481145364 -676777158 -2072835950 -287737058 -1004806441 1780888468
REM
CELL 1.54180   50.00000   50.00000   50.00000   90.00000   90.00000   90.00000
LATT -1
SFAC C  
C      1  0.5395530000000  0.5509480000000  0.5345260000000 1.0
C      1  0.5464030000000  0.5549760000000  0.4686760000000 1.0
C      1  0.5214630000000  0.5608870000000  0.4867620000000 1.0
C      1  0.5150030000000  0.5563700000000  0.5153360000000 1.0
C      1  0.5203750000000  0.4163230000000  0.5427030000000 1.0
C      1  0.5075560000000  0.4105200000000  0.4760330000000 1.0
C      1  0.5149200000000  0.4990200000000  0.4249670000000 1.0
C      1  0.5195500000000  0.4910560000000  0.5819940000000 1.0
C      1  0.4582890000000  0.4739900000000  0.4480250000000 1.0
C      1  0.4566180000000  0.4876610000000  0.5641820000000 1.0
C      1  0.5050170000000  0.4888690000000  0.5530570000000 1.0
C      1  0.4935220000000  0.4927720000000  0.4470270000000 1.0
C      1  0.5422520000000  0.5224550000000  0.4777590000000 1.0
C      1  0.5415770000000  0.5252420000000  0.5122770000000 1.0
C      1  0.5320870000000  0.4749250000000  0.4252960000000 1.0
C      1  0.5365100000000  0.4690670000000  0.5676620000000 1.0
C      1  0.4104490000000  0.5094520000000  0.5173720000000 1.0
C      1  0.4218330000000  0.5054860000000  0.4867800000000 1.0
C      1  0.5662040000000  0.4983590000000  0.4794150000000 1.0
C      1  0.5661750000000  0.5015730000000  0.5103640000000 1.0
C      1  0.4911530000000  0.4902240000000  0.4865270000000 1.0
C      1  0.4902990000000  0.4866880000000  0.5160850000000 1.0
C      1  0.4779880000000  0.5540610000000  0.5376650000000 1.0
C      1  0.4797590000000  0.5509680000000  0.4641230000000 1.0
C      1  0.5376170000000  0.4737290000000  0.5093020000000 1.0
C      1  0.5355170000000  0.4730820000000  0.4835880000000 1.0
C      1  0.5346720000000  0.5185930000000  0.5575210000000 1.0
C      1  0.5479140000000  0.5235530000000  0.4442420000000 1.0
C      1  0.5155530000000  0.5664660000000  0.5534050000000 1.0
C      1  0.5231320000000  0.5698790000000  0.4484970000000 1.0
C      1  0.5643120000000  0.4717600000000  0.5260970000000 1.0
C      1  0.5612060000000  0.4680710000000  0.4660510000000 1.0
C      1  0.4816870000000  0.4651620000000  0.4296480000000 1.0
C      1  0.4784120000000  0.4727230000000  0.5589290000000 1.0
C      1  0.4309290000000  0.5380400000000  0.5637220000000 1.0
C      1  0.4524420000000  0.5279990000000  0.4462640000000 1.0
C      1  0.5578910000000  0.4782890000000  0.4369770000000 1.0
C      1  0.5597470000000  0.4794630000000  0.5553670000000 1.0
C      1  0.5108330000000  0.5879360000000  0.4731260000000 1.0
C      1  0.5039590000000  0.5831000000000  0.5286680000000 1.0
C      1  0.4942810000000  0.5457190000000  0.5664260000000 1.0
C      1  0.5022710000000  0.5480590000000  0.4386080000000 1.0
C      1  0.4810410000000  0.4365840000000  0.5132950000000 1.0
C      1  0.4825010000000  0.4319650000000  0.4834840000000 1.0
C      1  0.4728400000000  0.5403720000000  0.4261910000000 1.0
C      1  0.4639860000000  0.5390340000000  0.5716160000000 1.0
C      1  0.5323830000000  0.4168800000000  0.4862230000000 1.0
C      1  0.5390620000000  0.4229650000000  0.5154880000000 1.0
C      1  0.4529520000000  0.5034090000000  0.4903800000000 1.0
C      1  0.4626000000000  0.5150260000000  0.5198350000000 1.0
C      1  0.5254340000000  0.4470740000000  0.5558180000000 1.0
C      1  0.5187700000000  0.4502930000000  0.4308390000000 1.0
C      1  0.5607020000000  0.5076720000000  0.5567240000000 1.0
C      1  0.5668590000000  0.5050190000000  0.4344250000000 1.0
C      1  0.4634090000000  0.5025610000000  0.4594390000000 1.0
C      1  0.4527360000000  0.5148460000000  0.5511500000000 1.0
C      1  0.4451260000000  0.5510460000000  0.5359950000000 1.0
C      1  0.4459840000000  0.5543540000000  0.4661260000000 1.0
C      1  0.4639110000000  0.4725400000000  0.4900210000000 1.0
C      1  0.4598000000000  0.4812670000000  0.5228150000000 1.0
C      1  0.5568910000000  0.4393990000000  0.4838430000000 1.0
C      1  0.5621920000000  0.4426440000000  0.5145800000000 1.0
C      1  0.4198800000000  0.5287830000000  0.5331890000000 1.0
C      1  0.4244790000000  0.5284020000000  0.4657960000000 1.0
C      1  0.4271790000000  0.4527690000000  0.5113420000000 1.0
C      1  0.4272530000000  0.4466380000000  0.4811540000000 1.0
C      1  0.4826640000000  0.5932740000000  0.5142980000000 1.0
C      1  0.4872960000000  0.5972720000000  0.4841790000000 1.0
C      1  0.4919600000000  0.5314700000000  0.5175990000000 1.0
C      1  0.4984980000000  0.5373280000000  0.4844200000000 1.0
C      1  0.5014890000000  0.4455140000000  0.4582320000000 1.0
C      1  0.5064060000000  0.4427650000000  0.5273290000000 1.0
C      1  0.4112900000000  0.4735330000000  0.4815400000000 1.0
C      1  0.4098390000000  0.4792170000000  0.5142300000000 1.0
C      1  0.5102920000000  0.4724560000000  0.4685350000000 1.0
C      1  0.5143820000000  0.4720700000000  0.5266230000000 1.0
C      1  0.5127840000000  0.5231320000000  0.5773750000000 1.0
C      1  0.5238760000000  0.5252190000000  0.4297940000000 1.0
C      1  0.4561770000000  0.4484270000000  0.4696060000000 1.0
C      1  0.4542520000000  0.4493730000000  0.5267420000000 1.0
C      1  0.5103020000000  0.5122210000000  0.4715370000000 1.0
C      1  0.5164280000000  0.5123220000000  0.5311870000000 1.0
C      1  0.4905100000000  0.4227000000000  0.5577530000000 1.0
C      1  0.4897430000000  0.4078150000000  0.4524940000000 1.0
C      1  0.4578310000000  0.5726640000000  0.5164140000000 1.0
C      1  0.4645500000000  0.5739410000000  0.4844940000000 1.0
C      1  0.4729080000000  0.4351850000000  0.4430930000000 1.0
C      1  0.4750240000000  0.4447720000000  0.5519720000000 1.0
C      1  0.5757730000000  0.5192020000000  0.5352260000000 1.0
C      1  0.5839470000000  0.5216660000000  0.4664850000000 1.0
C      1  0.5762220000000  0.5455470000000  0.4651810000000 1.0
C      1  0.5706580000000  0.5458570000000  0.5328440000000 1.0
END
