TITL C-2622953-3516-831 -0.00100144412998301 125000 -515.854827904033 0 0 112 (C1) n - 1
REM
REM in /nfs/bkarasulu/CARBON/AIRSS/Generating-Clusters/AIREBO/with-SteepDescent/Higher-Symm/SD-CG/HFTN-CG
REM
REM
REM
REM
REM
REM ./C.cell (b20cbc046b6831c77cfcea5457e17084)
REM
REM compiler GCC version 9.2.1 20190827 (Red Hat 9.2.1-1)
REM options -cpp -mtune=generic -march=x86-64 -g -O0 -fpre-include=/usr/include/finclude/math-vector-fortran.h
REM seed 2028028716 546755647 261914225 636815555 -1469791446 1402755007 -1055249290 -662766324 -336712627 -577555222 977094690 812101272 -289158918 1916220200 1666578595 -2011013905 630010516 -2098256762 1584137553 138475477 1050560225 1283887340 -1133489944 -1495981292 82319142 344095216 1417721842 425968556 1088487124 1541746169 -620020707 962690499 1693763707
REM
CELL 1.54180   50.00000   50.00000   50.00000   90.00000   90.00000   90.00000
LATT -1
SFAC C  
C      1  0.5307840000000  0.5310300000000  0.4458120000000 1.0
C      1  0.4367520000000  0.5302110000000  0.5016530000000 1.0
C      1  0.5313310000000  0.5295800000000  0.5552700000000 1.0
C      1  0.5340850000000  0.4719680000000  0.5592570000000 1.0
C      1  0.4309380000000  0.4716220000000  0.4996710000000 1.0
C      1  0.5350430000000  0.4718050000000  0.4434110000000 1.0
C      1  0.4567880000000  0.4601530000000  0.5444660000000 1.0
C      1  0.5616860000000  0.4605390000000  0.5150170000000 1.0
C      1  0.4827560000000  0.4608860000000  0.4403080000000 1.0
C      1  0.4575430000000  0.5405780000000  0.4541480000000 1.0
C      1  0.5668680000000  0.5436950000000  0.4848190000000 1.0
C      1  0.4806950000000  0.5401420000000  0.5616160000000 1.0
C      1  0.4971650000000  0.5720170000000  0.4803450000000 1.0
C      1  0.4828580000000  0.5730910000000  0.5111760000000 1.0
C      1  0.5159050000000  0.5705580000000  0.5075590000000 1.0
C      1  0.4992360000000  0.4340800000000  0.5196860000000 1.0
C      1  0.4828440000000  0.4341980000000  0.4901490000000 1.0
C      1  0.5162000000000  0.4330720000000  0.4910310000000 1.0
C      1  0.4723330000000  0.5037710000000  0.4031520000000 1.0
C      1  0.4302050000000  0.5037840000000  0.5742030000000 1.0
C      1  0.5973470000000  0.5050240000000  0.5247790000000 1.0
C      1  0.4765040000000  0.5031200000000  0.5899870000000 1.0
C      1  0.4332780000000  0.5033840000000  0.4347840000000 1.0
C      1  0.5958230000000  0.4982400000000  0.4718540000000 1.0
C      1  0.4661790000000  0.5112490000000  0.4383160000000 1.0
C      1  0.4627890000000  0.5112500000000  0.5599420000000 1.0
C      1  0.5825240000000  0.5162860000000  0.4961490000000 1.0
C      1  0.4547420000000  0.4803730000000  0.5717400000000 1.0
C      1  0.4598680000000  0.4806830000000  0.4247800000000 1.0
C      1  0.5840850000000  0.4829270000000  0.5025850000000 1.0
C      1  0.4489620000000  0.4299560000000  0.5309280000000 1.0
C      1  0.5519550000000  0.4306180000000  0.5279620000000 1.0
C      1  0.4980790000000  0.4305310000000  0.4406970000000 1.0
C      1  0.4484860000000  0.5708260000000  0.4668050000000 1.0
C      1  0.5548010000000  0.5729170000000  0.4722820000000 1.0
C      1  0.4971000000000  0.5698710000000  0.5597250000000 1.0
C      1  0.4716550000000  0.5798970000000  0.5425720000000 1.0
C      1  0.5470510000000  0.5736210000000  0.5023020000000 1.0
C      1  0.4773970000000  0.5798530000000  0.4547610000000 1.0
C      1  0.4732250000000  0.4247280000000  0.4593070000000 1.0
C      1  0.5469020000000  0.4221370000000  0.4976870000000 1.0
C      1  0.4776510000000  0.4251920000000  0.5433520000000 1.0
C      1  0.4327220000000  0.5308540000000  0.5546410000000 1.0
C      1  0.5788690000000  0.5309960000000  0.5351530000000 1.0
C      1  0.4875600000000  0.5304720000000  0.4162900000000 1.0
C      1  0.4308930000000  0.4702240000000  0.4428630000000 1.0
C      1  0.5824050000000  0.4670000000000  0.4703210000000 1.0
C      1  0.4843720000000  0.4698510000000  0.5888110000000 1.0
C      1  0.5249680000000  0.5573710000000  0.4673270000000 1.0
C      1  0.4568270000000  0.5575110000000  0.4958000000000 1.0
C      1  0.5183280000000  0.5562420000000  0.5383060000000 1.0
C      1  0.5252030000000  0.4499110000000  0.5349320000000 1.0
C      1  0.4558510000000  0.4490000000000  0.5046180000000 1.0
C      1  0.5173760000000  0.4484520000000  0.4607130000000 1.0
C      1  0.4267960000000  0.4940100000000  0.4668250000000 1.0
C      1  0.5075700000000  0.4932250000000  0.5803140000000 1.0
C      1  0.5648130000000  0.4936670000000  0.4586510000000 1.0
C      1  0.4218510000000  0.5011080000000  0.5413530000000 1.0
C      1  0.5048540000000  0.5011100000000  0.4127080000000 1.0
C      1  0.5756760000000  0.4991360000000  0.5488950000000 1.0
C      1  0.5343690000000  0.4788200000000  0.5894780000000 1.0
C      1  0.5614550000000  0.4784390000000  0.4294710000000 1.0
C      1  0.4048300000000  0.4788840000000  0.4847780000000 1.0
C      1  0.5260150000000  0.5226300000000  0.4189470000000 1.0
C      1  0.5598140000000  0.5250650000000  0.5613560000000 1.0
C      1  0.4165070000000  0.5221440000000  0.5197570000000 1.0
C      1  0.5455920000000  0.4304300000000  0.4642510000000 1.0
C      1  0.4451440000000  0.4325650000000  0.4773600000000 1.0
C      1  0.5076890000000  0.4330250000000  0.5585710000000 1.0
C      1  0.5473280000000  0.5741340000000  0.5362970000000 1.0
C      1  0.4447050000000  0.5723700000000  0.5230050000000 1.0
C      1  0.5087000000000  0.5723160000000  0.4420460000000 1.0
C      1  0.4643750000000  0.5118650000000  0.5039820000000 1.0
C      1  0.5193540000000  0.5118830000000  0.5297260000000 1.0
C      1  0.5134490000000  0.5125550000000  0.4681220000000 1.0
C      1  0.4553760000000  0.4880960000000  0.4851620000000 1.0
C      1  0.5339530000000  0.4877720000000  0.4728850000000 1.0
C      1  0.5078840000000  0.4874410000000  0.5464650000000 1.0
C      1  0.5300810000000  0.4716960000000  0.5092820000000 1.0
C      1  0.4946070000000  0.4717760000000  0.4703950000000 1.0
C      1  0.4769550000000  0.4713130000000  0.5192110000000 1.0
C      1  0.5350480000000  0.5312250000000  0.4865900000000 1.0
C      1  0.4943910000000  0.5334750000000  0.5302580000000 1.0
C      1  0.4762700000000  0.5334840000000  0.4816320000000 1.0
C      1  0.4287810000000  0.5277170000000  0.4708360000000 1.0
C      1  0.5091050000000  0.5271240000000  0.5781370000000 1.0
C      1  0.5616400000000  0.5255900000000  0.4543610000000 1.0
C      1  0.4273360000000  0.4734470000000  0.5313530000000 1.0
C      1  0.5103320000000  0.4735310000000  0.4230250000000 1.0
C      1  0.5634980000000  0.4727510000000  0.5477360000000 1.0
C      1  0.5720770000000  0.4423360000000  0.5489590000000 1.0
C      1  0.5068450000000  0.4436450000000  0.4135670000000 1.0
C      1  0.4213040000000  0.4431320000000  0.5378780000000 1.0
C      1  0.5621260000000  0.5558480000000  0.4470930000000 1.0
C      1  0.5066120000000  0.5571070000000  0.5867950000000 1.0
C      1  0.4215010000000  0.5561960000000  0.4613490000000 1.0
C      1  0.4522180000000  0.4500240000000  0.4507100000000 1.0
C      1  0.4808270000000  0.4498660000000  0.5662620000000 1.0
C      1  0.5651930000000  0.4472640000000  0.4838980000000 1.0
C      1  0.4519330000000  0.5528340000000  0.5484680000000 1.0
C      1  0.4832790000000  0.5526490000000  0.4353750000000 1.0
C      1  0.5635640000000  0.5497790000000  0.5188890000000 1.0
C      1  0.4400940000000  0.4496920000000  0.5725120000000 1.0
C      1  0.5944710000000  0.4515670000000  0.5136780000000 1.0
C      1  0.4674850000000  0.4503230000000  0.4114830000000 1.0
C      1  0.4409620000000  0.5499460000000  0.4259730000000 1.0
C      1  0.5975620000000  0.5583240000000  0.4851000000000 1.0
C      1  0.4657050000000  0.5491100000000  0.5907910000000 1.0
C      1  0.4808800000000  0.5027740000000  0.4677830000000 1.0
C      1  0.5311750000000  0.5037610000000  0.5028220000000 1.0
C      1  0.4806100000000  0.5024610000000  0.5323470000000 1.0
C      1  0.5004560000000  0.4687410000000  0.4999440000000 1.0
END
