TITL C-2622964-2985-473 0.000936158654994134 125000 -534.935030010786 0 0 100 (C1) n - 1
REM
REM in /nfs/bkarasulu/CARBON/AIRSS/Generating-Clusters/AIREBO/with-SteepDescent/Higher-Symm/SD-CG/HFTN-CG
REM
REM
REM
REM
REM
REM ./C.cell (b20cbc046b6831c77cfcea5457e17084)
REM
REM compiler GCC version 9.2.1 20190827 (Red Hat 9.2.1-1)
REM options -cpp -mtune=generic -march=x86-64 -g -O0 -fpre-include=/usr/include/finclude/math-vector-fortran.h
REM seed 849884222 667694629 1762550923 475067556 176640974 577410132 1741237070 -1774006033 -842486008 270614461 94917052 1003124382 -1869866316 1465968158 -1955685765 -823325013 -69265503 -373244883 1173446616 1660025844 -1526394667 1808284039 -1831253130 63660076 -1641817777 1051295337 399644821 1527650520 -1675652892 -1075800072 -693626193 524155104 114691947
REM
CELL 1.54180   50.00000   50.00000   50.00000   90.00000   90.00000   90.00000
LATT -1
SFAC C  
C      1  0.5417410000000  0.5766210000000  0.4813550000000 1.0
C      1  0.4353760000000  0.5604710000000  0.4949570000000 1.0
C      1  0.4228760000000  0.4639370000000  0.4878230000000 1.0
C      1  0.5134260000000  0.4137250000000  0.4845610000000 1.0
C      1  0.5771660000000  0.4809210000000  0.4873440000000 1.0
C      1  0.4843910000000  0.4864200000000  0.5080180000000 1.0
C      1  0.5140770000000  0.4698210000000  0.5073850000000 1.0
C      1  0.5281700000000  0.4974000000000  0.5134350000000 1.0
C      1  0.5071170000000  0.5229470000000  0.5056800000000 1.0
C      1  0.4765420000000  0.5192770000000  0.5119300000000 1.0
C      1  0.4270800000000  0.4688750000000  0.5390440000000 1.0
C      1  0.5040730000000  0.4220830000000  0.5376020000000 1.0
C      1  0.5704930000000  0.4767610000000  0.5467930000000 1.0
C      1  0.5447110000000  0.5828710000000  0.5306070000000 1.0
C      1  0.4512370000000  0.5542530000000  0.5399140000000 1.0
C      1  0.4301250000000  0.4487030000000  0.5165820000000 1.0
C      1  0.5279720000000  0.4204410000000  0.5147180000000 1.0
C      1  0.5791120000000  0.4835640000000  0.5214000000000 1.0
C      1  0.5253110000000  0.5888980000000  0.5081630000000 1.0
C      1  0.4322060000000  0.5453090000000  0.5198190000000 1.0
C      1  0.5619670000000  0.4779110000000  0.4594170000000 1.0
C      1  0.5434120000000  0.5537310000000  0.4576140000000 1.0
C      1  0.4762340000000  0.5677260000000  0.4514440000000 1.0
C      1  0.4354120000000  0.4836790000000  0.4631130000000 1.0
C      1  0.4970670000000  0.4291250000000  0.4603400000000 1.0
C      1  0.4540740000000  0.4741400000000  0.4978730000000 1.0
C      1  0.5009360000000  0.4434480000000  0.4973640000000 1.0
C      1  0.5583710000000  0.5020010000000  0.5062770000000 1.0
C      1  0.5235020000000  0.5501530000000  0.4935490000000 1.0
C      1  0.4660440000000  0.5458110000000  0.4991290000000 1.0
C      1  0.5202060000000  0.4820160000000  0.5520930000000 1.0
C      1  0.5233190000000  0.5137710000000  0.5411250000000 1.0
C      1  0.4964060000000  0.5274020000000  0.5452220000000 1.0
C      1  0.4721490000000  0.5038020000000  0.5418990000000 1.0
C      1  0.4905630000000  0.4750290000000  0.5392150000000 1.0
C      1  0.4845260000000  0.5563900000000  0.5329730000000 1.0
C      1  0.4389310000000  0.4987000000000  0.5390190000000 1.0
C      1  0.4799870000000  0.4452180000000  0.5364260000000 1.0
C      1  0.5435600000000  0.4624560000000  0.5456250000000 1.0
C      1  0.5476380000000  0.5337680000000  0.5428540000000 1.0
C      1  0.4811480000000  0.5114300000000  0.4396020000000 1.0
C      1  0.4789130000000  0.4791700000000  0.4287760000000 1.0
C      1  0.5102160000000  0.4792390000000  0.4364310000000 1.0
C      1  0.5272690000000  0.5050100000000  0.4249510000000 1.0
C      1  0.5061760000000  0.5287840000000  0.4259330000000 1.0
C      1  0.5092600000000  0.5638580000000  0.5545370000000 1.0
C      1  0.4349570000000  0.5175480000000  0.5655740000000 1.0
C      1  0.4593230000000  0.4405360000000  0.5599820000000 1.0
C      1  0.5400720000000  0.4380570000000  0.5650420000000 1.0
C      1  0.5663580000000  0.5223710000000  0.5653700000000 1.0
C      1  0.4766830000000  0.4486360000000  0.4772180000000 1.0
C      1  0.5433810000000  0.4606410000000  0.4817980000000 1.0
C      1  0.5488410000000  0.5327090000000  0.4828240000000 1.0
C      1  0.4862910000000  0.5544700000000  0.4760560000000 1.0
C      1  0.4454110000000  0.5032570000000  0.4884300000000 1.0
C      1  0.5637500000000  0.5791700000000  0.5064030000000 1.0
C      1  0.4595840000000  0.5791360000000  0.4971870000000 1.0
C      1  0.4026560000000  0.4768410000000  0.5119300000000 1.0
C      1  0.4896550000000  0.4135020000000  0.5088700000000 1.0
C      1  0.5888980000000  0.4529850000000  0.4977620000000 1.0
C      1  0.5236140000000  0.4843890000000  0.4718540000000 1.0
C      1  0.5228670000000  0.5136760000000  0.4774230000000 1.0
C      1  0.4938070000000  0.5251240000000  0.4680420000000 1.0
C      1  0.4773130000000  0.4992530000000  0.4773320000000 1.0
C      1  0.4933640000000  0.4742010000000  0.4655560000000 1.0
C      1  0.5344870000000  0.4402460000000  0.4239020000000 1.0
C      1  0.5744090000000  0.5216010000000  0.4246710000000 1.0
C      1  0.5030720000000  0.5812020000000  0.4280290000000 1.0
C      1  0.4368780000000  0.5314200000000  0.4331280000000 1.0
C      1  0.4475750000000  0.4394740000000  0.4297570000000 1.0
C      1  0.5629480000000  0.5318290000000  0.5137520000000 1.0
C      1  0.4976810000000  0.5694420000000  0.5044030000000 1.0
C      1  0.4299690000000  0.5157630000000  0.5134650000000 1.0
C      1  0.4622950000000  0.4425630000000  0.5074440000000 1.0
C      1  0.5409800000000  0.4500970000000  0.5140360000000 1.0
C      1  0.5745740000000  0.4961760000000  0.5667390000000 1.0
C      1  0.5356880000000  0.5621460000000  0.5473840000000 1.0
C      1  0.4433200000000  0.5441120000000  0.5651300000000 1.0
C      1  0.4369350000000  0.4535570000000  0.5625010000000 1.0
C      1  0.5201710000000  0.4225080000000  0.5636790000000 1.0
C      1  0.4840780000000  0.4751100000000  0.5849180000000 1.0
C      1  0.5131350000000  0.4825760000000  0.5822670000000 1.0
C      1  0.5146410000000  0.5088540000000  0.5953590000000 1.0
C      1  0.4890680000000  0.5211460000000  0.5903630000000 1.0
C      1  0.4727680000000  0.5013860000000  0.5758130000000 1.0
C      1  0.4477610000000  0.4693910000000  0.4356180000000 1.0
C      1  0.5097710000000  0.4306930000000  0.4302560000000 1.0
C      1  0.5594860000000  0.4959680000000  0.4321280000000 1.0
C      1  0.5227740000000  0.5577530000000  0.4324770000000 1.0
C      1  0.4540090000000  0.5518360000000  0.4336580000000 1.0
C      1  0.5407740000000  0.4685540000000  0.4341360000000 1.0
C      1  0.5460620000000  0.5334190000000  0.4304000000000 1.0
C      1  0.4846830000000  0.5533040000000  0.4217380000000 1.0
C      1  0.4486500000000  0.5032590000000  0.4384910000000 1.0
C      1  0.4799690000000  0.4457760000000  0.4359290000000 1.0
C      1  0.5801280000000  0.5574480000000  0.5091080000000 1.0
C      1  0.4803270000000  0.5980020000000  0.4980950000000 1.0
C      1  0.4012260000000  0.5032510000000  0.5126810000000 1.0
C      1  0.4602720000000  0.4087220000000  0.5047950000000 1.0
C      1  0.5721230000000  0.4378530000000  0.5091700000000 1.0
END
