TITL C-2622968-4806-731 -0.00155235219591848 125000 -905.150277208526 0 0 168 (C1) n - 1
REM
REM in /nfs/bkarasulu/CARBON/AIRSS/Generating-Clusters/AIREBO/with-SteepDescent/Higher-Symm/SD-CG/HFTN-CG
REM
REM
REM
REM
REM
REM ./C.cell (b20cbc046b6831c77cfcea5457e17084)
REM
REM compiler GCC version 9.2.1 20190827 (Red Hat 9.2.1-1)
REM options -cpp -mtune=generic -march=x86-64 -g -O0 -fpre-include=/usr/include/finclude/math-vector-fortran.h
REM seed 585889229 563067836 608666904 -952904204 -1113807229 -1914898829 1288080060 1710152778 305131449 2042001397 267221501 227396739 290748900 -1189118881 -1854540708 -1833871046 -515160398 555619415 83133476 -350185692 1189134543 2046405022 -2132133580 -178854986 1593286117 -772230384 -1021212293 788068981 1881588306 953263297 -1373175595 -1468820844 1464914588
REM
CELL 1.54180   50.00000   50.00000   50.00000   90.00000   90.00000   90.00000
LATT -1
SFAC C  
C      1  0.4702310000000  0.5923200000000  0.4972420000000 1.0
C      1  0.4876020000000  0.5945900000000  0.5271530000000 1.0
C      1  0.5212160000000  0.5920560000000  0.5208960000000 1.0
C      1  0.5240200000000  0.5931650000000  0.4860330000000 1.0
C      1  0.4928780000000  0.5913230000000  0.4710400000000 1.0
C      1  0.4312390000000  0.4145020000000  0.5140260000000 1.0
C      1  0.4889670000000  0.4145800000000  0.5692240000000 1.0
C      1  0.5616970000000  0.4113860000000  0.5287900000000 1.0
C      1  0.5466200000000  0.4124520000000  0.4499950000000 1.0
C      1  0.4654710000000  0.4177200000000  0.4420460000000 1.0
C      1  0.5820770000000  0.5346790000000  0.5167760000000 1.0
C      1  0.5382610000000  0.5314390000000  0.4276050000000 1.0
C      1  0.4444750000000  0.5337860000000  0.4404360000000 1.0
C      1  0.4267720000000  0.5329530000000  0.5352770000000 1.0
C      1  0.5075170000000  0.5347440000000  0.5837160000000 1.0
C      1  0.5398640000000  0.4769530000000  0.5024560000000 1.0
C      1  0.5181740000000  0.4784720000000  0.4692290000000 1.0
C      1  0.4804540000000  0.4818280000000  0.4796280000000 1.0
C      1  0.4764700000000  0.4695160000000  0.5170490000000 1.0
C      1  0.5116170000000  0.4792980000000  0.5338370000000 1.0
C      1  0.5247610000000  0.5787990000000  0.4316640000000 1.0
C      1  0.4419240000000  0.5791210000000  0.4553410000000 1.0
C      1  0.4387420000000  0.5806080000000  0.5404890000000 1.0
C      1  0.5181100000000  0.5809080000000  0.5720260000000 1.0
C      1  0.5723410000000  0.5815900000000  0.5036950000000 1.0
C      1  0.5332250000000  0.4185790000000  0.5402530000000 1.0
C      1  0.5490910000000  0.4191940000000  0.4809500000000 1.0
C      1  0.4962750000000  0.4210220000000  0.4459870000000 1.0
C      1  0.4437200000000  0.4151340000000  0.4885580000000 1.0
C      1  0.4713090000000  0.4198520000000  0.5464580000000 1.0
C      1  0.5100900000000  0.5264000000000  0.4407480000000 1.0
C      1  0.4502980000000  0.5268110000000  0.4701300000000 1.0
C      1  0.4566840000000  0.5267480000000  0.5423610000000 1.0
C      1  0.5205340000000  0.5303840000000  0.5559460000000 1.0
C      1  0.5625010000000  0.5290840000000  0.4929800000000 1.0
C      1  0.5625120000000  0.4584280000000  0.5203190000000 1.0
C      1  0.5358830000000  0.4591690000000  0.4477090000000 1.0
C      1  0.4650950000000  0.4636460000000  0.4570140000000 1.0
C      1  0.4434780000000  0.4614300000000  0.5185600000000 1.0
C      1  0.5017890000000  0.4628360000000  0.5622400000000 1.0
C      1  0.5708970000000  0.4309750000000  0.5122710000000 1.0
C      1  0.5333570000000  0.4318710000000  0.4363080000000 1.0
C      1  0.4526840000000  0.4368990000000  0.4565020000000 1.0
C      1  0.4378700000000  0.4344950000000  0.5303570000000 1.0
C      1  0.5069120000000  0.4350130000000  0.5748440000000 1.0
C      1  0.4674320000000  0.5018220000000  0.5114660000000 1.0
C      1  0.4918410000000  0.5069460000000  0.5345750000000 1.0
C      1  0.5316870000000  0.5073200000000  0.5136840000000 1.0
C      1  0.5207150000000  0.5094980000000  0.4752660000000 1.0
C      1  0.4871670000000  0.5121960000000  0.4704270000000 1.0
C      1  0.4389560000000  0.5163830000000  0.5081760000000 1.0
C      1  0.4860390000000  0.5147740000000  0.5664820000000 1.0
C      1  0.5547610000000  0.5201150000000  0.5308770000000 1.0
C      1  0.5447600000000  0.5182460000000  0.4582710000000 1.0
C      1  0.4721690000000  0.5140500000000  0.4399630000000 1.0
C      1  0.4084130000000  0.5070590000000  0.5359710000000 1.0
C      1  0.5094920000000  0.5072600000000  0.6011070000000 1.0
C      1  0.6004520000000  0.5079700000000  0.5186260000000 1.0
C      1  0.5470920000000  0.5077660000000  0.4082470000000 1.0
C      1  0.4354940000000  0.5077320000000  0.4253380000000 1.0
C      1  0.5068560000000  0.4329610000000  0.4173920000000 1.0
C      1  0.4237760000000  0.4349600000000  0.4693500000000 1.0
C      1  0.4460840000000  0.4362710000000  0.5612070000000 1.0
C      1  0.5403950000000  0.4347830000000  0.5692790000000 1.0
C      1  0.5804430000000  0.4324570000000  0.4811350000000 1.0
C      1  0.5599920000000  0.4623600000000  0.5612260000000 1.0
C      1  0.5802820000000  0.4610560000000  0.4603430000000 1.0
C      1  0.4875120000000  0.4598130000000  0.4088210000000 1.0
C      1  0.4076430000000  0.4620810000000  0.4822070000000 1.0
C      1  0.4559340000000  0.4655520000000  0.5755340000000 1.0
C      1  0.4649550000000  0.5895880000000  0.5521260000000 1.0
C      1  0.5380180000000  0.5848790000000  0.5497930000000 1.0
C      1  0.5569860000000  0.5883910000000  0.4786480000000 1.0
C      1  0.4958310000000  0.5828260000000  0.4380550000000 1.0
C      1  0.4392690000000  0.5844180000000  0.4851350000000 1.0
C      1  0.5274100000000  0.4580150000000  0.4071010000000 1.0
C      1  0.4215400000000  0.4587740000000  0.4449310000000 1.0
C      1  0.4213160000000  0.4592610000000  0.5566720000000 1.0
C      1  0.5323670000000  0.4606160000000  0.5898930000000 1.0
C      1  0.5951010000000  0.4586840000000  0.4973800000000 1.0
C      1  0.5148130000000  0.3996300000000  0.5186910000000 1.0
C      1  0.5211840000000  0.4019580000000  0.4901260000000 1.0
C      1  0.4965840000000  0.4042910000000  0.4743220000000 1.0
C      1  0.4712870000000  0.4054150000000  0.4897560000000 1.0
C      1  0.4812240000000  0.3991070000000  0.5214050000000 1.0
C      1  0.5989060000000  0.4843700000000  0.4766480000000 1.0
C      1  0.5088550000000  0.4830290000000  0.3960660000000 1.0
C      1  0.4061660000000  0.4859380000000  0.4584160000000 1.0
C      1  0.4289220000000  0.4855210000000  0.5768960000000 1.0
C      1  0.5542310000000  0.4855870000000  0.5853980000000 1.0
C      1  0.5735700000000  0.5003240000000  0.4605290000000 1.0
C      1  0.4865350000000  0.4989970000000  0.4146580000000 1.0
C      1  0.4176360000000  0.5005030000000  0.4869170000000 1.0
C      1  0.4563080000000  0.5051170000000  0.5799170000000 1.0
C      1  0.5588900000000  0.5021210000000  0.5580090000000 1.0
C      1  0.4804360000000  0.5604120000000  0.4175700000000 1.0
C      1  0.4163940000000  0.5603790000000  0.4926440000000 1.0
C      1  0.4674400000000  0.5729360000000  0.5776150000000 1.0
C      1  0.5627000000000  0.5624430000000  0.5566170000000 1.0
C      1  0.5730740000000  0.5729350000000  0.4548440000000 1.0
C      1  0.5474290000000  0.5495320000000  0.5340430000000 1.0
C      1  0.5514770000000  0.5497470000000  0.4671880000000 1.0
C      1  0.4825160000000  0.5459380000000  0.4456330000000 1.0
C      1  0.4432430000000  0.5480280000000  0.5022810000000 1.0
C      1  0.4789120000000  0.5471020000000  0.5586980000000 1.0
C      1  0.4580650000000  0.5086620000000  0.4029870000000 1.0
C      1  0.3956980000000  0.5104070000000  0.5073370000000 1.0
C      1  0.4768610000000  0.5111690000000  0.6049620000000 1.0
C      1  0.5886960000000  0.5112740000000  0.5501190000000 1.0
C      1  0.5730790000000  0.5097800000000  0.4294600000000 1.0
C      1  0.5755600000000  0.5400040000000  0.4452190000000 1.0
C      1  0.4680850000000  0.5411640000000  0.4002360000000 1.0
C      1  0.3953040000000  0.5430910000000  0.4979600000000 1.0
C      1  0.4687560000000  0.5412720000000  0.5906430000000 1.0
C      1  0.5835060000000  0.5429340000000  0.5617260000000 1.0
C      1  0.5280650000000  0.5024710000000  0.3858210000000 1.0
C      1  0.4070610000000  0.5019000000000  0.4339850000000 1.0
C      1  0.4047810000000  0.4976790000000  0.5643150000000 1.0
C      1  0.5386890000000  0.4996000000000  0.6072380000000 1.0
C      1  0.6145410000000  0.5035830000000  0.4918560000000 1.0
C      1  0.5063800000000  0.4933940000000  0.4410430000000 1.0
C      1  0.4493200000000  0.4950590000000  0.4760310000000 1.0
C      1  0.4555940000000  0.4960870000000  0.5490870000000 1.0
C      1  0.5280010000000  0.5015490000000  0.5536600000000 1.0
C      1  0.5616960000000  0.4992320000000  0.4889080000000 1.0
C      1  0.4762680000000  0.5483040000000  0.5248160000000 1.0
C      1  0.5154710000000  0.5498960000000  0.5316530000000 1.0
C      1  0.5343450000000  0.5478150000000  0.4965030000000 1.0
C      1  0.5071470000000  0.5467140000000  0.4678580000000 1.0
C      1  0.4706390000000  0.5465330000000  0.4853240000000 1.0
C      1  0.5444950000000  0.5719770000000  0.5128030000000 1.0
C      1  0.5257190000000  0.5707200000000  0.4617260000000 1.0
C      1  0.4699750000000  0.5693510000000  0.4646840000000 1.0
C      1  0.4571180000000  0.5709320000000  0.5177320000000 1.0
C      1  0.5001640000000  0.5713540000000  0.5478730000000 1.0
C      1  0.4756930000000  0.4710700000000  0.5492860000000 1.0
C      1  0.5367780000000  0.4585380000000  0.5377140000000 1.0
C      1  0.5517290000000  0.4591060000000  0.4760530000000 1.0
C      1  0.4930300000000  0.4621290000000  0.4418520000000 1.0
C      1  0.4377830000000  0.4662120000000  0.4898470000000 1.0
C      1  0.4774960000000  0.4446810000000  0.4938300000000 1.0
C      1  0.4889720000000  0.4317150000000  0.5198740000000 1.0
C      1  0.5181390000000  0.4393350000000  0.5188660000000 1.0
C      1  0.5255970000000  0.4415180000000  0.4884350000000 1.0
C      1  0.4984730000000  0.4439760000000  0.4701140000000 1.0
C      1  0.5151490000000  0.4871690000000  0.5774650000000 1.0
C      1  0.5781730000000  0.4850370000000  0.5106310000000 1.0
C      1  0.5344420000000  0.4849380000000  0.4266470000000 1.0
C      1  0.4436120000000  0.4846370000000  0.4447500000000 1.0
C      1  0.4307890000000  0.4844110000000  0.5369940000000 1.0
C      1  0.5883520000000  0.4768990000000  0.5493570000000 1.0
C      1  0.5754260000000  0.4753240000000  0.4298640000000 1.0
C      1  0.4576050000000  0.4743170000000  0.4030290000000 1.0
C      1  0.3941460000000  0.4763010000000  0.5082740000000 1.0
C      1  0.4776540000000  0.4774250000000  0.5988520000000 1.0
C      1  0.5006050000000  0.4593670000000  0.6019930000000 1.0
C      1  0.6032450000000  0.4614610000000  0.5302950000000 1.0
C      1  0.5611710000000  0.4603750000000  0.4104850000000 1.0
C      1  0.4347900000000  0.4613460000000  0.4137050000000 1.0
C      1  0.3970630000000  0.4635180000000  0.5332090000000 1.0
C      1  0.5918470000000  0.5642000000000  0.5117860000000 1.0
C      1  0.5361850000000  0.5603090000000  0.4153110000000 1.0
C      1  0.4309810000000  0.5611680000000  0.4380550000000 1.0
C      1  0.4198590000000  0.5615300000000  0.5459300000000 1.0
C      1  0.5178420000000  0.5629120000000  0.5926720000000 1.0
C      1  0.5002010000000  0.5130570000000  0.5021690000000 1.0
C      1  0.5059950000000  0.4739480000000  0.5007030000000 1.0
C      1  0.5006990000000  0.5460160000000  0.5012520000000 1.0
END
