TITL C-2622962-9663-786 0.00242667984804956 125000 -455.279131727748 0 0 81 (C1) n - 1
REM
REM in /nfs/bkarasulu/CARBON/AIRSS/Generating-Clusters/AIREBO/with-SteepDescent/Higher-Symm/SD-CG/HFTN-CG
REM
REM
REM
REM
REM
REM ./C.cell (b20cbc046b6831c77cfcea5457e17084)
REM
REM compiler GCC version 9.2.1 20190827 (Red Hat 9.2.1-1)
REM options -cpp -mtune=generic -march=x86-64 -g -O0 -fpre-include=/usr/include/finclude/math-vector-fortran.h
REM seed -1066468506 802724849 -372919553 -1985267478 1078600870 1108322480 -858660723 745241718 386505571 706470896 -882061659 -2007221086 -991734974 -747549553 -1802106370 547927653 1619565332 966142169 396148834 -1949656169 1589331348 199005637 -873005773 -1560386109 -1845733833 -1164649371 1150580885 -1199482699 -1873629723 618207973 -1052424680 2097848210 455676267
REM
CELL 1.54180   50.00000   50.00000   50.00000   90.00000   90.00000   90.00000
LATT -1
SFAC C  
C      1  0.4838510000000  0.5464660000000  0.5425810000000 1.0
C      1  0.4506190000000  0.4996470000000  0.5551110000000 1.0
C      1  0.4907390000000  0.4497650000000  0.5393500000000 1.0
C      1  0.5438080000000  0.4689190000000  0.5443320000000 1.0
C      1  0.5330060000000  0.5361200000000  0.5460910000000 1.0
C      1  0.5088960000000  0.4764260000000  0.5776750000000 1.0
C      1  0.5245300000000  0.5010070000000  0.5764020000000 1.0
C      1  0.5062340000000  0.5233370000000  0.5806730000000 1.0
C      1  0.4793570000000  0.5126020000000  0.5800300000000 1.0
C      1  0.4811370000000  0.4842640000000  0.5758200000000 1.0
C      1  0.5210990000000  0.5437450000000  0.4460260000000 1.0
C      1  0.4682820000000  0.5368380000000  0.4425840000000 1.0
C      1  0.4532350000000  0.4715250000000  0.4463270000000 1.0
C      1  0.5158200000000  0.4335840000000  0.4553370000000 1.0
C      1  0.5594590000000  0.4760880000000  0.4539310000000 1.0
C      1  0.4727480000000  0.5938610000000  0.5126440000000 1.0
C      1  0.4195270000000  0.5121830000000  0.5190260000000 1.0
C      1  0.4808600000000  0.4192660000000  0.4969170000000 1.0
C      1  0.5691870000000  0.4404390000000  0.5056600000000 1.0
C      1  0.5685800000000  0.5392170000000  0.5148850000000 1.0
C      1  0.5291730000000  0.4610230000000  0.5146630000000 1.0
C      1  0.5463160000000  0.5148020000000  0.5068450000000 1.0
C      1  0.4942430000000  0.5539450000000  0.5107530000000 1.0
C      1  0.4376530000000  0.4943640000000  0.4999700000000 1.0
C      1  0.4702910000000  0.4544940000000  0.5125770000000 1.0
C      1  0.4969380000000  0.4247580000000  0.5200220000000 1.0
C      1  0.5677720000000  0.4650840000000  0.5240170000000 1.0
C      1  0.5431940000000  0.5504830000000  0.5243440000000 1.0
C      1  0.4662600000000  0.5721840000000  0.5327000000000 1.0
C      1  0.4290500000000  0.4905100000000  0.5384100000000 1.0
C      1  0.5562380000000  0.5234560000000  0.4754880000000 1.0
C      1  0.4883260000000  0.5604690000000  0.4779050000000 1.0
C      1  0.4394380000000  0.5018130000000  0.4684200000000 1.0
C      1  0.4748050000000  0.4547840000000  0.4799940000000 1.0
C      1  0.5346970000000  0.4610260000000  0.4811820000000 1.0
C      1  0.4773290000000  0.4525640000000  0.4461520000000 1.0
C      1  0.5324040000000  0.4602920000000  0.4472260000000 1.0
C      1  0.5553550000000  0.5046770000000  0.4476210000000 1.0
C      1  0.4941260000000  0.5532210000000  0.4466090000000 1.0
C      1  0.4428710000000  0.5205140000000  0.4402290000000 1.0
C      1  0.4958560000000  0.4291700000000  0.4724370000000 1.0
C      1  0.5670270000000  0.4670210000000  0.4843540000000 1.0
C      1  0.5368760000000  0.5490350000000  0.4707110000000 1.0
C      1  0.4631830000000  0.5715710000000  0.4934430000000 1.0
C      1  0.4358680000000  0.4680150000000  0.4699850000000 1.0
C      1  0.5384810000000  0.5029650000000  0.5462060000000 1.0
C      1  0.5097970000000  0.5424650000000  0.5600370000000 1.0
C      1  0.4641470000000  0.5259730000000  0.5583630000000 1.0
C      1  0.4716670000000  0.4756020000000  0.5463020000000 1.0
C      1  0.5159980000000  0.4584720000000  0.5569200000000 1.0
C      1  0.5506030000000  0.4195360000000  0.5103180000000 1.0
C      1  0.5869010000000  0.5172510000000  0.5105340000000 1.0
C      1  0.4976160000000  0.6058930000000  0.5079240000000 1.0
C      1  0.4250140000000  0.5390630000000  0.5180700000000 1.0
C      1  0.4520310000000  0.4245930000000  0.4933810000000 1.0
C      1  0.4063110000000  0.5589330000000  0.5203330000000 1.0
C      1  0.4368720000000  0.4497110000000  0.4914320000000 1.0
C      1  0.5567180000000  0.3934040000000  0.5100600000000 1.0
C      1  0.6141460000000  0.5182450000000  0.5104940000000 1.0
C      1  0.5206730000000  0.5929430000000  0.5007520000000 1.0
C      1  0.5145560000000  0.4839960000000  0.4854310000000 1.0
C      1  0.5265860000000  0.5096290000000  0.4734360000000 1.0
C      1  0.5023460000000  0.5312110000000  0.4789380000000 1.0
C      1  0.4686920000000  0.5099410000000  0.4807120000000 1.0
C      1  0.4856830000000  0.4813130000000  0.4726680000000 1.0
C      1  0.4788500000000  0.5236200000000  0.5101470000000 1.0
C      1  0.4653910000000  0.4939510000000  0.5185240000000 1.0
C      1  0.4933350000000  0.4784000000000  0.5116050000000 1.0
C      1  0.5188190000000  0.4919380000000  0.5243210000000 1.0
C      1  0.5125080000000  0.5186780000000  0.5088800000000 1.0
C      1  0.5259040000000  0.5128520000000  0.4326520000000 1.0
C      1  0.4926260000000  0.5180420000000  0.4277560000000 1.0
C      1  0.4649280000000  0.4983620000000  0.4291540000000 1.0
C      1  0.4892410000000  0.4755520000000  0.4299100000000 1.0
C      1  0.5166270000000  0.4802920000000  0.4299310000000 1.0
C      1  0.5708780000000  0.4911280000000  0.5058000000000 1.0
C      1  0.5257460000000  0.5614390000000  0.5003820000000 1.0
C      1  0.4539080000000  0.5463610000000  0.5143480000000 1.0
C      1  0.4387230000000  0.4643320000000  0.5202670000000 1.0
C      1  0.5252440000000  0.4300970000000  0.5160920000000 1.0
C      1  0.4910480000000  0.5084130000000  0.4576500000000 1.0
END
