TITL C-2622956-4641-835 0.000749693550295568 125000 -426.295236983162 0 0 74 (C1) n - 1
REM
REM in /nfs/bkarasulu/CARBON/AIRSS/Generating-Clusters/AIREBO/with-SteepDescent/Higher-Symm/SD-CG/HFTN-CG
REM
REM
REM
REM
REM
REM ./C.cell (b20cbc046b6831c77cfcea5457e17084)
REM
REM compiler GCC version 9.2.1 20190827 (Red Hat 9.2.1-1)
REM options -cpp -mtune=generic -march=x86-64 -g -O0 -fpre-include=/usr/include/finclude/math-vector-fortran.h
REM seed -691105685 1398713421 -1186497142 -1328553689 239777387 -816369745 1829254715 1630428761 247640635 -357048016 666454269 433308096 228703305 -1707191029 -1778621755 -283158132 -1308172474 -130624905 175288662 1326766594 926176576 -2125254127 -1997721198 721060467 -167534586 1389259729 -118334009 368807562 -134864353 -5866313 844946758 1146945 864793190
REM
CELL 1.54180   50.00000   50.00000   50.00000   90.00000   90.00000   90.00000
LATT -1
SFAC C  
C      1  0.5345350000000  0.5118460000000  0.5612320000000 1.0
C      1  0.5380850000000  0.5124880000000  0.4369010000000 1.0
C      1  0.4220080000000  0.5144720000000  0.4929990000000 1.0
C      1  0.5381480000000  0.4843230000000  0.5608150000000 1.0
C      1  0.5342250000000  0.4850940000000  0.4364060000000 1.0
C      1  0.4249840000000  0.4872580000000  0.4931420000000 1.0
C      1  0.4629470000000  0.5160280000000  0.5657530000000 1.0
C      1  0.4604320000000  0.5167620000000  0.4354130000000 1.0
C      1  0.5713170000000  0.5148680000000  0.4940710000000 1.0
C      1  0.4643630000000  0.4889450000000  0.5668740000000 1.0
C      1  0.4596510000000  0.4889380000000  0.4435700000000 1.0
C      1  0.5746490000000  0.4866990000000  0.4950590000000 1.0
C      1  0.4699570000000  0.4355620000000  0.4520000000000 1.0
C      1  0.4729780000000  0.4326420000000  0.5475110000000 1.0
C      1  0.5581550000000  0.4389760000000  0.4952930000000 1.0
C      1  0.4687280000000  0.5586080000000  0.4603920000000 1.0
C      1  0.4752860000000  0.5723290000000  0.5500680000000 1.0
C      1  0.5612470000000  0.5645020000000  0.4941190000000 1.0
C      1  0.5295870000000  0.4368890000000  0.4532320000000 1.0
C      1  0.5237040000000  0.4298300000000  0.5518610000000 1.0
C      1  0.4469120000000  0.4324440000000  0.4969380000000 1.0
C      1  0.5288860000000  0.5662200000000  0.4525820000000 1.0
C      1  0.5256520000000  0.5682720000000  0.5511390000000 1.0
C      1  0.4490720000000  0.5665000000000  0.4973240000000 1.0
C      1  0.5170570000000  0.5847780000000  0.5300560000000 1.0
C      1  0.5159830000000  0.5796050000000  0.4727310000000 1.0
C      1  0.4749970000000  0.5789470000000  0.5010060000000 1.0
C      1  0.5144080000000  0.4176670000000  0.5285940000000 1.0
C      1  0.5148200000000  0.4242250000000  0.4727480000000 1.0
C      1  0.4733220000000  0.4208080000000  0.4986240000000 1.0
C      1  0.4878690000000  0.5841060000000  0.5266670000000 1.0
C      1  0.4879220000000  0.5804740000000  0.4743880000000 1.0
C      1  0.5327010000000  0.5783020000000  0.5007060000000 1.0
C      1  0.4857490000000  0.4195940000000  0.5249570000000 1.0
C      1  0.4867420000000  0.4230360000000  0.4729700000000 1.0
C      1  0.5294580000000  0.4260610000000  0.5008910000000 1.0
C      1  0.4836470000000  0.4617000000000  0.5603530000000 1.0
C      1  0.5633560000000  0.4621280000000  0.4806830000000 1.0
C      1  0.4531430000000  0.4597670000000  0.4535340000000 1.0
C      1  0.4817940000000  0.5420160000000  0.5566710000000 1.0
C      1  0.5648860000000  0.5408400000000  0.4796550000000 1.0
C      1  0.4480890000000  0.5396520000000  0.4477240000000 1.0
C      1  0.5164330000000  0.4605160000000  0.5626090000000 1.0
C      1  0.4445870000000  0.4615160000000  0.4826900000000 1.0
C      1  0.5410100000000  0.4665480000000  0.4590840000000 1.0
C      1  0.5153510000000  0.5371010000000  0.5541050000000 1.0
C      1  0.4387410000000  0.5398010000000  0.4789810000000 1.0
C      1  0.5437310000000  0.5377150000000  0.4588750000000 1.0
C      1  0.5070690000000  0.4787040000000  0.4300820000000 1.0
C      1  0.4410420000000  0.4777330000000  0.5171200000000 1.0
C      1  0.5615460000000  0.4759860000000  0.5464280000000 1.0
C      1  0.5112620000000  0.5268810000000  0.4388460000000 1.0
C      1  0.4357340000000  0.5285410000000  0.5171610000000 1.0
C      1  0.5515500000000  0.5264090000000  0.5410100000000 1.0
C      1  0.4874720000000  0.4798900000000  0.4507570000000 1.0
C      1  0.5599090000000  0.4748160000000  0.5183990000000 1.0
C      1  0.4492780000000  0.4739270000000  0.5447610000000 1.0
C      1  0.4867180000000  0.5234150000000  0.4258620000000 1.0
C      1  0.5509480000000  0.5242120000000  0.5131740000000 1.0
C      1  0.4427840000000  0.5293020000000  0.5457220000000 1.0
C      1  0.5118030000000  0.5347020000000  0.4702950000000 1.0
C      1  0.4637590000000  0.5293410000000  0.4987690000000 1.0
C      1  0.5036550000000  0.5313010000000  0.5251690000000 1.0
C      1  0.5217360000000  0.4756550000000  0.4820130000000 1.0
C      1  0.4718360000000  0.4733750000000  0.4971160000000 1.0
C      1  0.5100370000000  0.4710890000000  0.5322150000000 1.0
C      1  0.4836250000000  0.5410650000000  0.4793150000000 1.0
C      1  0.5242560000000  0.5263250000000  0.5006150000000 1.0
C      1  0.4737230000000  0.5249440000000  0.5283930000000 1.0
C      1  0.4944760000000  0.4781760000000  0.4780400000000 1.0
C      1  0.5329480000000  0.4682150000000  0.5098170000000 1.0
C      1  0.4778210000000  0.4678410000000  0.5273150000000 1.0
C      1  0.5099200000000  0.5557570000000  0.5041330000000 1.0
C      1  0.5052900000000  0.4492140000000  0.5065230000000 1.0
END
