TITL C-2622958-629-517 2.09755502679201e-08 125000 -69.0278101395681 0 0 13 (S4) n - 1
REM
REM in /nfs/bkarasulu/CARBON/AIRSS/Generating-Clusters/AIREBO/with-SteepDescent/Higher-Symm/SD-CG/HFTN-CG
REM
REM
REM
REM
REM
REM ./C.cell (b20cbc046b6831c77cfcea5457e17084)
REM
REM compiler GCC version 9.2.1 20190827 (Red Hat 9.2.1-1)
REM options -cpp -mtune=generic -march=x86-64 -g -O0 -fpre-include=/usr/include/finclude/math-vector-fortran.h
REM seed 746244136 263005993 -1893113921 -2092650256 40285906 -31312017 -720281277 1500356839 -1326975206 2115792030 -1782700396 -1154583055 -754086268 584855413 146954119 1609504857 -417930338 -876814547 -1996341198 -1206527800 1103031501 -1078972099 -1220356252 1200989311 843433555 -1692028344 1277436064 -1487314725 225773719 746856811 -222634949 2063286032 1688591886
REM
CELL 1.54180   50.00000   50.00000   50.00000   90.00000   90.00000   90.00000
LATT -1
SFAC C  
C      1  0.5332230000000  0.5143070000000  0.4568810000000 1.0
C      1  0.5104160000000  0.4640370000000  0.5398940000000 1.0
C      1  0.4601450000000  0.4868470000000  0.4568820000000 1.0
C      1  0.4829560000000  0.5371150000000  0.5398960000000 1.0
C      1  0.4902860000000  0.5149420000000  0.5270750000000 1.0
C      1  0.5110510000000  0.5069770000000  0.4697010000000 1.0
C      1  0.5030860000000  0.4862100000000  0.5270750000000 1.0
C      1  0.4823190000000  0.4941770000000  0.4697020000000 1.0
C      1  0.5540550000000  0.5239110000000  0.4441980000000 1.0
C      1  0.5200200000000  0.4432050000000  0.5525760000000 1.0
C      1  0.4393130000000  0.4772440000000  0.4442000000000 1.0
C      1  0.4733530000000  0.5579470000000  0.5525790000000 1.0
C      1  0.4966850000000  0.5005760000000  0.4983880000000 1.0
END
