TITL C-2622962-9663-395 0.000834391214305851 125000 -734.905687514199 0 0 136 (C1) n - 1
REM
REM in /nfs/bkarasulu/CARBON/AIRSS/Generating-Clusters/AIREBO/with-SteepDescent/Higher-Symm/SD-CG/HFTN-CG
REM
REM
REM
REM
REM
REM ./C.cell (b20cbc046b6831c77cfcea5457e17084)
REM
REM compiler GCC version 9.2.1 20190827 (Red Hat 9.2.1-1)
REM options -cpp -mtune=generic -march=x86-64 -g -O0 -fpre-include=/usr/include/finclude/math-vector-fortran.h
REM seed -984676675 515792572 -336911715 105059622 281569122 713378168 1142065292 1076793375 62990513 -1039892306 -35497162 -1511754997 1305444193 2056500572 -1791006084 1840336850 202787477 -1262470002 -1605398119 1973806794 1229795760 1870380051 484000889 -684684880 -566825728 -2060638775 -1546162310 -385778233 593057988 -554170995 125479224 1323154524 545674048
REM
CELL 1.54180   50.00000   50.00000   50.00000   90.00000   90.00000   90.00000
LATT -1
SFAC C  
C      1  0.5355230000000  0.4047110000000  0.5147240000000 1.0
C      1  0.5174490000000  0.4064120000000  0.5398950000000 1.0
C      1  0.4947470000000  0.3918480000000  0.5449760000000 1.0
C      1  0.4759710000000  0.3799270000000  0.5292490000000 1.0
C      1  0.4671100000000  0.3819930000000  0.5036450000000 1.0
C      1  0.4770700000000  0.3827370000000  0.4783410000000 1.0
C      1  0.5003080000000  0.3930420000000  0.4664370000000 1.0
C      1  0.5246940000000  0.3800900000000  0.4729280000000 1.0
C      1  0.5406010000000  0.3880980000000  0.4938500000000 1.0
C      1  0.5444140000000  0.5264860000000  0.4758290000000 1.0
C      1  0.5415010000000  0.5237220000000  0.5303420000000 1.0
C      1  0.5085140000000  0.5331590000000  0.5279590000000 1.0
C      1  0.4862350000000  0.5270130000000  0.5493810000000 1.0
C      1  0.4541560000000  0.5293930000000  0.5372680000000 1.0
C      1  0.4649320000000  0.5411200000000  0.5081910000000 1.0
C      1  0.4680730000000  0.5274020000000  0.4533990000000 1.0
C      1  0.4953560000000  0.5319200000000  0.4716870000000 1.0
C      1  0.5229970000000  0.5286470000000  0.4525030000000 1.0
C      1  0.4933260000000  0.4806650000000  0.4404640000000 1.0
C      1  0.5333440000000  0.4813790000000  0.4334490000000 1.0
C      1  0.5655100000000  0.4965550000000  0.4731330000000 1.0
C      1  0.5638860000000  0.4995600000000  0.5217810000000 1.0
C      1  0.5375470000000  0.4864850000000  0.5612650000000 1.0
C      1  0.4909650000000  0.5000480000000  0.5632100000000 1.0
C      1  0.4517290000000  0.4957890000000  0.5419500000000 1.0
C      1  0.4316900000000  0.4974530000000  0.5061530000000 1.0
C      1  0.4474610000000  0.4878690000000  0.4579580000000 1.0
C      1  0.4509660000000  0.4650320000000  0.4212040000000 1.0
C      1  0.5029210000000  0.4719920000000  0.4027070000000 1.0
C      1  0.5742130000000  0.4707970000000  0.4351820000000 1.0
C      1  0.5890200000000  0.4656000000000  0.4972530000000 1.0
C      1  0.5717040000000  0.4665940000000  0.5577130000000 1.0
C      1  0.5216490000000  0.4695570000000  0.5933010000000 1.0
C      1  0.4623980000000  0.4677320000000  0.5777060000000 1.0
C      1  0.4177890000000  0.4690960000000  0.5359890000000 1.0
C      1  0.4115320000000  0.4761880000000  0.4703740000000 1.0
C      1  0.4465620000000  0.5596330000000  0.5508370000000 1.0
C      1  0.4528780000000  0.5580090000000  0.4905600000000 1.0
C      1  0.4667610000000  0.5582800000000  0.4625470000000 1.0
C      1  0.4997230000000  0.5608430000000  0.4544060000000 1.0
C      1  0.5328980000000  0.5608610000000  0.4592780000000 1.0
C      1  0.5507600000000  0.5545430000000  0.4875220000000 1.0
C      1  0.5514830000000  0.5533960000000  0.5177790000000 1.0
C      1  0.5253180000000  0.5591410000000  0.5362800000000 1.0
C      1  0.4738360000000  0.5549640000000  0.5607890000000 1.0
C      1  0.4402940000000  0.5867600000000  0.5471350000000 1.0
C      1  0.4397110000000  0.5812320000000  0.4984670000000 1.0
C      1  0.4559700000000  0.5896900000000  0.4621760000000 1.0
C      1  0.4915330000000  0.5897050000000  0.4440820000000 1.0
C      1  0.5355080000000  0.5922470000000  0.4516140000000 1.0
C      1  0.5595810000000  0.5853980000000  0.4827180000000 1.0
C      1  0.5561420000000  0.5837730000000  0.5298040000000 1.0
C      1  0.5208930000000  0.5820650000000  0.5484470000000 1.0
C      1  0.4857250000000  0.5800090000000  0.5672160000000 1.0
C      1  0.3996850000000  0.5325880000000  0.4721170000000 1.0
C      1  0.4345780000000  0.5196420000000  0.4070180000000 1.0
C      1  0.5164600000000  0.5209530000000  0.3805350000000 1.0
C      1  0.5889200000000  0.5197060000000  0.4100060000000 1.0
C      1  0.6066400000000  0.5208520000000  0.4756100000000 1.0
C      1  0.5945190000000  0.5266870000000  0.5470750000000 1.0
C      1  0.5041950000000  0.5257980000000  0.6350550000000 1.0
C      1  0.4224680000000  0.5197230000000  0.6103990000000 1.0
C      1  0.3843690000000  0.5332030000000  0.5473540000000 1.0
C      1  0.4602470000000  0.6035270000000  0.5341500000000 1.0
C      1  0.4566380000000  0.6034370000000  0.5061000000000 1.0
C      1  0.4689780000000  0.6105520000000  0.4807070000000 1.0
C      1  0.4939350000000  0.6095350000000  0.4650400000000 1.0
C      1  0.5218150000000  0.6118310000000  0.4701990000000 1.0
C      1  0.5405210000000  0.6053330000000  0.4917100000000 1.0
C      1  0.5379130000000  0.6041720000000  0.5198030000000 1.0
C      1  0.5130180000000  0.6093670000000  0.5369480000000 1.0
C      1  0.4857100000000  0.6010150000000  0.5469940000000 1.0
C      1  0.5912270000000  0.5155920000000  0.5213610000000 1.0
C      1  0.5507790000000  0.5108440000000  0.5578130000000 1.0
C      1  0.4853190000000  0.5043220000000  0.5955180000000 1.0
C      1  0.4441580000000  0.5165280000000  0.5678110000000 1.0
C      1  0.4247550000000  0.5189270000000  0.5237410000000 1.0
C      1  0.4386770000000  0.5151120000000  0.4463180000000 1.0
C      1  0.4744260000000  0.5036530000000  0.4328820000000 1.0
C      1  0.5285940000000  0.5111110000000  0.4292050000000 1.0
C      1  0.5879080000000  0.5107440000000  0.4589050000000 1.0
C      1  0.6089590000000  0.5082330000000  0.5008260000000 1.0
C      1  0.5782820000000  0.5120890000000  0.5652320000000 1.0
C      1  0.5038460000000  0.5061650000000  0.6167660000000 1.0
C      1  0.4370670000000  0.5067120000000  0.5919770000000 1.0
C      1  0.4018410000000  0.5143690000000  0.5395510000000 1.0
C      1  0.4109960000000  0.5091230000000  0.4617700000000 1.0
C      1  0.4510560000000  0.4978830000000  0.4123570000000 1.0
C      1  0.5197190000000  0.5016500000000  0.3998970000000 1.0
C      1  0.5894620000000  0.5009930000000  0.4302210000000 1.0
C      1  0.5745940000000  0.4342700000000  0.5285900000000 1.0
C      1  0.5545860000000  0.4329960000000  0.5877960000000 1.0
C      1  0.4907740000000  0.4405860000000  0.5718710000000 1.0
C      1  0.4402050000000  0.4329670000000  0.5542840000000 1.0
C      1  0.3953030000000  0.4457150000000  0.5014760000000 1.0
C      1  0.4143040000000  0.4339860000000  0.4415970000000 1.0
C      1  0.4810000000000  0.4281480000000  0.4034290000000 1.0
C      1  0.5537440000000  0.4313690000000  0.4131930000000 1.0
C      1  0.5817400000000  0.4339170000000  0.4653920000000 1.0
C      1  0.4647250000000  0.4797840000000  0.4818540000000 1.0
C      1  0.4905140000000  0.4678790000000  0.4700070000000 1.0
C      1  0.5207390000000  0.4704730000000  0.4589320000000 1.0
C      1  0.5414480000000  0.4557430000000  0.4777120000000 1.0
C      1  0.5435170000000  0.5019110000000  0.4970150000000 1.0
C      1  0.5224150000000  0.4834750000000  0.5132070000000 1.0
C      1  0.5121490000000  0.4838070000000  0.5449260000000 1.0
C      1  0.4909450000000  0.4769150000000  0.5117230000000 1.0
C      1  0.4621290000000  0.4904780000000  0.5111600000000 1.0
C      1  0.4467880000000  0.4491470000000  0.5001600000000 1.0
C      1  0.4555730000000  0.4492230000000  0.4700620000000 1.0
C      1  0.4818610000000  0.4393910000000  0.4535880000000 1.0
C      1  0.5029050000000  0.4196340000000  0.4596610000000 1.0
C      1  0.5271580000000  0.4311900000000  0.4628680000000 1.0
C      1  0.5395340000000  0.4577980000000  0.5083570000000 1.0
C      1  0.5238600000000  0.4350050000000  0.5231750000000 1.0
C      1  0.5014610000000  0.4536610000000  0.5333640000000 1.0
C      1  0.4691450000000  0.4530520000000  0.5223050000000 1.0
C      1  0.5875560000000  0.4855790000000  0.5693970000000 1.0
C      1  0.5219540000000  0.4845350000000  0.6158120000000 1.0
C      1  0.4469120000000  0.4805630000000  0.5959020000000 1.0
C      1  0.3998120000000  0.4867430000000  0.5462340000000 1.0
C      1  0.3866360000000  0.4870010000000  0.4532000000000 1.0
C      1  0.4458440000000  0.4725280000000  0.3903090000000 1.0
C      1  0.5339430000000  0.4722830000000  0.3948040000000 1.0
C      1  0.6048330000000  0.4712130000000  0.4244810000000 1.0
C      1  0.6118710000000  0.4800880000000  0.4991740000000 1.0
C      1  0.4489080000000  0.4624370000000  0.5479650000000 1.0
C      1  0.4177730000000  0.4666460000000  0.5024450000000 1.0
C      1  0.4313740000000  0.4593880000000  0.4484470000000 1.0
C      1  0.4820890000000  0.4539660000000  0.4226540000000 1.0
C      1  0.5519530000000  0.4589360000000  0.4164610000000 1.0
C      1  0.5715260000000  0.4634570000000  0.4681730000000 1.0
C      1  0.5687630000000  0.4657740000000  0.5238020000000 1.0
C      1  0.5466470000000  0.4578150000000  0.5771350000000 1.0
C      1  0.4952860000000  0.4697920000000  0.5781730000000 1.0
C      1  0.4920140000000  0.5348920000000  0.5017710000000 1.0
END
