TITL C-2622962-9663-769 -0.00185194956611424 125000 -310.053297129096 0 0 58 (C1) n - 1
REM
REM in /nfs/bkarasulu/CARBON/AIRSS/Generating-Clusters/AIREBO/with-SteepDescent/Higher-Symm/SD-CG/HFTN-CG
REM
REM
REM
REM
REM
REM ./C.cell (b20cbc046b6831c77cfcea5457e17084)
REM
REM compiler GCC version 9.2.1 20190827 (Red Hat 9.2.1-1)
REM options -cpp -mtune=generic -march=x86-64 -g -O0 -fpre-include=/usr/include/finclude/math-vector-fortran.h
REM seed 370026974 -967971369 1687827380 -1583920463 -452219715 842663377 114782216 -1852886190 259292953 -270848774 1354025361 1922410332 25850239 -226769264 -799096074 79394501 589341378 636907273 411856996 -85252131 1912242909 2043733435 -1348341637 333116284 -821265841 715772202 1172905583 -1086427187 -1222057965 1350540220 976439697 -1325681265 1156127733
REM
CELL 1.54180   50.00000   50.00000   50.00000   90.00000   90.00000   90.00000
LATT -1
SFAC C  
C      1  0.4685860000000  0.4486150000000  0.5154930000000 1.0
C      1  0.5260250000000  0.5550260000000  0.5146650000000 1.0
C      1  0.4740210000000  0.4397000000000  0.4846120000000 1.0
C      1  0.5307350000000  0.5453170000000  0.4829180000000 1.0
C      1  0.4863910000000  0.5805750000000  0.4930010000000 1.0
C      1  0.5035260000000  0.4232810000000  0.4848930000000 1.0
C      1  0.4958990000000  0.5709370000000  0.5182000000000 1.0
C      1  0.4990770000000  0.4334870000000  0.5154410000000 1.0
C      1  0.4643030000000  0.4938900000000  0.5649740000000 1.0
C      1  0.5218160000000  0.5126650000000  0.5851250000000 1.0
C      1  0.4686980000000  0.4899170000000  0.4317520000000 1.0
C      1  0.5303270000000  0.5054800000000  0.4359710000000 1.0
C      1  0.5573770000000  0.5420560000000  0.5121440000000 1.0
C      1  0.4383500000000  0.4602880000000  0.5165240000000 1.0
C      1  0.5627000000000  0.5405600000000  0.4820820000000 1.0
C      1  0.4446820000000  0.4525270000000  0.4840000000000 1.0
C      1  0.4858390000000  0.5282760000000  0.4921110000000 1.0
C      1  0.5150380000000  0.4720030000000  0.4845740000000 1.0
C      1  0.4849370000000  0.5198910000000  0.5230160000000 1.0
C      1  0.5140820000000  0.4704540000000  0.5138090000000 1.0
C      1  0.4867720000000  0.4711730000000  0.5257600000000 1.0
C      1  0.5181860000000  0.5127360000000  0.5220150000000 1.0
C      1  0.4946710000000  0.4939960000000  0.4719920000000 1.0
C      1  0.5164790000000  0.5148210000000  0.4877260000000 1.0
C      1  0.5270800000000  0.4443500000000  0.5313800000000 1.0
C      1  0.4739690000000  0.5487440000000  0.5317120000000 1.0
C      1  0.5266000000000  0.4431050000000  0.4696410000000 1.0
C      1  0.4811830000000  0.5569210000000  0.4740480000000 1.0
C      1  0.4415080000000  0.5011580000000  0.5822280000000 1.0
C      1  0.5468300000000  0.5073330000000  0.5720580000000 1.0
C      1  0.4399140000000  0.5038730000000  0.4363060000000 1.0
C      1  0.5516960000000  0.5046990000000  0.4151980000000 1.0
C      1  0.5678600000000  0.4900490000000  0.5135450000000 1.0
C      1  0.4319810000000  0.5252080000000  0.5167660000000 1.0
C      1  0.5693700000000  0.4878860000000  0.4860480000000 1.0
C      1  0.4352410000000  0.5176510000000  0.4873980000000 1.0
C      1  0.4422910000000  0.4846370000000  0.4855230000000 1.0
C      1  0.5673870000000  0.5147530000000  0.4718970000000 1.0
C      1  0.4419190000000  0.4936370000000  0.5183270000000 1.0
C      1  0.5656590000000  0.5188280000000  0.5247560000000 1.0
C      1  0.5436990000000  0.5027680000000  0.5421740000000 1.0
C      1  0.4691680000000  0.4961680000000  0.5330060000000 1.0
C      1  0.5379470000000  0.5006590000000  0.4654550000000 1.0
C      1  0.4620920000000  0.5002420000000  0.4634810000000 1.0
C      1  0.5100960000000  0.5207950000000  0.5540570000000 1.0
C      1  0.4875760000000  0.4698030000000  0.5584480000000 1.0
C      1  0.5044590000000  0.5238330000000  0.4470020000000 1.0
C      1  0.4913250000000  0.4711270000000  0.4478540000000 1.0
C      1  0.5072160000000  0.5443600000000  0.4624010000000 1.0
C      1  0.4944420000000  0.4449890000000  0.4594980000000 1.0
C      1  0.5066250000000  0.5481640000000  0.5411610000000 1.0
C      1  0.4983080000000  0.4408770000000  0.5490070000000 1.0
C      1  0.5439950000000  0.4729020000000  0.5281240000000 1.0
C      1  0.4431060000000  0.5460980000000  0.5303610000000 1.0
C      1  0.5463960000000  0.4692330000000  0.4733570000000 1.0
C      1  0.4588770000000  0.5326780000000  0.4734300000000 1.0
C      1  0.4954200000000  0.4979380000000  0.5738820000000 1.0
C      1  0.5002510000000  0.4968590000000  0.4274310000000 1.0
END
