TITL C-2622956-4641-570 -0.00355493262432886 125000 -766.900204472583 0 0 136 (C1) n - 1
REM
REM in /nfs/bkarasulu/CARBON/AIRSS/Generating-Clusters/AIREBO/with-SteepDescent/Higher-Symm/SD-CG/HFTN-CG
REM
REM
REM
REM
REM
REM ./C.cell (b20cbc046b6831c77cfcea5457e17084)
REM
REM compiler GCC version 9.2.1 20190827 (Red Hat 9.2.1-1)
REM options -cpp -mtune=generic -march=x86-64 -g -O0 -fpre-include=/usr/include/finclude/math-vector-fortran.h
REM seed 373877052 -1265130575 -1167320742 1885981464 -965828850 1082308647 416566775 -1898792322 110429854 -1809751077 1298640890 105462909 1278400837 1486088878 1611875519 -398398046 2098103534 -418864191 -679409505 669459015 -1992136847 1507825001 -1417187859 2042464871 145085824 -702040936 60548449 -1941618926 69270365 840198949 255636450 -1723018901 -1602330379
REM
CELL 1.54180   50.00000   50.00000   50.00000   90.00000   90.00000   90.00000
LATT -1
SFAC C  
C      1  0.5347370000000  0.4226660000000  0.4708180000000 1.0
C      1  0.5368820000000  0.5592440000000  0.4370120000000 1.0
C      1  0.5304150000000  0.5325650000000  0.5882430000000 1.0
C      1  0.4721690000000  0.5816180000000  0.4828840000000 1.0
C      1  0.4680780000000  0.4350450000000  0.4392490000000 1.0
C      1  0.4756130000000  0.4845640000000  0.5999840000000 1.0
C      1  0.5075950000000  0.4469670000000  0.5812670000000 1.0
C      1  0.5015970000000  0.4454700000000  0.4041920000000 1.0
C      1  0.5157480000000  0.5978920000000  0.5086940000000 1.0
C      1  0.4858030000000  0.5531110000000  0.5820030000000 1.0
C      1  0.4975310000000  0.5299560000000  0.3961830000000 1.0
C      1  0.5073980000000  0.3863370000000  0.4960670000000 1.0
C      1  0.4895140000000  0.5173300000000  0.4421600000000 1.0
C      1  0.4891710000000  0.5402720000000  0.5445990000000 1.0
C      1  0.4932570000000  0.4398260000000  0.5201610000000 1.0
C      1  0.4985050000000  0.4880400000000  0.4431200000000 1.0
C      1  0.5083060000000  0.4572570000000  0.5427100000000 1.0
C      1  0.5049130000000  0.5593100000000  0.5242670000000 1.0
C      1  0.6222770000000  0.4988950000000  0.5433240000000 1.0
C      1  0.6041690000000  0.4704750000000  0.4983440000000 1.0
C      1  0.6122940000000  0.5019210000000  0.4716600000000 1.0
C      1  0.3835780000000  0.4799810000000  0.5165890000000 1.0
C      1  0.4039740000000  0.5356570000000  0.5017170000000 1.0
C      1  0.4062600000000  0.4681830000000  0.4709980000000 1.0
C      1  0.5137570000000  0.5796040000000  0.4734040000000 1.0
C      1  0.5073590000000  0.4777820000000  0.5933260000000 1.0
C      1  0.4958490000000  0.4488320000000  0.4486670000000 1.0
C      1  0.4887330000000  0.4160630000000  0.4769840000000 1.0
C      1  0.5025530000000  0.5173260000000  0.5760920000000 1.0
C      1  0.4923480000000  0.5630770000000  0.4297360000000 1.0
C      1  0.5317100000000  0.4353200000000  0.5540370000000 1.0
C      1  0.5285340000000  0.4782710000000  0.4338600000000 1.0
C      1  0.5451640000000  0.5963500000000  0.5216340000000 1.0
C      1  0.4680320000000  0.5639990000000  0.5597210000000 1.0
C      1  0.4779730000000  0.5190650000000  0.4119690000000 1.0
C      1  0.4665380000000  0.4215450000000  0.5097570000000 1.0
C      1  0.5733240000000  0.4472480000000  0.4712510000000 1.0
C      1  0.5797250000000  0.5464720000000  0.4668780000000 1.0
C      1  0.5776980000000  0.5110490000000  0.5618060000000 1.0
C      1  0.4257770000000  0.5580800000000  0.4768200000000 1.0
C      1  0.4128120000000  0.4472900000000  0.4376450000000 1.0
C      1  0.4232880000000  0.4881380000000  0.5562850000000 1.0
C      1  0.5391310000000  0.5195750000000  0.5608240000000 1.0
C      1  0.5304740000000  0.4542380000000  0.4827030000000 1.0
C      1  0.5354700000000  0.5401460000000  0.4650460000000 1.0
C      1  0.4690530000000  0.4859900000000  0.5666370000000 1.0
C      1  0.4660430000000  0.5511020000000  0.4819510000000 1.0
C      1  0.4560930000000  0.4554940000000  0.4636300000000 1.0
C      1  0.4343850000000  0.5639820000000  0.5025820000000 1.0
C      1  0.4319350000000  0.4619020000000  0.5599150000000 1.0
C      1  0.4214560000000  0.4730860000000  0.4299450000000 1.0
C      1  0.5662060000000  0.4357410000000  0.4950020000000 1.0
C      1  0.5725930000000  0.5402710000000  0.5645480000000 1.0
C      1  0.5705530000000  0.5369190000000  0.4426820000000 1.0
C      1  0.5492040000000  0.5422000000000  0.5403880000000 1.0
C      1  0.5447070000000  0.4535060000000  0.5135750000000 1.0
C      1  0.5475590000000  0.5135740000000  0.4486500000000 1.0
C      1  0.4549180000000  0.4587640000000  0.5780570000000 1.0
C      1  0.4550260000000  0.5412970000000  0.5125870000000 1.0
C      1  0.4498410000000  0.4800630000000  0.4459340000000 1.0
C      1  0.4379440000000  0.4588930000000  0.5101170000000 1.0
C      1  0.4358770000000  0.5101520000000  0.4542440000000 1.0
C      1  0.4513830000000  0.5119500000000  0.5229110000000 1.0
C      1  0.5590610000000  0.5355650000000  0.5129400000000 1.0
C      1  0.5544700000000  0.4928990000000  0.4686010000000 1.0
C      1  0.5531260000000  0.4802210000000  0.5255110000000 1.0
C      1  0.5849650000000  0.5193010000000  0.5159080000000 1.0
C      1  0.5797590000000  0.4873250000000  0.5125510000000 1.0
C      1  0.5801090000000  0.4980720000000  0.4825150000000 1.0
C      1  0.4165740000000  0.4791300000000  0.5075860000000 1.0
C      1  0.4243630000000  0.5175860000000  0.5030490000000 1.0
C      1  0.4215870000000  0.4962490000000  0.4789340000000 1.0
C      1  0.5736420000000  0.5179400000000  0.4192240000000 1.0
C      1  0.5709030000000  0.5703650000000  0.5586700000000 1.0
C      1  0.5708090000000  0.4199710000000  0.5197270000000 1.0
C      1  0.4283490000000  0.5030180000000  0.4218260000000 1.0
C      1  0.4386590000000  0.4472110000000  0.5374400000000 1.0
C      1  0.4303550000000  0.5820500000000  0.5242010000000 1.0
C      1  0.4775040000000  0.5048730000000  0.6232230000000 1.0
C      1  0.4722860000000  0.4033040000000  0.4331550000000 1.0
C      1  0.4741620000000  0.5968800000000  0.4604780000000 1.0
C      1  0.5343540000000  0.5229230000000  0.6191960000000 1.0
C      1  0.5321920000000  0.5871930000000  0.4391980000000 1.0
C      1  0.5220910000000  0.4189890000000  0.4460850000000 1.0
C      1  0.4610670000000  0.4291820000000  0.5410980000000 1.0
C      1  0.4537940000000  0.5032160000000  0.4090910000000 1.0
C      1  0.4531420000000  0.5812500000000  0.5422740000000 1.0
C      1  0.5487080000000  0.5818360000000  0.5447330000000 1.0
C      1  0.5434020000000  0.5024250000000  0.4177730000000 1.0
C      1  0.5478930000000  0.4205630000000  0.5359820000000 1.0
C      1  0.5230350000000  0.4274150000000  0.5159540000000 1.0
C      1  0.5270190000000  0.5200250000000  0.4003370000000 1.0
C      1  0.5245200000000  0.5624390000000  0.5482330000000 1.0
C      1  0.4729200000000  0.5679830000000  0.5204470000000 1.0
C      1  0.4736550000000  0.4811250000000  0.4237950000000 1.0
C      1  0.4782120000000  0.4372670000000  0.5668790000000 1.0
C      1  0.4864020000000  0.5264040000000  0.4934510000000 1.0
C      1  0.4748380000000  0.4903010000000  0.5144520000000 1.0
C      1  0.4667740000000  0.4672240000000  0.4941050000000 1.0
C      1  0.5267600000000  0.4876810000000  0.4876010000000 1.0
C      1  0.5313770000000  0.5055830000000  0.5229800000000 1.0
C      1  0.5370410000000  0.5197230000000  0.4924840000000 1.0
C      1  0.5050580000000  0.5100630000000  0.5438610000000 1.0
C      1  0.4987190000000  0.4433420000000  0.4881190000000 1.0
C      1  0.5022820000000  0.5344190000000  0.4654520000000 1.0
C      1  0.4890510000000  0.4834730000000  0.5432120000000 1.0
C      1  0.5041480000000  0.5553890000000  0.4924370000000 1.0
C      1  0.4915140000000  0.4719180000000  0.4712000000000 1.0
C      1  0.5407210000000  0.5818380000000  0.4920020000000 1.0
C      1  0.5264230000000  0.4718130000000  0.5675360000000 1.0
C      1  0.5228390000000  0.4454780000000  0.4282410000000 1.0
C      1  0.4787890000000  0.3950390000000  0.4970980000000 1.0
C      1  0.4703960000000  0.5257450000000  0.5689450000000 1.0
C      1  0.4727440000000  0.5457620000000  0.4411320000000 1.0
C      1  0.3968990000000  0.5510470000000  0.4772060000000 1.0
C      1  0.4053650000000  0.4906340000000  0.5361970000000 1.0
C      1  0.4185970000000  0.4421170000000  0.4669520000000 1.0
C      1  0.5988020000000  0.4591220000000  0.4735440000000 1.0
C      1  0.5974330000000  0.5086630000000  0.5412880000000 1.0
C      1  0.5956840000000  0.5274750000000  0.4785020000000 1.0
C      1  0.5134030000000  0.5557620000000  0.5761950000000 1.0
C      1  0.5252570000000  0.4079430000000  0.4932070000000 1.0
C      1  0.5172250000000  0.5488960000000  0.4151470000000 1.0
C      1  0.4789660000000  0.4503530000000  0.5992940000000 1.0
C      1  0.4900690000000  0.5907160000000  0.5047280000000 1.0
C      1  0.4765230000000  0.4527080000000  0.4139340000000 1.0
C      1  0.5504740000000  0.4905090000000  0.5574420000000 1.0
C      1  0.5497240000000  0.4635740000000  0.4560810000000 1.0
C      1  0.5564390000000  0.5564800000000  0.4862580000000 1.0
C      1  0.4474790000000  0.5079280000000  0.5552120000000 1.0
C      1  0.4458460000000  0.5396220000000  0.4588530000000 1.0
C      1  0.4440800000000  0.4351330000000  0.4880670000000 1.0
C      1  0.5076480000000  0.5067750000000  0.6080270000000 1.0
C      1  0.4996870000000  0.5893620000000  0.4448630000000 1.0
C      1  0.4960560000000  0.4089330000000  0.4507840000000 1.0
C      1  0.5028870000000  0.5031410000000  0.5045840000000 1.0
END
