TITL C-2622962-9663-861 -0.00136485190935655 125000 -502.741494877197 0 0 93 (C1) n - 1
REM
REM in /nfs/bkarasulu/CARBON/AIRSS/Generating-Clusters/AIREBO/with-SteepDescent/Higher-Symm/SD-CG/HFTN-CG
REM
REM
REM
REM
REM
REM ./C.cell (b20cbc046b6831c77cfcea5457e17084)
REM
REM compiler GCC version 9.2.1 20190827 (Red Hat 9.2.1-1)
REM options -cpp -mtune=generic -march=x86-64 -g -O0 -fpre-include=/usr/include/finclude/math-vector-fortran.h
REM seed -681968814 -1128695944 -831980600 -248666775 1385612163 -1012879809 1161634397 1336537605 -177773107 -864108534 69565208 -2018495900 542625370 -63194078 756551077 -136573214 1896201878 55755922 -257912337 -1032429125 1545505565 957774725 -1972130225 1188070844 -796791647 756318003 -1009015537 1666641204 -1703487915 1369708791 1055311974 -27553990 -1866684875
REM
CELL 1.54180   50.00000   50.00000   50.00000   90.00000   90.00000   90.00000
LATT -1
SFAC C  
C      1  0.4366800000000  0.5804590000000  0.5020760000000 1.0
C      1  0.5115030000000  0.4368360000000  0.5640480000000 1.0
C      1  0.5610300000000  0.5118000000000  0.4120100000000 1.0
C      1  0.4219840000000  0.4424350000000  0.4738180000000 1.0
C      1  0.5675390000000  0.4388930000000  0.5092230000000 1.0
C      1  0.5723110000000  0.5631550000000  0.4949050000000 1.0
C      1  0.5271340000000  0.5623360000000  0.4381560000000 1.0
C      1  0.4706350000000  0.5519490000000  0.5471670000000 1.0
C      1  0.4874750000000  0.4338760000000  0.4383900000000 1.0
C      1  0.5666030000000  0.5001550000000  0.5600950000000 1.0
C      1  0.4372890000000  0.4910840000000  0.4409180000000 1.0
C      1  0.4467100000000  0.5183530000000  0.5672570000000 1.0
C      1  0.5546620000000  0.5627360000000  0.5235930000000 1.0
C      1  0.4911080000000  0.4264410000000  0.5496360000000 1.0
C      1  0.4359940000000  0.5215980000000  0.4339160000000 1.0
C      1  0.5745260000000  0.4421670000000  0.4789400000000 1.0
C      1  0.4296210000000  0.4370100000000  0.5044090000000 1.0
C      1  0.4215340000000  0.5758100000000  0.4747680000000 1.0
C      1  0.4961300000000  0.5604520000000  0.4380780000000 1.0
C      1  0.5229010000000  0.5763930000000  0.5596300000000 1.0
C      1  0.5159510000000  0.4214840000000  0.4418390000000 1.0
C      1  0.4529340000000  0.4899200000000  0.5592250000000 1.0
C      1  0.5613100000000  0.4886480000000  0.4334650000000 1.0
C      1  0.5620150000000  0.5312000000000  0.5735470000000 1.0
C      1  0.5194100000000  0.5739560000000  0.4669080000000 1.0
C      1  0.4785190000000  0.5148570000000  0.5767310000000 1.0
C      1  0.5796720000000  0.4664740000000  0.5100140000000 1.0
C      1  0.5155800000000  0.4201630000000  0.5062800000000 1.0
C      1  0.4867040000000  0.4242280000000  0.4675950000000 1.0
C      1  0.4787450000000  0.5731370000000  0.5305700000000 1.0
C      1  0.4614370000000  0.4815570000000  0.4237120000000 1.0
C      1  0.5479440000000  0.4836030000000  0.5791880000000 1.0
C      1  0.5301430000000  0.5085480000000  0.4194770000000 1.0
C      1  0.5764600000000  0.5313320000000  0.4944770000000 1.0
C      1  0.4180130000000  0.5554810000000  0.5086680000000 1.0
C      1  0.4182340000000  0.4722320000000  0.4897580000000 1.0
C      1  0.4889330000000  0.5680340000000  0.4676670000000 1.0
C      1  0.5373650000000  0.5114670000000  0.5843290000000 1.0
C      1  0.4233920000000  0.4635260000000  0.5187080000000 1.0
C      1  0.4899620000000  0.4193360000000  0.5200710000000 1.0
C      1  0.5188630000000  0.4265560000000  0.4754370000000 1.0
C      1  0.5061500000000  0.5804020000000  0.5354520000000 1.0
C      1  0.5322560000000  0.4792210000000  0.4305190000000 1.0
C      1  0.4789770000000  0.4833100000000  0.5745970000000 1.0
C      1  0.4645380000000  0.5122290000000  0.4211650000000 1.0
C      1  0.4150220000000  0.5450990000000  0.4781110000000 1.0
C      1  0.5635790000000  0.5345850000000  0.5211670000000 1.0
C      1  0.5885270000000  0.4743840000000  0.4822880000000 1.0
C      1  0.5566760000000  0.5160590000000  0.4770350000000 1.0
C      1  0.4640690000000  0.5729310000000  0.5054570000000 1.0
C      1  0.5298100000000  0.4655060000000  0.5637840000000 1.0
C      1  0.5656590000000  0.4859410000000  0.5292090000000 1.0
C      1  0.4440820000000  0.4904050000000  0.4742310000000 1.0
C      1  0.4331820000000  0.5364960000000  0.5236490000000 1.0
C      1  0.4722440000000  0.4434550000000  0.4860060000000 1.0
C      1  0.5369100000000  0.4427840000000  0.5200450000000 1.0
C      1  0.5404820000000  0.5623270000000  0.4863250000000 1.0
C      1  0.5158860000000  0.5241640000000  0.4411290000000 1.0
C      1  0.4935150000000  0.5288080000000  0.5495840000000 1.0
C      1  0.4830130000000  0.4635210000000  0.4384500000000 1.0
C      1  0.4369130000000  0.5236460000000  0.4737780000000 1.0
C      1  0.5250670000000  0.5668250000000  0.5145610000000 1.0
C      1  0.4873430000000  0.4661460000000  0.5475230000000 1.0
C      1  0.4491590000000  0.4744320000000  0.5337540000000 1.0
C      1  0.5690440000000  0.4920690000000  0.4629020000000 1.0
C      1  0.5419130000000  0.5102440000000  0.5304720000000 1.0
C      1  0.5257030000000  0.4595870000000  0.4797670000000 1.0
C      1  0.4590520000000  0.4296650000000  0.5108760000000 1.0
C      1  0.4700700000000  0.5460290000000  0.4854790000000 1.0
C      1  0.4853020000000  0.5321510000000  0.4336170000000 1.0
C      1  0.5266770000000  0.5259270000000  0.5565290000000 1.0
C      1  0.5115960000000  0.4745330000000  0.4525210000000 1.0
C      1  0.5066740000000  0.5428720000000  0.5219190000000 1.0
C      1  0.5210240000000  0.4872870000000  0.5432690000000 1.0
C      1  0.5355200000000  0.5050990000000  0.4974750000000 1.0
C      1  0.5057800000000  0.4557730000000  0.5243540000000 1.0
C      1  0.4955370000000  0.5320840000000  0.4988590000000 1.0
C      1  0.5019460000000  0.5041040000000  0.4610700000000 1.0
C      1  0.4925420000000  0.4974110000000  0.5398090000000 1.0
C      1  0.4750430000000  0.4883760000000  0.4603020000000 1.0
C      1  0.5405470000000  0.4739120000000  0.5068270000000 1.0
C      1  0.4547810000000  0.4916480000000  0.5069990000000 1.0
C      1  0.4514280000000  0.5233870000000  0.5027060000000 1.0
C      1  0.4965810000000  0.4587820000000  0.4964180000000 1.0
C      1  0.4452500000000  0.5398760000000  0.5486980000000 1.0
C      1  0.5403870000000  0.4372690000000  0.5509540000000 1.0
C      1  0.5386960000000  0.5395520000000  0.4611140000000 1.0
C      1  0.5553740000000  0.4611280000000  0.4650470000000 1.0
C      1  0.4646870000000  0.4445250000000  0.5385770000000 1.0
C      1  0.4604540000000  0.5343010000000  0.4541510000000 1.0
C      1  0.4499480000000  0.4570170000000  0.4715550000000 1.0
C      1  0.5413970000000  0.5545750000000  0.5599210000000 1.0
C      1  0.5086340000000  0.5114000000000  0.4880800000000 1.0
END
