TITL C-2622953-3516-175 0.00155827712129115 125000 -865.425540390467 0 0 159 (C1) n - 1
REM
REM in /nfs/bkarasulu/CARBON/AIRSS/Generating-Clusters/AIREBO/with-SteepDescent/Higher-Symm/SD-CG/HFTN-CG
REM
REM
REM
REM
REM
REM ./C.cell (b20cbc046b6831c77cfcea5457e17084)
REM
REM compiler GCC version 9.2.1 20190827 (Red Hat 9.2.1-1)
REM options -cpp -mtune=generic -march=x86-64 -g -O0 -fpre-include=/usr/include/finclude/math-vector-fortran.h
REM seed 546223404 -1687726460 706938771 1451448352 1371082696 1152481121 -383698184 48709301 -584869994 82066787 -698392413 -2056952802 -1448243061 98257423 1174383408 -1198443 1399208065 -1498201630 -20090796 303409335 -705935503 1585157536 685086096 -1525838022 461482187 285747112 -1676854715 945912917 1423919074 -1355282485 1738132279 -1859916962 279774541
REM
CELL 1.54180   50.00000   50.00000   50.00000   90.00000   90.00000   90.00000
LATT -1
SFAC C  
C      1  0.5259710000000  0.5231830000000  0.5939160000000 1.0
C      1  0.5017220000000  0.5217610000000  0.5623680000000 1.0
C      1  0.4872630000000  0.4991450000000  0.5485630000000 1.0
C      1  0.4842460000000  0.4721940000000  0.5614040000000 1.0
C      1  0.5412220000000  0.4722680000000  0.5583080000000 1.0
C      1  0.4655660000000  0.5080750000000  0.4345650000000 1.0
C      1  0.5085020000000  0.5376380000000  0.4364240000000 1.0
C      1  0.5322020000000  0.5002830000000  0.4560200000000 1.0
C      1  0.5187520000000  0.4741740000000  0.4371310000000 1.0
C      1  0.4802670000000  0.4722900000000  0.4269230000000 1.0
C      1  0.4637790000000  0.5938840000000  0.5231090000000 1.0
C      1  0.3979280000000  0.4816340000000  0.5156900000000 1.0
C      1  0.4907130000000  0.3959460000000  0.5172930000000 1.0
C      1  0.5979660000000  0.4550930000000  0.5155360000000 1.0
C      1  0.5727360000000  0.5751220000000  0.5175980000000 1.0
C      1  0.5594580000000  0.5908660000000  0.4907960000000 1.0
C      1  0.5992800000000  0.4805860000000  0.4936550000000 1.0
C      1  0.5178180000000  0.3891830000000  0.4995500000000 1.0
C      1  0.4077150000000  0.4499260000000  0.4806550000000 1.0
C      1  0.4258300000000  0.5572070000000  0.4770030000000 1.0
C      1  0.5402850000000  0.5431770000000  0.4254420000000 1.0
C      1  0.4730800000000  0.5630810000000  0.4180180000000 1.0
C      1  0.4327440000000  0.4934430000000  0.4146890000000 1.0
C      1  0.4803390000000  0.4324250000000  0.4169040000000 1.0
C      1  0.5564170000000  0.4676620000000  0.4210110000000 1.0
C      1  0.4531410000000  0.5414780000000  0.5747290000000 1.0
C      1  0.5319670000000  0.5658840000000  0.5872180000000 1.0
C      1  0.5709000000000  0.4938490000000  0.5871980000000 1.0
C      1  0.5214580000000  0.4324710000000  0.5865220000000 1.0
C      1  0.4436680000000  0.4675570000000  0.5802060000000 1.0
C      1  0.4971110000000  0.5880270000000  0.4612720000000 1.0
C      1  0.4154030000000  0.5355640000000  0.4526850000000 1.0
C      1  0.4472140000000  0.4250110000000  0.4554010000000 1.0
C      1  0.5477460000000  0.4337260000000  0.4540680000000 1.0
C      1  0.5833560000000  0.5312370000000  0.4551290000000 1.0
C      1  0.4944010000000  0.5870530000000  0.5369140000000 1.0
C      1  0.6060680000000  0.5143880000000  0.5469090000000 1.0
C      1  0.5540620000000  0.4254590000000  0.5489000000000 1.0
C      1  0.4580810000000  0.4297480000000  0.5429700000000 1.0
C      1  0.4122480000000  0.5295720000000  0.5407000000000 1.0
C      1  0.4495980000000  0.4890310000000  0.4541280000000 1.0
C      1  0.4827320000000  0.4559460000000  0.4527410000000 1.0
C      1  0.5261320000000  0.4748710000000  0.4764030000000 1.0
C      1  0.5286600000000  0.5336410000000  0.4615660000000 1.0
C      1  0.4763970000000  0.5367250000000  0.4478880000000 1.0
C      1  0.5444400000000  0.4971030000000  0.5398540000000 1.0
C      1  0.5182840000000  0.4554610000000  0.5467910000000 1.0
C      1  0.4607780000000  0.4634380000000  0.5405150000000 1.0
C      1  0.4692980000000  0.5266560000000  0.5397640000000 1.0
C      1  0.5322340000000  0.5287500000000  0.5631840000000 1.0
C      1  0.5660310000000  0.4522460000000  0.5573670000000 1.0
C      1  0.5577980000000  0.5456320000000  0.5484290000000 1.0
C      1  0.4740610000000  0.5602570000000  0.5418640000000 1.0
C      1  0.4251440000000  0.5000230000000  0.5438590000000 1.0
C      1  0.4893080000000  0.4393140000000  0.5542880000000 1.0
C      1  0.4371950000000  0.4573980000000  0.4525530000000 1.0
C      1  0.4453250000000  0.5500620000000  0.4435000000000 1.0
C      1  0.5217330000000  0.5669040000000  0.4602480000000 1.0
C      1  0.5661680000000  0.5019430000000  0.4568240000000 1.0
C      1  0.5147080000000  0.4443360000000  0.4529920000000 1.0
C      1  0.5097160000000  0.5306000000000  0.4031700000000 1.0
C      1  0.4701980000000  0.5303260000000  0.4092690000000 1.0
C      1  0.4615680000000  0.4791750000000  0.4032340000000 1.0
C      1  0.5229490000000  0.4826470000000  0.4044480000000 1.0
C      1  0.5273700000000  0.5094120000000  0.3973790000000 1.0
C      1  0.4862970000000  0.5392990000000  0.5736360000000 1.0
C      1  0.5406220000000  0.5430750000000  0.6111970000000 1.0
C      1  0.5396390000000  0.4802430000000  0.5883480000000 1.0
C      1  0.4901150000000  0.4848910000000  0.5924460000000 1.0
C      1  0.4669560000000  0.5044540000000  0.6050010000000 1.0
C      1  0.5298300000000  0.4184270000000  0.5628840000000 1.0
C      1  0.5936530000000  0.4943570000000  0.5617530000000 1.0
C      1  0.5211150000000  0.5817130000000  0.5577480000000 1.0
C      1  0.4301210000000  0.5488460000000  0.5525700000000 1.0
C      1  0.4340230000000  0.4495460000000  0.5565850000000 1.0
C      1  0.4720380000000  0.4191400000000  0.4408640000000 1.0
C      1  0.4138200000000  0.5036070000000  0.4407670000000 1.0
C      1  0.4741510000000  0.5799620000000  0.4456270000000 1.0
C      1  0.5648000000000  0.5516480000000  0.4446970000000 1.0
C      1  0.5660870000000  0.4532500000000  0.4437570000000 1.0
C      1  0.4105480000000  0.4770660000000  0.4603030000000 1.0
C      1  0.4946600000000  0.4175730000000  0.4592660000000 1.0
C      1  0.5792260000000  0.4730980000000  0.4672330000000 1.0
C      1  0.5548390000000  0.5697540000000  0.4674650000000 1.0
C      1  0.4469930000000  0.5775090000000  0.4635170000000 1.0
C      1  0.5896200000000  0.4669220000000  0.5447350000000 1.0
C      1  0.5055150000000  0.4113380000000  0.5437590000000 1.0
C      1  0.4167850000000  0.4679240000000  0.5363300000000 1.0
C      1  0.4429040000000  0.5681460000000  0.5307480000000 1.0
C      1  0.5460290000000  0.5734870000000  0.5386980000000 1.0
C      1  0.5657200000000  0.5248670000000  0.5971840000000 1.0
C      1  0.4989710000000  0.5678010000000  0.5793680000000 1.0
C      1  0.4470780000000  0.5145360000000  0.5889780000000 1.0
C      1  0.4676900000000  0.4594740000000  0.5951280000000 1.0
C      1  0.5412600000000  0.4492920000000  0.5977500000000 1.0
C      1  0.4393660000000  0.5222510000000  0.4023570000000 1.0
C      1  0.5025850000000  0.5619370000000  0.4058120000000 1.0
C      1  0.5518210000000  0.5174510000000  0.4102750000000 1.0
C      1  0.5308790000000  0.4525450000000  0.4059820000000 1.0
C      1  0.4587610000000  0.4471480000000  0.4046280000000 1.0
C      1  0.4042100000000  0.5253770000000  0.4831560000000 1.0
C      1  0.4515460000000  0.4148830000000  0.4834280000000 1.0
C      1  0.5529170000000  0.4279850000000  0.4871900000000 1.0
C      1  0.5931390000000  0.5351710000000  0.4880860000000 1.0
C      1  0.4971250000000  0.6021680000000  0.4858840000000 1.0
C      1  0.5977320000000  0.5273980000000  0.5206680000000 1.0
C      1  0.5557260000000  0.4175930000000  0.5195710000000 1.0
C      1  0.4431400000000  0.4276280000000  0.5119490000000 1.0
C      1  0.4011090000000  0.5362060000000  0.5124150000000 1.0
C      1  0.5089720000000  0.5954820000000  0.5094200000000 1.0
C      1  0.5232210000000  0.4531370000000  0.5157310000000 1.0
C      1  0.5682330000000  0.5189970000000  0.5353650000000 1.0
C      1  0.4863570000000  0.5545290000000  0.5104790000000 1.0
C      1  0.4461510000000  0.5175310000000  0.5236240000000 1.0
C      1  0.4686960000000  0.4499970000000  0.5102970000000 1.0
C      1  0.4597480000000  0.4553750000000  0.4779220000000 1.0
C      1  0.4328590000000  0.5088080000000  0.4753420000000 1.0
C      1  0.5113290000000  0.5528980000000  0.4912290000000 1.0
C      1  0.5626310000000  0.5183740000000  0.4863960000000 1.0
C      1  0.5258840000000  0.4444580000000  0.4851140000000 1.0
C      1  0.5744260000000  0.4497890000000  0.4915250000000 1.0
C      1  0.5639450000000  0.5513610000000  0.4945810000000 1.0
C      1  0.4611280000000  0.5872970000000  0.4923110000000 1.0
C      1  0.4121570000000  0.4877120000000  0.4921610000000 1.0
C      1  0.4826330000000  0.4077910000000  0.4864440000000 1.0
C      1  0.4230230000000  0.4517830000000  0.5070440000000 1.0
C      1  0.4332940000000  0.5449230000000  0.5078330000000 1.0
C      1  0.5345060000000  0.5806610000000  0.5087640000000 1.0
C      1  0.5825880000000  0.4910290000000  0.5223460000000 1.0
C      1  0.5230280000000  0.4191310000000  0.5156760000000 1.0
C      1  0.5243120000000  0.4841020000000  0.5195750000000 1.0
C      1  0.5282350000000  0.5256030000000  0.5307170000000 1.0
C      1  0.4982550000000  0.5267140000000  0.5220410000000 1.0
C      1  0.4593010000000  0.5000160000000  0.5038560000000 1.0
C      1  0.4819700000000  0.4777780000000  0.5023720000000 1.0
C      1  0.4723510000000  0.5036580000000  0.4736330000000 1.0
C      1  0.4581830000000  0.5317890000000  0.4761950000000 1.0
C      1  0.5175090000000  0.5196340000000  0.4877760000000 1.0
C      1  0.5406360000000  0.4977870000000  0.4950100000000 1.0
C      1  0.4964880000000  0.4702270000000  0.4778660000000 1.0
C      1  0.5726470000000  0.4594330000000  0.5894820000000 1.0
C      1  0.5613840000000  0.5506880000000  0.5791440000000 1.0
C      1  0.4660880000000  0.5729740000000  0.5723900000000 1.0
C      1  0.4349370000000  0.4944180000000  0.5743240000000 1.0
C      1  0.4906190000000  0.4382400000000  0.5882270000000 1.0
C      1  0.4325140000000  0.4596890000000  0.4200000000000 1.0
C      1  0.4403600000000  0.5545130000000  0.4113460000000 1.0
C      1  0.5239090000000  0.5726580000000  0.4267840000000 1.0
C      1  0.5627410000000  0.4958620000000  0.4242740000000 1.0
C      1  0.5092180000000  0.4383030000000  0.4199680000000 1.0
C      1  0.4914570000000  0.4295070000000  0.5084640000000 1.0
C      1  0.5357630000000  0.5467440000000  0.5108160000000 1.0
C      1  0.4617760000000  0.5554290000000  0.4940100000000 1.0
C      1  0.5619420000000  0.4758260000000  0.5047780000000 1.0
C      1  0.4422490000000  0.4758400000000  0.4953110000000 1.0
C      1  0.5175280000000  0.4965380000000  0.5976280000000 1.0
C      1  0.4974860000000  0.4997510000000  0.4300620000000 1.0
C      1  0.4979500000000  0.4947130000000  0.5202410000000 1.0
C      1  0.4994310000000  0.5067280000000  0.4625980000000 1.0
END
