TITL C-2622966-9038-56 0.00061834624393908 125000 -228.582153152145 0 0 47 (C1) n - 1
REM
REM in /nfs/bkarasulu/CARBON/AIRSS/Generating-Clusters/AIREBO/with-SteepDescent/Higher-Symm/SD-CG/HFTN-CG
REM
REM
REM
REM
REM
REM ./C.cell (b20cbc046b6831c77cfcea5457e17084)
REM
REM compiler GCC version 9.2.1 20190827 (Red Hat 9.2.1-1)
REM options -cpp -mtune=generic -march=x86-64 -g -O0 -fpre-include=/usr/include/finclude/math-vector-fortran.h
REM seed -1215023122 -1884046451 2134957902 -1517758538 734811098 1513261678 2137322723 -1347719179 1967408758 187489339 -619772441 1602696176 1379829921 1452810050 51214915 -169736799 -498444003 1908468640 1908923368 -1045063864 -553984956 1195118456 -1662231922 360188186 639561890 -917606937 1940187352 1382380343 1570164535 269418379 -1538350078 -462020661 -1207072152
REM
CELL 1.54180   50.00000   50.00000   50.00000   90.00000   90.00000   90.00000
LATT -1
SFAC C  
C      1  0.4990180000000  0.4475670000000  0.4908630000000 1.0
C      1  0.4969560000000  0.4492010000000  0.5408900000000 1.0
C      1  0.4820820000000  0.4988670000000  0.5660060000000 1.0
C      1  0.5001350000000  0.5417430000000  0.5386760000000 1.0
C      1  0.4862320000000  0.5590320000000  0.4904220000000 1.0
C      1  0.4866320000000  0.5271320000000  0.4513990000000 1.0
C      1  0.4996860000000  0.4895620000000  0.4548100000000 1.0
C      1  0.4985360000000  0.5283280000000  0.5689700000000 1.0
C      1  0.4944490000000  0.5693720000000  0.5217580000000 1.0
C      1  0.4903200000000  0.5581660000000  0.4594800000000 1.0
C      1  0.4990280000000  0.5105320000000  0.4280510000000 1.0
C      1  0.5056280000000  0.4605180000000  0.4381620000000 1.0
C      1  0.5002100000000  0.4266820000000  0.5191780000000 1.0
C      1  0.4946070000000  0.4713440000000  0.5665890000000 1.0
C      1  0.4745710000000  0.5187750000000  0.5907680000000 1.0
C      1  0.4834980000000  0.5910270000000  0.5345500000000 1.0
C      1  0.4791540000000  0.5783290000000  0.4442720000000 1.0
C      1  0.4890320000000  0.5121780000000  0.4026580000000 1.0
C      1  0.4765130000000  0.4589270000000  0.4452380000000 1.0
C      1  0.4708830000000  0.4245940000000  0.5064060000000 1.0
C      1  0.4696970000000  0.4484420000000  0.5611980000000 1.0
C      1  0.4664550000000  0.4964600000000  0.5389200000000 1.0
C      1  0.4756240000000  0.5271360000000  0.5279470000000 1.0
C      1  0.4679110000000  0.5347260000000  0.4957150000000 1.0
C      1  0.4700510000000  0.5109800000000  0.4714610000000 1.0
C      1  0.4735810000000  0.4771730000000  0.4733540000000 1.0
C      1  0.4673710000000  0.4564120000000  0.4996010000000 1.0
C      1  0.4689510000000  0.4661830000000  0.5317570000000 1.0
C      1  0.5307890000000  0.4730660000000  0.5261140000000 1.0
C      1  0.5377760000000  0.5004180000000  0.5438270000000 1.0
C      1  0.5293420000000  0.5291440000000  0.5276180000000 1.0
C      1  0.5336830000000  0.5414560000000  0.5009500000000 1.0
C      1  0.5310290000000  0.5301780000000  0.4759870000000 1.0
C      1  0.5282440000000  0.5015200000000  0.4679930000000 1.0
C      1  0.5288360000000  0.4515840000000  0.4778610000000 1.0
C      1  0.5207140000000  0.5472540000000  0.4571830000000 1.0
C      1  0.5311730000000  0.5013010000000  0.4342750000000 1.0
C      1  0.5274880000000  0.4476040000000  0.4480730000000 1.0
C      1  0.5267190000000  0.4463450000000  0.5110030000000 1.0
C      1  0.5249560000000  0.4724980000000  0.5581740000000 1.0
C      1  0.5291640000000  0.5270650000000  0.5614360000000 1.0
C      1  0.5204120000000  0.5664860000000  0.5017340000000 1.0
C      1  0.5363080000000  0.4809020000000  0.4933770000000 1.0
C      1  0.5045380000000  0.4915770000000  0.4991590000000 1.0
C      1  0.4392020000000  0.5007720000000  0.5034260000000 1.0
C      1  0.5679160000000  0.4841770000000  0.4938270000000 1.0
C      1  0.4731680000000  0.5022610000000  0.5043650000000 1.0
END
