TITL C-2622956-4641-228 0.000377150824374622 125000 -1068.47881990817 0 0 199 (C1) n - 1
REM
REM in /nfs/bkarasulu/CARBON/AIRSS/Generating-Clusters/AIREBO/with-SteepDescent/Higher-Symm/SD-CG/HFTN-CG
REM
REM
REM
REM
REM
REM ./C.cell (b20cbc046b6831c77cfcea5457e17084)
REM
REM compiler GCC version 9.2.1 20190827 (Red Hat 9.2.1-1)
REM options -cpp -mtune=generic -march=x86-64 -g -O0 -fpre-include=/usr/include/finclude/math-vector-fortran.h
REM seed 927935186 -1704795797 2002462659 1864452576 -1401931343 1324421139 113528718 -1476635640 -1056125170 -1400454453 792765250 1829782868 -1691854313 1705183340 -639370107 1031244047 273598503 -1363324533 -859164969 771275104 -1901924778 1696391750 -228160004 1136106954 -130653613 -1406452816 -1663462167 -288610131 3951429 780246855 -1072420926 42072251 1629482696
REM
CELL 1.54180   50.00000   50.00000   50.00000   90.00000   90.00000   90.00000
LATT -1
SFAC C  
C      1  0.4880100000000  0.4882640000000  0.4538300000000 1.0
C      1  0.4527450000000  0.4856380000000  0.4943520000000 1.0
C      1  0.4793340000000  0.4698450000000  0.4801520000000 1.0
C      1  0.5300830000000  0.5160350000000  0.4635980000000 1.0
C      1  0.5139310000000  0.4760470000000  0.5414500000000 1.0
C      1  0.4749980000000  0.5091790000000  0.5552780000000 1.0
C      1  0.5540560000000  0.5171500000000  0.4841350000000 1.0
C      1  0.5495430000000  0.4800510000000  0.5155120000000 1.0
C      1  0.4580250000000  0.5186740000000  0.5306930000000 1.0
C      1  0.5103420000000  0.5472080000000  0.5007580000000 1.0
C      1  0.5244320000000  0.4595100000000  0.5135950000000 1.0
C      1  0.4752120000000  0.5405640000000  0.5180220000000 1.0
C      1  0.4833930000000  0.4797120000000  0.5559640000000 1.0
C      1  0.4551600000000  0.4858770000000  0.5258940000000 1.0
C      1  0.4787010000000  0.4615810000000  0.5299940000000 1.0
C      1  0.5080220000000  0.5096280000000  0.5469250000000 1.0
C      1  0.5182060000000  0.4835940000000  0.4638830000000 1.0
C      1  0.4978060000000  0.5179670000000  0.4627850000000 1.0
C      1  0.5427890000000  0.5098920000000  0.5118350000000 1.0
C      1  0.5457780000000  0.4842520000000  0.4818510000000 1.0
C      1  0.4623280000000  0.5103180000000  0.4781310000000 1.0
C      1  0.5239710000000  0.5301750000000  0.5249210000000 1.0
C      1  0.5044080000000  0.4483920000000  0.4884580000000 1.0
C      1  0.4853510000000  0.5303440000000  0.4901420000000 1.0
C      1  0.5026040000000  0.4583290000000  0.3851730000000 1.0
C      1  0.3934710000000  0.5047740000000  0.4583070000000 1.0
C      1  0.4633750000000  0.4029490000000  0.5258900000000 1.0
C      1  0.4892530000000  0.5249300000000  0.3887110000000 1.0
C      1  0.4893420000000  0.4910090000000  0.6187430000000 1.0
C      1  0.5081920000000  0.5214680000000  0.5975820000000 1.0
C      1  0.6107300000000  0.4916170000000  0.4562760000000 1.0
C      1  0.6210270000000  0.5135480000000  0.5316350000000 1.0
C      1  0.3856190000000  0.4900670000000  0.5318320000000 1.0
C      1  0.5391160000000  0.6315240000000  0.4929090000000 1.0
C      1  0.5328730000000  0.4007340000000  0.4917300000000 1.0
C      1  0.4639930000000  0.6004100000000  0.4947600000000 1.0
C      1  0.5092220000000  0.4778190000000  0.6125510000000 1.0
C      1  0.3908420000000  0.5093820000000  0.5470570000000 1.0
C      1  0.4573910000000  0.3994530000000  0.4991410000000 1.0
C      1  0.4853180000000  0.5319070000000  0.5980280000000 1.0
C      1  0.4850920000000  0.4407260000000  0.3870900000000 1.0
C      1  0.5092790000000  0.5384650000000  0.3859850000000 1.0
C      1  0.6121710000000  0.4893460000000  0.5404950000000 1.0
C      1  0.6019680000000  0.5154550000000  0.4556490000000 1.0
C      1  0.3935110000000  0.4935530000000  0.4362630000000 1.0
C      1  0.5353940000000  0.6047910000000  0.4870080000000 1.0
C      1  0.5377080000000  0.4136810000000  0.5156360000000 1.0
C      1  0.4741020000000  0.6016660000000  0.5200260000000 1.0
C      1  0.5633850000000  0.4784380000000  0.3957800000000 1.0
C      1  0.4386810000000  0.5883220000000  0.4919220000000 1.0
C      1  0.4841240000000  0.4144690000000  0.5742590000000 1.0
C      1  0.4213130000000  0.5146890000000  0.3959320000000 1.0
C      1  0.4263520000000  0.4865710000000  0.5796370000000 1.0
C      1  0.5865860000000  0.5139930000000  0.5777230000000 1.0
C      1  0.5917190000000  0.4315410000000  0.4774590000000 1.0
C      1  0.5954600000000  0.5676340000000  0.5152550000000 1.0
C      1  0.4219770000000  0.4290990000000  0.4988740000000 1.0
C      1  0.5089520000000  0.5571530000000  0.5781050000000 1.0
C      1  0.4988750000000  0.4063630000000  0.4236000000000 1.0
C      1  0.4903680000000  0.5743870000000  0.4269650000000 1.0
C      1  0.5990480000000  0.4892500000000  0.5644860000000 1.0
C      1  0.4214810000000  0.5758670000000  0.5158410000000 1.0
C      1  0.4776010000000  0.4268170000000  0.4127060000000 1.0
C      1  0.4063530000000  0.5012310000000  0.5925200000000 1.0
C      1  0.4183590000000  0.4898350000000  0.4189460000000 1.0
C      1  0.5733500000000  0.5063900000000  0.4067880000000 1.0
C      1  0.6010320000000  0.4294920000000  0.5060250000000 1.0
C      1  0.5834310000000  0.5744100000000  0.4884990000000 1.0
C      1  0.4353610000000  0.4090970000000  0.4854580000000 1.0
C      1  0.5144820000000  0.5890340000000  0.4122550000000 1.0
C      1  0.5057210000000  0.3976140000000  0.5891830000000 1.0
C      1  0.4845640000000  0.5714190000000  0.5794200000000 1.0
C      1  0.4617940000000  0.5010160000000  0.6100040000000 1.0
C      1  0.6026000000000  0.4748450000000  0.4847240000000 1.0
C      1  0.4843420000000  0.5876330000000  0.4767350000000 1.0
C      1  0.5245650000000  0.5076000000000  0.5740790000000 1.0
C      1  0.5127290000000  0.4787760000000  0.4072720000000 1.0
C      1  0.4709620000000  0.5094530000000  0.4076450000000 1.0
C      1  0.4101650000000  0.5108910000000  0.4872930000000 1.0
C      1  0.4048870000000  0.4707010000000  0.5176310000000 1.0
C      1  0.6036570000000  0.5293580000000  0.5070420000000 1.0
C      1  0.5138950000000  0.4195320000000  0.4730290000000 1.0
C      1  0.5116580000000  0.5879580000000  0.5243330000000 1.0
C      1  0.4839400000000  0.4290320000000  0.5331710000000 1.0
C      1  0.4862360000000  0.4868910000000  0.4212080000000 1.0
C      1  0.5982060000000  0.4672260000000  0.5187680000000 1.0
C      1  0.4827760000000  0.5711700000000  0.5303500000000 1.0
C      1  0.5388690000000  0.5414750000000  0.3924560000000 1.0
C      1  0.5237750000000  0.4766030000000  0.5855400000000 1.0
C      1  0.4620430000000  0.5182560000000  0.5816840000000 1.0
C      1  0.4278900000000  0.5197190000000  0.5149630000000 1.0
C      1  0.4200300000000  0.4785100000000  0.4882010000000 1.0
C      1  0.5840560000000  0.5254420000000  0.4811180000000 1.0
C      1  0.5125300000000  0.4109990000000  0.5371950000000 1.0
C      1  0.5135180000000  0.5791520000000  0.4915270000000 1.0
C      1  0.4851360000000  0.4028660000000  0.4825420000000 1.0
C      1  0.4499900000000  0.4340120000000  0.4287030000000 1.0
C      1  0.4201700000000  0.4390100000000  0.4434200000000 1.0
C      1  0.4397150000000  0.4146130000000  0.4549610000000 1.0
C      1  0.5652920000000  0.5632820000000  0.4234870000000 1.0
C      1  0.5760810000000  0.4425780000000  0.5741190000000 1.0
C      1  0.4204080000000  0.5678910000000  0.5827150000000 1.0
C      1  0.5876330000000  0.5667610000000  0.4484520000000 1.0
C      1  0.5775870000000  0.4241660000000  0.5493620000000 1.0
C      1  0.4012200000000  0.5744310000000  0.5586470000000 1.0
C      1  0.5592750000000  0.5843920000000  0.4471840000000 1.0
C      1  0.5516450000000  0.4235210000000  0.5679160000000 1.0
C      1  0.4295600000000  0.5891160000000  0.5608680000000 1.0
C      1  0.4327850000000  0.4357460000000  0.5874620000000 1.0
C      1  0.4163870000000  0.4443140000000  0.5609420000000 1.0
C      1  0.4325730000000  0.4160910000000  0.5618820000000 1.0
C      1  0.5624450000000  0.5523650000000  0.5781620000000 1.0
C      1  0.5601140000000  0.4560000000000  0.4149600000000 1.0
C      1  0.4429270000000  0.5507680000000  0.4205350000000 1.0
C      1  0.5825720000000  0.5614150000000  0.5554070000000 1.0
C      1  0.5827480000000  0.4496130000000  0.4381310000000 1.0
C      1  0.4191940000000  0.5546330000000  0.4411870000000 1.0
C      1  0.5550720000000  0.5768720000000  0.5584780000000 1.0
C      1  0.5573350000000  0.4288680000000  0.4339390000000 1.0
C      1  0.4455860000000  0.5732600000000  0.4429560000000 1.0
C      1  0.4254740000000  0.4629660000000  0.5393650000000 1.0
C      1  0.5392770000000  0.4336490000000  0.4579210000000 1.0
C      1  0.4624080000000  0.5287040000000  0.4297090000000 1.0
C      1  0.5795980000000  0.5410370000000  0.5287310000000 1.0
C      1  0.5767300000000  0.4662430000000  0.4646100000000 1.0
C      1  0.4223600000000  0.5359450000000  0.4677740000000 1.0
C      1  0.4690970000000  0.5635590000000  0.4630400000000 1.0
C      1  0.4537740000000  0.4357100000000  0.5466300000000 1.0
C      1  0.5348940000000  0.5678740000000  0.5356510000000 1.0
C      1  0.5342350000000  0.4699310000000  0.4299700000000 1.0
C      1  0.5497380000000  0.5252590000000  0.5672250000000 1.0
C      1  0.4553300000000  0.4525260000000  0.5916550000000 1.0
C      1  0.4335220000000  0.4626220000000  0.4613370000000 1.0
C      1  0.5260400000000  0.4286410000000  0.5605260000000 1.0
C      1  0.4363430000000  0.5388160000000  0.5751750000000 1.0
C      1  0.5698670000000  0.5391980000000  0.4550290000000 1.0
C      1  0.5785490000000  0.4396030000000  0.5243810000000 1.0
C      1  0.4053580000000  0.5545030000000  0.5358480000000 1.0
C      1  0.4515000000000  0.5776360000000  0.5420490000000 1.0
C      1  0.4696420000000  0.4263170000000  0.4648330000000 1.0
C      1  0.5329070000000  0.5717860000000  0.4645610000000 1.0
C      1  0.5725090000000  0.4708520000000  0.5674080000000 1.0
C      1  0.5445100000000  0.5402050000000  0.4241500000000 1.0
C      1  0.4642600000000  0.4645970000000  0.4322290000000 1.0
C      1  0.5726600000000  0.4825410000000  0.5351950000000 1.0
C      1  0.5581720000000  0.5568130000000  0.4817000000000 1.0
C      1  0.4601520000000  0.5622280000000  0.5687310000000 1.0
C      1  0.4204270000000  0.5261360000000  0.5475140000000 1.0
C      1  0.4402900000000  0.4865270000000  0.4402760000000 1.0
C      1  0.5622080000000  0.5141400000000  0.4349620000000 1.0
C      1  0.4541100000000  0.4473310000000  0.4837670000000 1.0
C      1  0.4488950000000  0.5574540000000  0.5148080000000 1.0
C      1  0.5514680000000  0.4405230000000  0.5098340000000 1.0
C      1  0.5108430000000  0.4533690000000  0.5666020000000 1.0
C      1  0.5228500000000  0.5448370000000  0.4470410000000 1.0
C      1  0.4866430000000  0.4412510000000  0.4421840000000 1.0
C      1  0.5550200000000  0.4874690000000  0.4492850000000 1.0
C      1  0.5499860000000  0.5489960000000  0.5136780000000 1.0
C      1  0.4890700000000  0.5445600000000  0.4431170000000 1.0
C      1  0.4452050000000  0.5150640000000  0.4534900000000 1.0
C      1  0.4326670000000  0.4944820000000  0.5499080000000 1.0
C      1  0.5731510000000  0.5137170000000  0.5464890000000 1.0
C      1  0.4430700000000  0.4457290000000  0.5159290000000 1.0
C      1  0.4433940000000  0.5562340000000  0.4822670000000 1.0
C      1  0.5605780000000  0.4420910000000  0.4793330000000 1.0
C      1  0.5139240000000  0.4528690000000  0.4498890000000 1.0
C      1  0.5270120000000  0.5485580000000  0.5603110000000 1.0
C      1  0.4775020000000  0.4468440000000  0.5683160000000 1.0
C      1  0.4476020000000  0.4784990000000  0.5953410000000 1.0
C      1  0.6213660000000  0.4474660000000  0.4773480000000 1.0
C      1  0.4901840000000  0.5971300000000  0.4484320000000 1.0
C      1  0.5673210000000  0.5059590000000  0.5974570000000 1.0
C      1  0.5353110000000  0.4896040000000  0.3870910000000 1.0
C      1  0.4473770000000  0.4990410000000  0.3930140000000 1.0
C      1  0.3962160000000  0.5500710000000  0.4843010000000 1.0
C      1  0.3994740000000  0.4456510000000  0.4977600000000 1.0
C      1  0.6187510000000  0.5575020000000  0.4953650000000 1.0
C      1  0.5048230000000  0.3982730000000  0.4480910000000 1.0
C      1  0.5065090000000  0.6045130000000  0.5535910000000 1.0
C      1  0.4760890000000  0.3943850000000  0.5513120000000 1.0
C      1  0.4276560000000  0.4757750000000  0.3893750000000 1.0
C      1  0.6255430000000  0.4486450000000  0.5107740000000 1.0
C      1  0.4899080000000  0.5989140000000  0.5745740000000 1.0
C      1  0.5520440000000  0.5151060000000  0.3863070000000 1.0
C      1  0.5539560000000  0.4840090000000  0.5873960000000 1.0
C      1  0.4133250000000  0.5272720000000  0.5973770000000 1.0
C      1  0.3897890000000  0.5529330000000  0.5080200000000 1.0
C      1  0.3922010000000  0.4636210000000  0.4743820000000 1.0
C      1  0.6089430000000  0.5722490000000  0.4694830000000 1.0
C      1  0.5068040000000  0.3856780000000  0.5591530000000 1.0
C      1  0.5202300000000  0.5950240000000  0.4432150000000 1.0
C      1  0.4900380000000  0.3763540000000  0.4618230000000 1.0
C      1  0.4474830000000  0.5133810000000  0.6307970000000 1.0
C      1  0.5134600000000  0.6209140000000  0.5161490000000 1.0
C      1  0.4993290000000  0.3927340000000  0.5117300000000 1.0
C      1  0.5505580000000  0.5639060000000  0.3800510000000 1.0
C      1  0.6199320000000  0.5027730000000  0.4934440000000 1.0
C      1  0.3821860000000  0.5144580000000  0.5004350000000 1.0
C      1  0.4905830000000  0.4795620000000  0.5089840000000 1.0
END
