TITL C-2622958-629-298 8.05082483646163e-08 125000 -50.3817006643507 0 0 9 (D3) n - 1
REM
REM in /nfs/bkarasulu/CARBON/AIRSS/Generating-Clusters/AIREBO/with-SteepDescent/Higher-Symm/SD-CG/HFTN-CG
REM
REM
REM
REM
REM
REM ./C.cell (b20cbc046b6831c77cfcea5457e17084)
REM
REM compiler GCC version 9.2.1 20190827 (Red Hat 9.2.1-1)
REM options -cpp -mtune=generic -march=x86-64 -g -O0 -fpre-include=/usr/include/finclude/math-vector-fortran.h
REM seed 1785624432 1957918671 326015756 -1561844029 -1232420036 615076683 1237087645 977909905 383631429 1719025403 584012964 1887036417 -558146859 -1234345121 139752150 1945282210 -1342117777 -838230114 19411367 857025047 -667318144 -457959676 -387229690 -1466243506 1193911754 -1518280476 -2102549917 1536863416 98360287 2015715584 -2107248852 1192078347 -655952525
REM
CELL 1.54180   50.00000   50.00000   50.00000   90.00000   90.00000   90.00000
LATT -1
SFAC C  
C      1  0.5250580000000  0.4701300000000  0.4943740000000 1.0
C      1  0.4616080000000  0.4932260000000  0.4943270000000 1.0
C      1  0.5133340000000  0.5366270000000  0.4942390000000 1.0
C      1  0.4742130000000  0.4692570000000  0.4970080000000 1.0
C      1  0.5395180000000  0.4930390000000  0.4969610000000 1.0
C      1  0.4862690000000  0.5377040000000  0.4968690000000 1.0
C      1  0.5000150000000  0.4610210000000  0.4996580000000 1.0
C      1  0.4662310000000  0.5194840000000  0.4995390000000 1.0
C      1  0.5337540000000  0.5195110000000  0.4995400000000 1.0
END
