TITL C-2622958-629-465 -0.000958602605475472 125000 -247.836150609248 0 0 44 (C1) n - 1
REM
REM in /nfs/bkarasulu/CARBON/AIRSS/Generating-Clusters/AIREBO/with-SteepDescent/Higher-Symm/SD-CG/HFTN-CG
REM
REM
REM
REM
REM
REM ./C.cell (b20cbc046b6831c77cfcea5457e17084)
REM
REM compiler GCC version 9.2.1 20190827 (Red Hat 9.2.1-1)
REM options -cpp -mtune=generic -march=x86-64 -g -O0 -fpre-include=/usr/include/finclude/math-vector-fortran.h
REM seed 453654345 -560380078 -1826763807 -2115484190 1423155550 -470490230 -1003840712 1826446330 2092182031 1481515343 779183154 752151309 2026614324 -796669614 -213271631 1822151494 1852793720 1896330161 -1177722188 358779341 -1314422313 784790227 741585996 1747490471 -2123757283 -187140865 -1084655554 1540043056 2146937615 -1121670579 -765750845 -731955034 -80996835
REM
CELL 1.54180   50.00000   50.00000   50.00000   90.00000   90.00000   90.00000
LATT -1
SFAC C  
C      1  0.4572440000000  0.4466080000000  0.4800220000000 1.0
C      1  0.5316230000000  0.5466360000000  0.5076490000000 1.0
C      1  0.5471650000000  0.4825530000000  0.4710760000000 1.0
C      1  0.4484960000000  0.5153960000000  0.4711180000000 1.0
C      1  0.5069470000000  0.4867360000000  0.5497980000000 1.0
C      1  0.5143700000000  0.5403740000000  0.5364280000000 1.0
C      1  0.5262690000000  0.4709710000000  0.4534040000000 1.0
C      1  0.4703810000000  0.5315570000000  0.4586310000000 1.0
C      1  0.4990180000000  0.4578630000000  0.4899730000000 1.0
C      1  0.4922770000000  0.5343910000000  0.4916100000000 1.0
C      1  0.5255510000000  0.5466440000000  0.4741790000000 1.0
C      1  0.4737860000000  0.4545010000000  0.4591590000000 1.0
C      1  0.4795500000000  0.4939530000000  0.5441160000000 1.0
C      1  0.5261180000000  0.5114810000000  0.5375540000000 1.0
C      1  0.5590460000000  0.5270900000000  0.5029040000000 1.0
C      1  0.4434780000000  0.4710610000000  0.4997880000000 1.0
C      1  0.5635350000000  0.5572270000000  0.5134150000000 1.0
C      1  0.4380290000000  0.4376620000000  0.5030910000000 1.0
C      1  0.5348220000000  0.5056170000000  0.5092820000000 1.0
C      1  0.4667110000000  0.4882350000000  0.5167180000000 1.0
C      1  0.5389980000000  0.4529500000000  0.5203530000000 1.0
C      1  0.4463170000000  0.5351480000000  0.5179430000000 1.0
C      1  0.4751170000000  0.5181910000000  0.5560570000000 1.0
C      1  0.5376900000000  0.4976660000000  0.5657880000000 1.0
C      1  0.5050420000000  0.4527200000000  0.4611510000000 1.0
C      1  0.4950900000000  0.5512540000000  0.4654530000000 1.0
C      1  0.4656780000000  0.4797750000000  0.4494930000000 1.0
C      1  0.5358970000000  0.5246420000000  0.4606540000000 1.0
C      1  0.5149880000000  0.4446170000000  0.5083940000000 1.0
C      1  0.4746260000000  0.5446560000000  0.5088860000000 1.0
C      1  0.5609680000000  0.5111430000000  0.4635790000000 1.0
C      1  0.4389890000000  0.4893950000000  0.4552790000000 1.0
C      1  0.4841570000000  0.5005580000000  0.4620410000000 1.0
C      1  0.5150070000000  0.5015800000000  0.4573700000000 1.0
C      1  0.4875980000000  0.4860880000000  0.4930650000000 1.0
C      1  0.5108230000000  0.5090410000000  0.4902910000000 1.0
C      1  0.5501350000000  0.4759680000000  0.5097890000000 1.0
C      1  0.4413330000000  0.5088430000000  0.5116140000000 1.0
C      1  0.5417500000000  0.4483280000000  0.5480820000000 1.0
C      1  0.4634410000000  0.5587900000000  0.5355360000000 1.0
C      1  0.4248330000000  0.4958270000000  0.4857180000000 1.0
C      1  0.5697750000000  0.4965660000000  0.4923750000000 1.0
C      1  0.4877380000000  0.5425900000000  0.5465540000000 1.0
C      1  0.5295950000000  0.4671080000000  0.5646180000000 1.0
END
