TITL C-2622953-3516-234 -1.79068444516601e-07 125000 -64.6469773408297 0 0 12 (D3d) n - 1
REM
REM in /nfs/bkarasulu/CARBON/AIRSS/Generating-Clusters/AIREBO/with-SteepDescent/Higher-Symm/SD-CG/HFTN-CG
REM
REM
REM
REM
REM
REM ./C.cell (b20cbc046b6831c77cfcea5457e17084)
REM
REM compiler GCC version 9.2.1 20190827 (Red Hat 9.2.1-1)
REM options -cpp -mtune=generic -march=x86-64 -g -O0 -fpre-include=/usr/include/finclude/math-vector-fortran.h
REM seed -1867512142 596892913 278773626 1544782639 923437856 933531265 -269560905 317778100 382263157 -348132538 -2048129818 -1942391789 -181062792 -1987444163 -1224009550 -1118046792 -86813454 1893447324 1097485102 1837915558 -1918719590 1139307710 -1157454363 -1491596249 2087941932 -592595895 -1213666955 -1263289415 1300895630 457573619 -1351686184 -577573663 1900323395
REM
CELL 1.54180   50.00000   50.00000   50.00000   90.00000   90.00000   90.00000
LATT -1
SFAC C  
C      1  0.4886290000000  0.4840370000000  0.4492490000000 1.0
C      1  0.4878430000000  0.4641570000000  0.5390800000000 1.0
C      1  0.4882940000000  0.5518960000000  0.5113820000000 1.0
C      1  0.5023590000000  0.4728370000000  0.4940090000000 1.0
C      1  0.5021840000000  0.5083680000000  0.5265420000000 1.0
C      1  0.5025950000000  0.5187770000000  0.4795070000000 1.0
C      1  0.4976410000000  0.5271630000000  0.5059910000000 1.0
C      1  0.4978160000000  0.4916320000000  0.4734580000000 1.0
C      1  0.4974050000000  0.4812230000000  0.5204930000000 1.0
C      1  0.5121570000000  0.5358430000000  0.4609200000000 1.0
C      1  0.5117060000000  0.4481040000000  0.4886180000000 1.0
C      1  0.5113710000000  0.5159630000000  0.5507510000000 1.0
END
