TITL C-2622967-6265-299 0.00105113050417245 125000 -392.258845367695 0 0 72 (C1) n - 1
REM
REM in /nfs/bkarasulu/CARBON/AIRSS/Generating-Clusters/AIREBO/with-SteepDescent/Higher-Symm/SD-CG/HFTN-CG
REM
REM
REM
REM
REM
REM ./C.cell (b20cbc046b6831c77cfcea5457e17084)
REM
REM compiler GCC version 9.2.1 20190827 (Red Hat 9.2.1-1)
REM options -cpp -mtune=generic -march=x86-64 -g -O0 -fpre-include=/usr/include/finclude/math-vector-fortran.h
REM seed 474122169 -1636961544 -69371812 -538893006 -1475389621 -278798962 524982459 -1185260919 -1845727670 -17765796 476480445 1416497731 -459092578 199299443 1612698065 -1858943489 1262610198 121743704 -1937554217 -946021940 1913035711 -1564703702 -1494901215 -1556139698 374309229 1252785316 677907538 -910569301 848984890 -1817058045 -608637686 899236002 1249273763
REM
CELL 1.54180   50.00000   50.00000   50.00000   90.00000   90.00000   90.00000
LATT -1
SFAC C  
C      1  0.5080510000000  0.5427940000000  0.4083430000000 1.0
C      1  0.4794440000000  0.5302350000000  0.5963180000000 1.0
C      1  0.5243500000000  0.4423810000000  0.4484020000000 1.0
C      1  0.5259550000000  0.4413900000000  0.5538960000000 1.0
C      1  0.4832190000000  0.4941920000000  0.5571930000000 1.0
C      1  0.4737240000000  0.5071880000000  0.4286880000000 1.0
C      1  0.5335750000000  0.4242230000000  0.4903200000000 1.0
C      1  0.5316360000000  0.4263440000000  0.5173820000000 1.0
C      1  0.5133970000000  0.4622990000000  0.4326100000000 1.0
C      1  0.5163160000000  0.4626230000000  0.5728520000000 1.0
C      1  0.5251330000000  0.5686920000000  0.4919100000000 1.0
C      1  0.5427370000000  0.5745760000000  0.5127970000000 1.0
C      1  0.5510650000000  0.5365680000000  0.5590650000000 1.0
C      1  0.5464720000000  0.5372130000000  0.4365950000000 1.0
C      1  0.4646990000000  0.5562930000000  0.4676860000000 1.0
C      1  0.4572370000000  0.5570540000000  0.5314150000000 1.0
C      1  0.5233900000000  0.4783720000000  0.4870690000000 1.0
C      1  0.5237600000000  0.4788590000000  0.5183730000000 1.0
C      1  0.4673190000000  0.4763410000000  0.5159190000000 1.0
C      1  0.4642260000000  0.4800270000000  0.4840560000000 1.0
C      1  0.4685500000000  0.5565790000000  0.4391490000000 1.0
C      1  0.4814260000000  0.5468510000000  0.5503610000000 1.0
C      1  0.4969680000000  0.5166410000000  0.5151250000000 1.0
C      1  0.4968280000000  0.5156260000000  0.4813250000000 1.0
C      1  0.5347200000000  0.5476550000000  0.4134320000000 1.0
C      1  0.5290200000000  0.5573750000000  0.5612990000000 1.0
C      1  0.4375520000000  0.5293320000000  0.5303980000000 1.0
C      1  0.4413120000000  0.5331020000000  0.4761800000000 1.0
C      1  0.4448430000000  0.4995630000000  0.4727790000000 1.0
C      1  0.4449710000000  0.4956700000000  0.5285730000000 1.0
C      1  0.5335260000000  0.4860540000000  0.5744550000000 1.0
C      1  0.5288180000000  0.4857200000000  0.4279960000000 1.0
C      1  0.4591460000000  0.4766590000000  0.4252700000000 1.0
C      1  0.4614730000000  0.4707010000000  0.5686560000000 1.0
C      1  0.5697890000000  0.4669120000000  0.5270540000000 1.0
C      1  0.5681490000000  0.4665640000000  0.4753950000000 1.0
C      1  0.4507910000000  0.4402360000000  0.5178040000000 1.0
C      1  0.4571120000000  0.4484830000000  0.4853770000000 1.0
C      1  0.5098120000000  0.4269800000000  0.4712920000000 1.0
C      1  0.5048160000000  0.4325340000000  0.5318630000000 1.0
C      1  0.4868710000000  0.4660860000000  0.4377990000000 1.0
C      1  0.4893300000000  0.4549500000000  0.5610160000000 1.0
C      1  0.5092990000000  0.5341820000000  0.4584240000000 1.0
C      1  0.5092680000000  0.5532040000000  0.5374830000000 1.0
C      1  0.4166250000000  0.5088140000000  0.5151650000000 1.0
C      1  0.4170590000000  0.5124610000000  0.4866020000000 1.0
C      1  0.4601590000000  0.4560970000000  0.4523730000000 1.0
C      1  0.4598010000000  0.4464380000000  0.5464620000000 1.0
C      1  0.4478790000000  0.5100000000000  0.4431180000000 1.0
C      1  0.4512180000000  0.5046090000000  0.5587070000000 1.0
C      1  0.5413830000000  0.4544930000000  0.5294290000000 1.0
C      1  0.5400460000000  0.4526530000000  0.4747750000000 1.0
C      1  0.4949220000000  0.5588540000000  0.4830730000000 1.0
C      1  0.4866260000000  0.5627730000000  0.5152010000000 1.0
C      1  0.4759160000000  0.5247980000000  0.5693310000000 1.0
C      1  0.4885470000000  0.5339340000000  0.4314720000000 1.0
C      1  0.4947740000000  0.4890250000000  0.5286970000000 1.0
C      1  0.4939280000000  0.4853820000000  0.4769410000000 1.0
C      1  0.4704840000000  0.5299500000000  0.4883930000000 1.0
C      1  0.4677530000000  0.5278380000000  0.5180790000000 1.0
C      1  0.5517300000000  0.5512270000000  0.5291820000000 1.0
C      1  0.5536560000000  0.5474350000000  0.4618640000000 1.0
C      1  0.5265180000000  0.5313760000000  0.5179220000000 1.0
C      1  0.5310050000000  0.5360710000000  0.4845410000000 1.0
C      1  0.5655220000000  0.4915380000000  0.4871570000000 1.0
C      1  0.5666430000000  0.4919290000000  0.5149460000000 1.0
C      1  0.5328220000000  0.5107260000000  0.4452870000000 1.0
C      1  0.5435510000000  0.5079770000000  0.5590060000000 1.0
C      1  0.4840450000000  0.4466210000000  0.5147300000000 1.0
C      1  0.4863700000000  0.4329820000000  0.4839910000000 1.0
C      1  0.5411800000000  0.5042790000000  0.5283480000000 1.0
C      1  0.5397430000000  0.5043930000000  0.4758130000000 1.0
END
