TITL C-2622967-6265-355 -5.13764281783878e-07 125000 -195.800762260015 0 0 32 (O) n - 1
REM
REM in /nfs/bkarasulu/CARBON/AIRSS/Generating-Clusters/AIREBO/with-SteepDescent/Higher-Symm/SD-CG/HFTN-CG
REM
REM
REM
REM
REM
REM ./C.cell (b20cbc046b6831c77cfcea5457e17084)
REM
REM compiler GCC version 9.2.1 20190827 (Red Hat 9.2.1-1)
REM options -cpp -mtune=generic -march=x86-64 -g -O0 -fpre-include=/usr/include/finclude/math-vector-fortran.h
REM seed -1529474629 2055865564 227907930 -1260029506 903964659 -1536756631 -1806170775 1301184165 -1264305391 1965025481 1147038016 878075818 38628226 643735809 1875868544 -237672484 -824489671 -1837479802 -1634416943 1343156383 425856001 -696030029 1336120317 -829715702 596460433 -631209619 -1750585153 750333070 -1745112323 1289222922 634826169 -1923181501 372307977
REM
CELL 1.54180   50.00000   50.00000   50.00000   90.00000   90.00000   90.00000
LATT -1
SFAC C  
C      1  0.5477030000000  0.5453530000000  0.5144970000000 1.0
C      1  0.5131770000000  0.5462640000000  0.5479610000000 1.0
C      1  0.5461760000000  0.5112840000000  0.5484030000000 1.0
C      1  0.4512770000000  0.5466810000000  0.4882300000000 1.0
C      1  0.5468910000000  0.4527350000000  0.4853870000000 1.0
C      1  0.4507660000000  0.4527460000000  0.5127660000000 1.0
C      1  0.4858240000000  0.5487420000000  0.4548390000000 1.0
C      1  0.5119720000000  0.4523070000000  0.4523230000000 1.0
C      1  0.4856640000000  0.4502030000000  0.5457560000000 1.0
C      1  0.4523330000000  0.5142970000000  0.4526940000000 1.0
C      1  0.5454460000000  0.4868250000000  0.4514970000000 1.0
C      1  0.4526820000000  0.4851100000000  0.5482850000000 1.0
C      1  0.5455450000000  0.4506010000000  0.5121820000000 1.0
C      1  0.5125130000000  0.4514650000000  0.5471230000000 1.0
C      1  0.5474630000000  0.4844870000000  0.5462510000000 1.0
C      1  0.4520910000000  0.4519090000000  0.4858980000000 1.0
C      1  0.5460770000000  0.5475080000000  0.4877190000000 1.0
C      1  0.4529240000000  0.5474980000000  0.5150810000000 1.0
C      1  0.4851440000000  0.4540160000000  0.4510290000000 1.0
C      1  0.5126350000000  0.5471060000000  0.4531610000000 1.0
C      1  0.4863450000000  0.5449290000000  0.5495650000000 1.0
C      1  0.4506650000000  0.4874480000000  0.4535300000000 1.0
C      1  0.5471310000000  0.5136010000000  0.4536320000000 1.0
C      1  0.4513780000000  0.5119790000000  0.5474650000000 1.0
C      1  0.4610460000000  0.4629400000000  0.4618900000000 1.0
C      1  0.5367390000000  0.4605690000000  0.5367050000000 1.0
C      1  0.4620020000000  0.5363410000000  0.5389850000000 1.0
C      1  0.5368510000000  0.5376660000000  0.4633000000000 1.0
C      1  0.4615800000000  0.5381890000000  0.4637350000000 1.0
C      1  0.4614680000000  0.4610920000000  0.5371390000000 1.0
C      1  0.5363170000000  0.4624170000000  0.4614550000000 1.0
C      1  0.5372720000000  0.5358180000000  0.5385500000000 1.0
END
