TITL C-2622957-9142-520 -0.00162765648980235 125000 -1036.88545919378 0 0 190 (C1) n - 1
REM
REM in /nfs/bkarasulu/CARBON/AIRSS/Generating-Clusters/AIREBO/with-SteepDescent/Higher-Symm/SD-CG/HFTN-CG
REM
REM
REM
REM
REM
REM ./C.cell (b20cbc046b6831c77cfcea5457e17084)
REM
REM compiler GCC version 9.2.1 20190827 (Red Hat 9.2.1-1)
REM options -cpp -mtune=generic -march=x86-64 -g -O0 -fpre-include=/usr/include/finclude/math-vector-fortran.h
REM seed -693047745 2025126881 431162246 -1667915267 1452301737 -791880994 -399517332 1833189671 -632097927 -1121717475 -672338061 -992007037 799824330 520233582 2015722761 189226442 1202360646 1392901909 220246888 -963001919 -1093732587 -424004099 1061827373 710671503 334523519 -30231107 650246769 -1875682471 -1717187557 1441110580 -2118693910 -1610179330 1606352452
REM
CELL 1.54180   50.00000   50.00000   50.00000   90.00000   90.00000   90.00000
LATT -1
SFAC C  
C      1  0.5986500000000  0.5720570000000  0.5180120000000 1.0
C      1  0.6037730000000  0.5724720000000  0.4643300000000 1.0
C      1  0.6041860000000  0.5334200000000  0.4282100000000 1.0
C      1  0.6093760000000  0.4938070000000  0.4263090000000 1.0
C      1  0.6013650000000  0.4401890000000  0.4547740000000 1.0
C      1  0.5905380000000  0.4288600000000  0.4983920000000 1.0
C      1  0.6031580000000  0.4470060000000  0.5458000000000 1.0
C      1  0.5994130000000  0.4923900000000  0.5712080000000 1.0
C      1  0.6040660000000  0.5410310000000  0.5561320000000 1.0
C      1  0.4718840000000  0.4716500000000  0.5067690000000 1.0
C      1  0.4598620000000  0.4512680000000  0.5295170000000 1.0
C      1  0.4674410000000  0.4991050000000  0.5176950000000 1.0
C      1  0.4630620000000  0.5061260000000  0.5493690000000 1.0
C      1  0.4546210000000  0.5446800000000  0.5210850000000 1.0
C      1  0.4651300000000  0.5207460000000  0.5031600000000 1.0
C      1  0.4676420000000  0.5285660000000  0.4745570000000 1.0
C      1  0.4561180000000  0.4918020000000  0.4494920000000 1.0
C      1  0.4624940000000  0.4706560000000  0.4753490000000 1.0
C      1  0.5617300000000  0.4944550000000  0.4219970000000 1.0
C      1  0.5513840000000  0.4435210000000  0.4563840000000 1.0
C      1  0.5447380000000  0.4160930000000  0.5088120000000 1.0
C      1  0.5547410000000  0.4434520000000  0.5440780000000 1.0
C      1  0.5501550000000  0.4908970000000  0.5756920000000 1.0
C      1  0.5533920000000  0.5378870000000  0.5625050000000 1.0
C      1  0.5486090000000  0.5652110000000  0.5201750000000 1.0
C      1  0.5569630000000  0.5664360000000  0.4715030000000 1.0
C      1  0.5494520000000  0.5334440000000  0.4251930000000 1.0
C      1  0.4470710000000  0.4653550000000  0.5951170000000 1.0
C      1  0.4470350000000  0.5486890000000  0.5920650000000 1.0
C      1  0.4468020000000  0.5998810000000  0.5440440000000 1.0
C      1  0.4498100000000  0.6114210000000  0.4549160000000 1.0
C      1  0.4528860000000  0.5526910000000  0.4160350000000 1.0
C      1  0.4440310000000  0.4911470000000  0.3925090000000 1.0
C      1  0.4436900000000  0.4128010000000  0.4290030000000 1.0
C      1  0.4448280000000  0.3907010000000  0.4917890000000 1.0
C      1  0.4396370000000  0.4137010000000  0.5691680000000 1.0
C      1  0.5012320000000  0.4167330000000  0.5837950000000 1.0
C      1  0.4933830000000  0.4877810000000  0.6106650000000 1.0
C      1  0.4836500000000  0.5824620000000  0.5913760000000 1.0
C      1  0.5008190000000  0.6095690000000  0.5267560000000 1.0
C      1  0.5071130000000  0.6009150000000  0.4567500000000 1.0
C      1  0.4902550000000  0.5386130000000  0.3894140000000 1.0
C      1  0.5020280000000  0.4678750000000  0.3899710000000 1.0
C      1  0.5013740000000  0.4114980000000  0.4368870000000 1.0
C      1  0.4981610000000  0.3931660000000  0.5028970000000 1.0
C      1  0.5367100000000  0.3934420000000  0.5367700000000 1.0
C      1  0.5305040000000  0.4597180000000  0.6038010000000 1.0
C      1  0.5397850000000  0.5269830000000  0.6126030000000 1.0
C      1  0.5280630000000  0.5864990000000  0.5584590000000 1.0
C      1  0.5419970000000  0.6093990000000  0.4865070000000 1.0
C      1  0.5253970000000  0.5708550000000  0.4232550000000 1.0
C      1  0.5427520000000  0.5263790000000  0.3916670000000 1.0
C      1  0.5504590000000  0.4661430000000  0.4134900000000 1.0
C      1  0.5321910000000  0.3966030000000  0.4690120000000 1.0
C      1  0.4858310000000  0.5266990000000  0.4458850000000 1.0
C      1  0.4869560000000  0.4847780000000  0.4369650000000 1.0
C      1  0.4880220000000  0.4529290000000  0.4636340000000 1.0
C      1  0.4864890000000  0.4413360000000  0.5018000000000 1.0
C      1  0.4918840000000  0.4478720000000  0.5405840000000 1.0
C      1  0.4869600000000  0.4862060000000  0.5630960000000 1.0
C      1  0.4845200000000  0.5287120000000  0.5630080000000 1.0
C      1  0.4841920000000  0.5621180000000  0.5182300000000 1.0
C      1  0.4868080000000  0.5567600000000  0.4743810000000 1.0
C      1  0.4603430000000  0.5718170000000  0.5799390000000 1.0
C      1  0.4711010000000  0.6175420000000  0.5281130000000 1.0
C      1  0.4806200000000  0.6032320000000  0.4504770000000 1.0
C      1  0.4630330000000  0.5335100000000  0.3966280000000 1.0
C      1  0.4686060000000  0.4685690000000  0.3846000000000 1.0
C      1  0.4744780000000  0.4129860000000  0.4352340000000 1.0
C      1  0.4705030000000  0.3910080000000  0.5040190000000 1.0
C      1  0.4697230000000  0.4107200000000  0.5847360000000 1.0
C      1  0.4662200000000  0.4871630000000  0.6073780000000 1.0
C      1  0.5786560000000  0.4383200000000  0.5552970000000 1.0
C      1  0.5798100000000  0.4860720000000  0.5855060000000 1.0
C      1  0.5831360000000  0.5472150000000  0.5687360000000 1.0
C      1  0.5765670000000  0.5789920000000  0.5276910000000 1.0
C      1  0.5809880000000  0.5837820000000  0.4625790000000 1.0
C      1  0.5795750000000  0.5412730000000  0.4197420000000 1.0
C      1  0.5901730000000  0.4983870000000  0.4100960000000 1.0
C      1  0.5792730000000  0.4299040000000  0.4483300000000 1.0
C      1  0.5734520000000  0.4119040000000  0.5052120000000 1.0
C      1  0.5057420000000  0.5662280000000  0.5930880000000 1.0
C      1  0.5199310000000  0.6105250000000  0.5477700000000 1.0
C      1  0.5274250000000  0.6186320000000  0.4647410000000 1.0
C      1  0.5095120000000  0.5563400000000  0.4073370000000 1.0
C      1  0.5182570000000  0.4598180000000  0.3710520000000 1.0
C      1  0.5179980000000  0.3924790000000  0.4265760000000 1.0
C      1  0.5169090000000  0.3804740000000  0.4858710000000 1.0
C      1  0.5174170000000  0.4034800000000  0.5997310000000 1.0
C      1  0.5122010000000  0.4696980000000  0.6225050000000 1.0
C      1  0.4740770000000  0.5819190000000  0.5439570000000 1.0
C      1  0.4600260000000  0.5961310000000  0.4837180000000 1.0
C      1  0.4724480000000  0.5562620000000  0.4357410000000 1.0
C      1  0.4765910000000  0.4965690000000  0.4006670000000 1.0
C      1  0.4527120000000  0.4461960000000  0.4306160000000 1.0
C      1  0.4621760000000  0.4265490000000  0.4879390000000 1.0
C      1  0.4634560000000  0.4069920000000  0.5488520000000 1.0
C      1  0.4699010000000  0.4633300000000  0.5755480000000 1.0
C      1  0.4663140000000  0.5278320000000  0.5921390000000 1.0
C      1  0.4037820000000  0.5234640000000  0.5331730000000 1.0
C      1  0.3991160000000  0.5418910000000  0.5144200000000 1.0
C      1  0.3975270000000  0.5349460000000  0.4865940000000 1.0
C      1  0.4082000000000  0.5110550000000  0.4735260000000 1.0
C      1  0.4008890000000  0.4862570000000  0.4652120000000 1.0
C      1  0.3971720000000  0.4584700000000  0.4799880000000 1.0
C      1  0.3881920000000  0.4575050000000  0.5110930000000 1.0
C      1  0.3985990000000  0.4684300000000  0.5393910000000 1.0
C      1  0.3910770000000  0.4992010000000  0.5447170000000 1.0
C      1  0.5241200000000  0.5259490000000  0.4687610000000 1.0
C      1  0.5068800000000  0.5023210000000  0.4568260000000 1.0
C      1  0.5108300000000  0.4743750000000  0.4706250000000 1.0
C      1  0.5302450000000  0.4605520000000  0.4918010000000 1.0
C      1  0.5095010000000  0.4615570000000  0.5156740000000 1.0
C      1  0.5193530000000  0.4810610000000  0.5402670000000 1.0
C      1  0.5021120000000  0.5092220000000  0.5413890000000 1.0
C      1  0.5078360000000  0.5386450000000  0.5252980000000 1.0
C      1  0.5065780000000  0.5371850000000  0.4922780000000 1.0
C      1  0.5284270000000  0.4264200000000  0.5368130000000 1.0
C      1  0.5239720000000  0.4690910000000  0.5717670000000 1.0
C      1  0.5328840000000  0.5194170000000  0.5823660000000 1.0
C      1  0.5296750000000  0.5549810000000  0.5457950000000 1.0
C      1  0.5339590000000  0.5772450000000  0.4940940000000 1.0
C      1  0.5351030000000  0.5519930000000  0.4498320000000 1.0
C      1  0.5304610000000  0.5066110000000  0.4164530000000 1.0
C      1  0.5307380000000  0.4538620000000  0.4327090000000 1.0
C      1  0.5318820000000  0.4287130000000  0.4799770000000 1.0
C      1  0.5081830000000  0.4961880000000  0.5849140000000 1.0
C      1  0.5111730000000  0.5436480000000  0.5724840000000 1.0
C      1  0.5057030000000  0.5870690000000  0.5098050000000 1.0
C      1  0.5136470000000  0.5719180000000  0.4671220000000 1.0
C      1  0.5046390000000  0.5260660000000  0.4175650000000 1.0
C      1  0.5125470000000  0.4776860000000  0.4180800000000 1.0
C      1  0.5125670000000  0.4353560000000  0.4523970000000 1.0
C      1  0.5051570000000  0.4188340000000  0.5132100000000 1.0
C      1  0.5122130000000  0.4379150000000  0.5644180000000 1.0
C      1  0.4513310000000  0.5023330000000  0.5810590000000 1.0
C      1  0.4655200000000  0.5526940000000  0.5522880000000 1.0
C      1  0.4650070000000  0.5891230000000  0.5104610000000 1.0
C      1  0.4652110000000  0.5746980000000  0.4582490000000 1.0
C      1  0.4626650000000  0.5139400000000  0.4245040000000 1.0
C      1  0.4639440000000  0.4682340000000  0.4181660000000 1.0
C      1  0.4623420000000  0.4320820000000  0.4585700000000 1.0
C      1  0.4594510000000  0.4183890000000  0.5208350000000 1.0
C      1  0.4723380000000  0.4361580000000  0.5641690000000 1.0
C      1  0.4245750000000  0.5473490000000  0.4729740000000 1.0
C      1  0.4384380000000  0.5188650000000  0.4600790000000 1.0
C      1  0.4265230000000  0.4744780000000  0.4496540000000 1.0
C      1  0.4303910000000  0.4660970000000  0.4823790000000 1.0
C      1  0.4220870000000  0.4543480000000  0.5105150000000 1.0
C      1  0.4325170000000  0.4689380000000  0.5369920000000 1.0
C      1  0.4246780000000  0.4954630000000  0.5520700000000 1.0
C      1  0.4362730000000  0.5260800000000  0.5428710000000 1.0
C      1  0.4269250000000  0.5553520000000  0.5044010000000 1.0
C      1  0.4224320000000  0.5869790000000  0.5033120000000 1.0
C      1  0.4204790000000  0.5652480000000  0.4487490000000 1.0
C      1  0.4232440000000  0.5175840000000  0.4296760000000 1.0
C      1  0.4172220000000  0.4626200000000  0.4224390000000 1.0
C      1  0.4126290000000  0.4323530000000  0.4707330000000 1.0
C      1  0.4205060000000  0.4256390000000  0.5263200000000 1.0
C      1  0.4094090000000  0.4538440000000  0.5657350000000 1.0
C      1  0.4186600000000  0.5061340000000  0.5833260000000 1.0
C      1  0.4227690000000  0.5562090000000  0.5510500000000 1.0
C      1  0.4258260000000  0.5812020000000  0.5348540000000 1.0
C      1  0.4297710000000  0.5886110000000  0.4701220000000 1.0
C      1  0.4268430000000  0.5480590000000  0.4263330000000 1.0
C      1  0.4249710000000  0.4920910000000  0.4138070000000 1.0
C      1  0.4225960000000  0.4354060000000  0.4421410000000 1.0
C      1  0.4296390000000  0.4188590000000  0.4942550000000 1.0
C      1  0.4197230000000  0.4283350000000  0.5557990000000 1.0
C      1  0.4215990000000  0.4721890000000  0.5841980000000 1.0
C      1  0.4233730000000  0.5396320000000  0.5781130000000 1.0
C      1  0.5542500000000  0.5176420000000  0.4727670000000 1.0
C      1  0.5672640000000  0.4965180000000  0.4525220000000 1.0
C      1  0.5720090000000  0.4666860000000  0.4622130000000 1.0
C      1  0.5586350000000  0.4702710000000  0.5032470000000 1.0
C      1  0.5504640000000  0.4713060000000  0.5331760000000 1.0
C      1  0.5666810000000  0.4921960000000  0.5482300000000 1.0
C      1  0.5696370000000  0.5223230000000  0.5404990000000 1.0
C      1  0.5711380000000  0.5412470000000  0.5156990000000 1.0
C      1  0.5709430000000  0.5407500000000  0.4828390000000 1.0
C      1  0.6036150000000  0.5426960000000  0.5056330000000 1.0
C      1  0.6032730000000  0.5423670000000  0.4745270000000 1.0
C      1  0.6101350000000  0.5236220000000  0.4529150000000 1.0
C      1  0.6008810000000  0.4937020000000  0.4580880000000 1.0
C      1  0.6028930000000  0.4660400000000  0.4738800000000 1.0
C      1  0.5891350000000  0.4602590000000  0.5018690000000 1.0
C      1  0.6039400000000  0.4673370000000  0.5273100000000 1.0
C      1  0.5985270000000  0.4947410000000  0.5389630000000 1.0
C      1  0.6052280000000  0.5240050000000  0.5309890000000 1.0
C      1  0.5571520000000  0.4957940000000  0.4911790000000 1.0
END
