TITL C-2622968-4806-36 0.000709387471979808 125000 -461.053720260496 0 0 82 (C1) n - 1
REM
REM in /nfs/bkarasulu/CARBON/AIRSS/Generating-Clusters/AIREBO/with-SteepDescent/Higher-Symm/SD-CG/HFTN-CG
REM
REM
REM
REM
REM
REM ./C.cell (b20cbc046b6831c77cfcea5457e17084)
REM
REM compiler GCC version 9.2.1 20190827 (Red Hat 9.2.1-1)
REM options -cpp -mtune=generic -march=x86-64 -g -O0 -fpre-include=/usr/include/finclude/math-vector-fortran.h
REM seed 426039461 -434083780 834439420 632214086 1415116887 -335151062 -835495265 -1082187087 -137764632 -1588758812 -669943916 1318864105 647315860 2073343514 -1304320573 -1003763050 -1006273376 -1286920039 -1810457034 774899966 703926108 -1588407153 2054022409 -218952416 -1199607002 473678229 340383008 650242054 -1534060692 -1043766151 956832542 -1315057195 -869076419
REM
CELL 1.54180   50.00000   50.00000   50.00000   90.00000   90.00000   90.00000
LATT -1
SFAC C  
C      1  0.4416300000000  0.5127130000000  0.5364460000000 1.0
C      1  0.4943180000000  0.5234010000000  0.4273540000000 1.0
C      1  0.5541200000000  0.5227410000000  0.5333870000000 1.0
C      1  0.4943130000000  0.4354420000000  0.5267100000000 1.0
C      1  0.4796580000000  0.4424090000000  0.4807840000000 1.0
C      1  0.5286620000000  0.4421440000000  0.4861080000000 1.0
C      1  0.4804620000000  0.5494620000000  0.4436970000000 1.0
C      1  0.5609940000000  0.5479390000000  0.5418830000000 1.0
C      1  0.4508210000000  0.5448450000000  0.5386330000000 1.0
C      1  0.4874520000000  0.5836780000000  0.5266090000000 1.0
C      1  0.4711740000000  0.5809930000000  0.4710540000000 1.0
C      1  0.5387820000000  0.5807950000000  0.4986150000000 1.0
C      1  0.4845820000000  0.4802950000000  0.5156940000000 1.0
C      1  0.4979310000000  0.4866750000000  0.4668450000000 1.0
C      1  0.5319550000000  0.4695110000000  0.5039170000000 1.0
C      1  0.4604420000000  0.4340870000000  0.4642020000000 1.0
C      1  0.5497290000000  0.4274020000000  0.4705420000000 1.0
C      1  0.4894510000000  0.4348500000000  0.5532970000000 1.0
C      1  0.5383920000000  0.4415940000000  0.5463080000000 1.0
C      1  0.4447140000000  0.4528570000000  0.5142320000000 1.0
C      1  0.5148600000000  0.4615010000000  0.4406920000000 1.0
C      1  0.5273990000000  0.5442520000000  0.6054250000000 1.0
C      1  0.3910710000000  0.5381410000000  0.4478610000000 1.0
C      1  0.6275500000000  0.5090780000000  0.4421150000000 1.0
C      1  0.5589150000000  0.4825790000000  0.5034240000000 1.0
C      1  0.4778320000000  0.4940940000000  0.5434040000000 1.0
C      1  0.4703220000000  0.4954950000000  0.4487920000000 1.0
C      1  0.4231770000000  0.5476850000000  0.4947970000000 1.0
C      1  0.5343600000000  0.5372760000000  0.4486080000000 1.0
C      1  0.5175670000000  0.5509020000000  0.5666560000000 1.0
C      1  0.6078070000000  0.4934680000000  0.4494360000000 1.0
C      1  0.5180690000000  0.5211100000000  0.5974440000000 1.0
C      1  0.4039810000000  0.5153980000000  0.4495960000000 1.0
C      1  0.4284010000000  0.5613040000000  0.5190180000000 1.0
C      1  0.5131650000000  0.5539010000000  0.4355230000000 1.0
C      1  0.5416480000000  0.5644220000000  0.5614720000000 1.0
C      1  0.4443520000000  0.4804150000000  0.4518370000000 1.0
C      1  0.5727820000000  0.4799230000000  0.4807660000000 1.0
C      1  0.4955430000000  0.4840860000000  0.5662350000000 1.0
C      1  0.5706830000000  0.4806620000000  0.5505810000000 1.0
C      1  0.4380100000000  0.4615300000000  0.5388920000000 1.0
C      1  0.4975480000000  0.4721050000000  0.4234430000000 1.0
C      1  0.4599370000000  0.5191860000000  0.5095540000000 1.0
C      1  0.5006470000000  0.5188820000000  0.4596740000000 1.0
C      1  0.5274680000000  0.5210750000000  0.5269830000000 1.0
C      1  0.4968330000000  0.4550050000000  0.5700940000000 1.0
C      1  0.4416580000000  0.4515330000000  0.4549980000000 1.0
C      1  0.5655730000000  0.4320370000000  0.4520770000000 1.0
C      1  0.4746980000000  0.4510940000000  0.5095130000000 1.0
C      1  0.5046250000000  0.4540940000000  0.4696030000000 1.0
C      1  0.5235300000000  0.4408760000000  0.5191460000000 1.0
C      1  0.5734380000000  0.4594350000000  0.4367020000000 1.0
C      1  0.5200430000000  0.4660610000000  0.5921400000000 1.0
C      1  0.4117760000000  0.4624540000000  0.4663300000000 1.0
C      1  0.5973420000000  0.5058330000000  0.5209460000000 1.0
C      1  0.4411590000000  0.4891780000000  0.5799780000000 1.0
C      1  0.4647410000000  0.4994460000000  0.3945720000000 1.0
C      1  0.4801950000000  0.4978590000000  0.4173560000000 1.0
C      1  0.5706630000000  0.4978070000000  0.5277650000000 1.0
C      1  0.4473510000000  0.4875170000000  0.5527500000000 1.0
C      1  0.5367020000000  0.4545120000000  0.5671690000000 1.0
C      1  0.4294830000000  0.4568660000000  0.4926950000000 1.0
C      1  0.5413170000000  0.4606080000000  0.4382980000000 1.0
C      1  0.4669690000000  0.5260150000000  0.4613230000000 1.0
C      1  0.5209470000000  0.5137310000000  0.5013830000000 1.0
C      1  0.4791370000000  0.5260870000000  0.5369760000000 1.0
C      1  0.4998130000000  0.5703780000000  0.4622260000000 1.0
C      1  0.5414630000000  0.5717690000000  0.5293070000000 1.0
C      1  0.4598140000000  0.5724310000000  0.5211840000000 1.0
C      1  0.5220320000000  0.5326350000000  0.4786030000000 1.0
C      1  0.5061820000000  0.5390470000000  0.5389410000000 1.0
C      1  0.4524390000000  0.5351790000000  0.4849890000000 1.0
C      1  0.5232140000000  0.4574410000000  0.6181240000000 1.0
C      1  0.3872090000000  0.4509530000000  0.4615420000000 1.0
C      1  0.5853350000000  0.4577220000000  0.4115940000000 1.0
C      1  0.4580370000000  0.5664370000000  0.4903120000000 1.0
C      1  0.5162060000000  0.5623720000000  0.4872200000000 1.0
C      1  0.5091710000000  0.5657850000000  0.5204920000000 1.0
C      1  0.5854800000000  0.4790670000000  0.4562010000000 1.0
C      1  0.5106840000000  0.4974610000000  0.5871500000000 1.0
C      1  0.4178930000000  0.4928290000000  0.4538230000000 1.0
C      1  0.5078230000000  0.4872010000000  0.4976100000000 1.0
END
