TITL C-2622968-4806-284 -0.00327364019042559 125000 -947.181469633381 0 0 175 (C1) n - 1
REM
REM in /nfs/bkarasulu/CARBON/AIRSS/Generating-Clusters/AIREBO/with-SteepDescent/Higher-Symm/SD-CG/HFTN-CG
REM
REM
REM
REM
REM
REM ./C.cell (b20cbc046b6831c77cfcea5457e17084)
REM
REM compiler GCC version 9.2.1 20190827 (Red Hat 9.2.1-1)
REM options -cpp -mtune=generic -march=x86-64 -g -O0 -fpre-include=/usr/include/finclude/math-vector-fortran.h
REM seed 1828085346 -442956665 1578919754 1087818971 -1761152187 641916614 -2026069628 -270479906 1716167571 2024615862 1035535039 2144730742 1661028600 -110701099 -1219446306 -2134234919 1339323630 -1583659983 -1483698527 740153340 -152718511 1968402813 -411609791 822592602 -1300955952 -2117358498 -921735600 1362428488 -1404796253 -553827027 1651775989 324501290 1614539484
REM
CELL 1.54180   50.00000   50.00000   50.00000   90.00000   90.00000   90.00000
LATT -1
SFAC C  
C      1  0.4744100000000  0.5557190000000  0.5686120000000 1.0
C      1  0.4444950000000  0.5113700000000  0.5513100000000 1.0
C      1  0.4852100000000  0.4413300000000  0.5614030000000 1.0
C      1  0.5498250000000  0.4607230000000  0.5564470000000 1.0
C      1  0.5490340000000  0.5221570000000  0.5511040000000 1.0
C      1  0.5971210000000  0.5104840000000  0.4740880000000 1.0
C      1  0.5072750000000  0.6038160000000  0.4783790000000 1.0
C      1  0.4125670000000  0.5521880000000  0.4701110000000 1.0
C      1  0.4260070000000  0.4339740000000  0.4767010000000 1.0
C      1  0.5432770000000  0.3984010000000  0.4841390000000 1.0
C      1  0.5103660000000  0.5630150000000  0.5838160000000 1.0
C      1  0.4411700000000  0.5366380000000  0.5782290000000 1.0
C      1  0.4510810000000  0.4669580000000  0.5782480000000 1.0
C      1  0.5297270000000  0.4331580000000  0.5767470000000 1.0
C      1  0.5558400000000  0.5023670000000  0.5849280000000 1.0
C      1  0.4843660000000  0.5774800000000  0.5868880000000 1.0
C      1  0.4199890000000  0.5135170000000  0.5723320000000 1.0
C      1  0.4632780000000  0.4412410000000  0.5812490000000 1.0
C      1  0.5582540000000  0.4433830000000  0.5794580000000 1.0
C      1  0.5705630000000  0.5311700000000  0.5850510000000 1.0
C      1  0.5300630000000  0.4954600000000  0.5987590000000 1.0
C      1  0.5138890000000  0.5169050000000  0.6071150000000 1.0
C      1  0.4930420000000  0.5071560000000  0.6269330000000 1.0
C      1  0.4878030000000  0.4852530000000  0.6064550000000 1.0
C      1  0.5116670000000  0.4745790000000  0.5956830000000 1.0
C      1  0.4677740000000  0.5128460000000  0.3946820000000 1.0
C      1  0.4702710000000  0.4792970000000  0.3955070000000 1.0
C      1  0.5029560000000  0.4777300000000  0.4024670000000 1.0
C      1  0.5175230000000  0.5053940000000  0.3920830000000 1.0
C      1  0.4959130000000  0.5294090000000  0.3973480000000 1.0
C      1  0.5605810000000  0.5201770000000  0.5207300000000 1.0
C      1  0.4839940000000  0.5621740000000  0.5381360000000 1.0
C      1  0.4383020000000  0.5188130000000  0.5220430000000 1.0
C      1  0.4799320000000  0.4406210000000  0.5298340000000 1.0
C      1  0.5512350000000  0.4503620000000  0.5284580000000 1.0
C      1  0.5154370000000  0.5211540000000  0.4451040000000 1.0
C      1  0.4817860000000  0.5220150000000  0.4491080000000 1.0
C      1  0.4794720000000  0.4880690000000  0.4493450000000 1.0
C      1  0.5026100000000  0.4677370000000  0.4418880000000 1.0
C      1  0.5266960000000  0.4902010000000  0.4503580000000 1.0
C      1  0.4189960000000  0.4851830000000  0.5033630000000 1.0
C      1  0.4911260000000  0.4086210000000  0.5086360000000 1.0
C      1  0.5734150000000  0.4695950000000  0.5004170000000 1.0
C      1  0.5507820000000  0.5613640000000  0.5037920000000 1.0
C      1  0.4544900000000  0.5789910000000  0.5175060000000 1.0
C      1  0.4866120000000  0.5162560000000  0.5378430000000 1.0
C      1  0.4700410000000  0.4898960000000  0.5515620000000 1.0
C      1  0.4994350000000  0.4740790000000  0.5441910000000 1.0
C      1  0.5213760000000  0.4959400000000  0.5396390000000 1.0
C      1  0.5153750000000  0.5267540000000  0.5526970000000 1.0
C      1  0.5090220000000  0.5777580000000  0.5197820000000 1.0
C      1  0.4382360000000  0.5497690000000  0.5112230000000 1.0
C      1  0.4516730000000  0.4477990000000  0.5122400000000 1.0
C      1  0.5376140000000  0.4304740000000  0.5070330000000 1.0
C      1  0.5807860000000  0.4966250000000  0.5159380000000 1.0
C      1  0.5043860000000  0.5687570000000  0.4412270000000 1.0
C      1  0.4375710000000  0.5186120000000  0.4452720000000 1.0
C      1  0.4634420000000  0.4433400000000  0.4447490000000 1.0
C      1  0.5431330000000  0.4394310000000  0.4367020000000 1.0
C      1  0.5549010000000  0.5208910000000  0.4425070000000 1.0
C      1  0.4378660000000  0.4070230000000  0.4936430000000 1.0
C      1  0.5716180000000  0.4126930000000  0.4963830000000 1.0
C      1  0.6057900000000  0.5391090000000  0.4893350000000 1.0
C      1  0.4898940000000  0.6066570000000  0.5001150000000 1.0
C      1  0.3915190000000  0.5337930000000  0.4884780000000 1.0
C      1  0.5415400000000  0.5994110000000  0.5348990000000 1.0
C      1  0.4129670000000  0.5805910000000  0.5297320000000 1.0
C      1  0.4045280000000  0.4475250000000  0.5301400000000 1.0
C      1  0.5289910000000  0.3838880000000  0.5300410000000 1.0
C      1  0.6084510000000  0.4940750000000  0.5361260000000 1.0
C      1  0.5320550000000  0.4886030000000  0.4168160000000 1.0
C      1  0.5236650000000  0.5296220000000  0.4152350000000 1.0
C      1  0.4711620000000  0.5349850000000  0.4194590000000 1.0
C      1  0.4639870000000  0.4960910000000  0.4242540000000 1.0
C      1  0.4957290000000  0.4498410000000  0.4148460000000 1.0
C      1  0.4879130000000  0.4395850000000  0.4978110000000 1.0
C      1  0.5422960000000  0.4701240000000  0.5054510000000 1.0
C      1  0.5455900000000  0.5296850000000  0.4938880000000 1.0
C      1  0.4775980000000  0.5556950000000  0.5085980000000 1.0
C      1  0.4489420000000  0.4976930000000  0.5024990000000 1.0
C      1  0.4100410000000  0.5416900000000  0.5383810000000 1.0
C      1  0.4431590000000  0.4330480000000  0.5423680000000 1.0
C      1  0.5618220000000  0.4178050000000  0.5489260000000 1.0
C      1  0.5968530000000  0.5260470000000  0.5439190000000 1.0
C      1  0.5069860000000  0.5905540000000  0.5529760000000 1.0
C      1  0.5106660000000  0.6110220000000  0.5266420000000 1.0
C      1  0.4047410000000  0.5552350000000  0.5091470000000 1.0
C      1  0.4238110000000  0.4286360000000  0.5158110000000 1.0
C      1  0.5509660000000  0.4050100000000  0.5225530000000 1.0
C      1  0.6057610000000  0.5181610000000  0.5122750000000 1.0
C      1  0.4772300000000  0.4024580000000  0.4602170000000 1.0
C      1  0.5872370000000  0.4414760000000  0.4582950000000 1.0
C      1  0.5743840000000  0.5699050000000  0.4634800000000 1.0
C      1  0.4677960000000  0.5967250000000  0.4540580000000 1.0
C      1  0.3996640000000  0.4920610000000  0.4580910000000 1.0
C      1  0.5345960000000  0.5744430000000  0.4309240000000 1.0
C      1  0.4395310000000  0.5506450000000  0.4379950000000 1.0
C      1  0.4354260000000  0.4573570000000  0.4341000000000 1.0
C      1  0.5210140000000  0.4156820000000  0.4383460000000 1.0
C      1  0.5757150000000  0.4958280000000  0.4368210000000 1.0
C      1  0.3942900000000  0.5069430000000  0.5035900000000 1.0
C      1  0.4605540000000  0.3964250000000  0.5119640000000 1.0
C      1  0.5841460000000  0.4413940000000  0.5080890000000 1.0
C      1  0.5847190000000  0.5592280000000  0.5039210000000 1.0
C      1  0.4705030000000  0.6085600000000  0.5225990000000 1.0
C      1  0.5708390000000  0.4678960000000  0.4556190000000 1.0
C      1  0.5424270000000  0.5699250000000  0.4613820000000 1.0
C      1  0.4607740000000  0.5666150000000  0.4587710000000 1.0
C      1  0.4236300000000  0.4739090000000  0.4567800000000 1.0
C      1  0.5021500000000  0.4185900000000  0.4620810000000 1.0
C      1  0.5238120000000  0.5760500000000  0.4891930000000 1.0
C      1  0.4409760000000  0.5509650000000  0.4788450000000 1.0
C      1  0.4378550000000  0.4633640000000  0.4853520000000 1.0
C      1  0.5160880000000  0.4128870000000  0.4882250000000 1.0
C      1  0.5763050000000  0.4918650000000  0.4765560000000 1.0
C      1  0.4803980000000  0.5219490000000  0.5048280000000 1.0
C      1  0.4815660000000  0.4881850000000  0.5009490000000 1.0
C      1  0.5028210000000  0.4671300000000  0.5110420000000 1.0
C      1  0.5291940000000  0.4971470000000  0.5099740000000 1.0
C      1  0.5132500000000  0.5243080000000  0.4971570000000 1.0
C      1  0.4408500000000  0.5803480000000  0.5482840000000 1.0
C      1  0.4171570000000  0.4746290000000  0.5334790000000 1.0
C      1  0.5022110000000  0.4019500000000  0.5392900000000 1.0
C      1  0.5920660000000  0.4726810000000  0.5553620000000 1.0
C      1  0.5468950000000  0.5702860000000  0.5350700000000 1.0
C      1  0.5296400000000  0.4138120000000  0.5556370000000 1.0
C      1  0.5761550000000  0.5026720000000  0.5576650000000 1.0
C      1  0.5226480000000  0.5603460000000  0.5528500000000 1.0
C      1  0.4276910000000  0.5530710000000  0.5560880000000 1.0
C      1  0.4449120000000  0.4667320000000  0.5469650000000 1.0
C      1  0.5440980000000  0.4994510000000  0.4784020000000 1.0
C      1  0.5002060000000  0.5518690000000  0.4872130000000 1.0
C      1  0.4616840000000  0.5248290000000  0.4763900000000 1.0
C      1  0.4679240000000  0.4751210000000  0.4758660000000 1.0
C      1  0.5232000000000  0.4538170000000  0.4871990000000 1.0
C      1  0.5032280000000  0.4174790000000  0.4138030000000 1.0
C      1  0.5603880000000  0.4792120000000  0.4147240000000 1.0
C      1  0.5444120000000  0.5511920000000  0.4147960000000 1.0
C      1  0.4610500000000  0.5653590000000  0.4166220000000 1.0
C      1  0.4395020000000  0.4768590000000  0.4105900000000 1.0
C      1  0.5918770000000  0.5481650000000  0.4617700000000 1.0
C      1  0.4941040000000  0.6051290000000  0.4540050000000 1.0
C      1  0.3983080000000  0.5207550000000  0.4578160000000 1.0
C      1  0.4492460000000  0.4100870000000  0.4617370000000 1.0
C      1  0.5749130000000  0.4177530000000  0.4652040000000 1.0
C      1  0.5617240000000  0.4516540000000  0.4155540000000 1.0
C      1  0.5710670000000  0.5438980000000  0.4141340000000 1.0
C      1  0.4830160000000  0.5804340000000  0.4208600000000 1.0
C      1  0.4254550000000  0.5040150000000  0.4192150000000 1.0
C      1  0.4714820000000  0.4259370000000  0.4181240000000 1.0
C      1  0.5870170000000  0.5281620000000  0.4385520000000 1.0
C      1  0.5110150000000  0.5988360000000  0.4268160000000 1.0
C      1  0.4110980000000  0.5333310000000  0.4298240000000 1.0
C      1  0.4400700000000  0.4233130000000  0.4317790000000 1.0
C      1  0.5534120000000  0.4109240000000  0.4478360000000 1.0
C      1  0.4625630000000  0.4114220000000  0.5750910000000 1.0
C      1  0.5855940000000  0.4528230000000  0.5810900000000 1.0
C      1  0.5727860000000  0.5493940000000  0.5681810000000 1.0
C      1  0.4719540000000  0.6044120000000  0.5827040000000 1.0
C      1  0.3935990000000  0.5052610000000  0.5648780000000 1.0
C      1  0.5389870000000  0.4601440000000  0.4599910000000 1.0
C      1  0.5389820000000  0.5387920000000  0.4621520000000 1.0
C      1  0.4888380000000  0.5527510000000  0.4600120000000 1.0
C      1  0.4378340000000  0.5010860000000  0.4714800000000 1.0
C      1  0.4866160000000  0.4486910000000  0.4650720000000 1.0
C      1  0.5404430000000  0.4852070000000  0.5615170000000 1.0
C      1  0.5030260000000  0.5318360000000  0.5839660000000 1.0
C      1  0.4714590000000  0.5241380000000  0.5776630000000 1.0
C      1  0.4685950000000  0.4926460000000  0.5854270000000 1.0
C      1  0.5100320000000  0.4564140000000  0.5713050000000 1.0
C      1  0.4688330000000  0.4107350000000  0.5416810000000 1.0
C      1  0.5821800000000  0.4435710000000  0.5408140000000 1.0
C      1  0.5733870000000  0.5486640000000  0.5341880000000 1.0
C      1  0.4730250000000  0.5915790000000  0.5512320000000 1.0
C      1  0.4085380000000  0.5079400000000  0.5344480000000 1.0
END
