TITL C-2622963-3633-757 -0.000872532317395995 125000 -232.034456326958 0 0 40 (C1) n - 1
REM
REM in /nfs/bkarasulu/CARBON/AIRSS/Generating-Clusters/AIREBO/with-SteepDescent/Higher-Symm/SD-CG/HFTN-CG
REM
REM
REM
REM
REM
REM ./C.cell (b20cbc046b6831c77cfcea5457e17084)
REM
REM compiler GCC version 9.2.1 20190827 (Red Hat 9.2.1-1)
REM options -cpp -mtune=generic -march=x86-64 -g -O0 -fpre-include=/usr/include/finclude/math-vector-fortran.h
REM seed 1999550206 1303569044 -174494208 -792520571 -1742967506 -64883180 995412727 564032924 835755617 1403203912 639869979 -1644648137 1726337239 -516891159 -1215503897 -1919205894 -171387359 1706875244 1300642492 529057201 1731899384 744942641 -129939155 -2080801417 -794052716 1992901436 -944026007 -2050160537 1037196019 355573631 664067612 639138343 -938312474
REM
CELL 1.54180   50.00000   50.00000   50.00000   90.00000   90.00000   90.00000
LATT -1
SFAC C  
C      1  0.5161150000000  0.4258170000000  0.5031330000000 1.0
C      1  0.5170310000000  0.5744590000000  0.4871550000000 1.0
C      1  0.4886490000000  0.4244060000000  0.5046040000000 1.0
C      1  0.4894440000000  0.5765580000000  0.4843170000000 1.0
C      1  0.5426740000000  0.4989010000000  0.4756990000000 1.0
C      1  0.5653080000000  0.4914990000000  0.5171810000000 1.0
C      1  0.4551060000000  0.5051320000000  0.4946850000000 1.0
C      1  0.4241900000000  0.4959520000000  0.5179760000000 1.0
C      1  0.4602120000000  0.5426390000000  0.5085160000000 1.0
C      1  0.4536410000000  0.4565610000000  0.4873960000000 1.0
C      1  0.5450590000000  0.5393290000000  0.5152780000000 1.0
C      1  0.5509580000000  0.4564730000000  0.4824410000000 1.0
C      1  0.4687610000000  0.5090730000000  0.4683240000000 1.0
C      1  0.4649120000000  0.4818590000000  0.5442190000000 1.0
C      1  0.5316090000000  0.5154390000000  0.4482120000000 1.0
C      1  0.5429520000000  0.4836640000000  0.5335390000000 1.0
C      1  0.5285390000000  0.5500580000000  0.4902610000000 1.0
C      1  0.5293830000000  0.4500490000000  0.4993830000000 1.0
C      1  0.4743160000000  0.5527940000000  0.4842460000000 1.0
C      1  0.4742250000000  0.4483330000000  0.5049130000000 1.0
C      1  0.5456450000000  0.4574070000000  0.4538920000000 1.0
C      1  0.5339560000000  0.5277670000000  0.5453620000000 1.0
C      1  0.4607810000000  0.4605690000000  0.4599580000000 1.0
C      1  0.4533450000000  0.5285230000000  0.5389160000000 1.0
C      1  0.5634860000000  0.4818950000000  0.4908740000000 1.0
C      1  0.5705130000000  0.5197760000000  0.5190880000000 1.0
C      1  0.4379670000000  0.4776970000000  0.4969150000000 1.0
C      1  0.4306570000000  0.5259400000000  0.5060950000000 1.0
C      1  0.4849560000000  0.5315380000000  0.4693130000000 1.0
C      1  0.4874910000000  0.4707870000000  0.5213340000000 1.0
C      1  0.5146020000000  0.5269850000000  0.4737240000000 1.0
C      1  0.5178870000000  0.4750230000000  0.5147760000000 1.0
C      1  0.5199290000000  0.5037930000000  0.4985580000000 1.0
C      1  0.5132520000000  0.5283140000000  0.5200820000000 1.0
C      1  0.4743560000000  0.5012550000000  0.5177000000000 1.0
C      1  0.4852880000000  0.5294370000000  0.5273020000000 1.0
C      1  0.5342920000000  0.4832270000000  0.4471020000000 1.0
C      1  0.5382720000000  0.5024010000000  0.5543140000000 1.0
C      1  0.4679670000000  0.4862580000000  0.4518720000000 1.0
C      1  0.4422720000000  0.5024140000000  0.5413470000000 1.0
END
