TITL C-2622966-9038-144 133.506459624759 125000 -534.590120202623 0 0 97 (C1) n - 1
REM
REM in /nfs/bkarasulu/CARBON/AIRSS/Generating-Clusters/AIREBO/with-SteepDescent/Higher-Symm/SD-CG/HFTN-CG
REM
REM
REM
REM
REM
REM ./C.cell (b20cbc046b6831c77cfcea5457e17084)
REM
REM compiler GCC version 9.2.1 20190827 (Red Hat 9.2.1-1)
REM options -cpp -mtune=generic -march=x86-64 -g -O0 -fpre-include=/usr/include/finclude/math-vector-fortran.h
REM seed -999997998 1300479896 -1740226469 -1606636642 -1016720123 -1694329173 -188751486 72200700 -11455334 1174432886 -1417880818 -874801941 1522112922 728164811 -1067255216 -777529340 1329925398 -241292963 1755281677 -322605283 -179509729 -1854587179 -653299293 -1795327762 -1845875129 1754593206 -450763146 549999679 930563580 -46518492 673872136 -1600507943 1101000569
REM
CELL 1.54180   50.00000   50.00000   50.00000   90.00000   90.00000   90.00000
LATT -1
SFAC C  
C      1  0.4889310000000  0.5291290000000  0.5835960000000 1.0
C      1  0.4909600000000  0.4581920000000  0.5703950000000 1.0
C      1  0.5301820000000  0.5043680000000  0.5736820000000 1.0
C      1  0.5444320000000  0.5647120000000  0.4951860000000 1.0
C      1  0.4171410000000  0.5069060000000  0.4993620000000 1.0
C      1  0.5322810000000  0.4292230000000  0.5085330000000 1.0
C      1  0.4250270000000  0.4354090000000  0.4856200000000 1.0
C      1  0.5956950000000  0.4654040000000  0.4935630000000 1.0
C      1  0.4780760000000  0.6099360000000  0.4856490000000 1.0
C      1  0.5688000000000  0.4464520000000  0.4849880000000 1.0
C      1  0.5059850000000  0.5911830000000  0.4806060000000 1.0
C      1  0.4208590000000  0.4686150000000  0.4886710000000 1.0
C      1  0.5306890000000  0.5153000000000  0.4903390000000 1.0
C      1  0.4824990000000  0.5203700000000  0.4962810000000 1.0
C      1  0.4925510000000  0.4695450000000  0.4857730000000 1.0
C      1  0.4976070000000  0.3933350000000  0.5319840000000 1.0
C      1  0.5775450000000  0.5503640000000  0.5178660000000 1.0
C      1  0.4262620000000  0.5355090000000  0.5259250000000 1.0
C      1  0.4889760000000  0.5632850000000  0.4812100000000 1.0
C      1  0.4483210000000  0.4874260000000  0.4837840000000 1.0
C      1  0.5602180000000  0.4783080000000  0.4809960000000 1.0
C      1  0.5533450000000  0.5359670000000  0.4895400000000 1.0
C      1  0.4491550000000  0.5182990000000  0.4980210000000 1.0
C      1  0.4969450000000  0.4431890000000  0.4745090000000 1.0
C      1  0.5057830000000  0.5219340000000  0.5549390000000 1.0
C      1  0.4765110000000  0.4831320000000  0.5559800000000 1.0
C      1  0.5096460000000  0.4882630000000  0.5518660000000 1.0
C      1  0.5236490000000  0.4354570000000  0.4577130000000 1.0
C      1  0.5335160000000  0.5568980000000  0.4490570000000 1.0
C      1  0.4266610000000  0.5067550000000  0.4496020000000 1.0
C      1  0.5196340000000  0.5710170000000  0.5469590000000 1.0
C      1  0.4266100000000  0.4765880000000  0.5490200000000 1.0
C      1  0.5429830000000  0.4468230000000  0.5535260000000 1.0
C      1  0.5207910000000  0.5507390000000  0.5650450000000 1.0
C      1  0.4464120000000  0.4857140000000  0.5672200000000 1.0
C      1  0.5201080000000  0.4579130000000  0.5637870000000 1.0
C      1  0.4752890000000  0.5630680000000  0.5564480000000 1.0
C      1  0.4567030000000  0.4389070000000  0.5447110000000 1.0
C      1  0.5712290000000  0.4934050000000  0.5550180000000 1.0
C      1  0.4936960000000  0.5477340000000  0.5111660000000 1.0
C      1  0.4641350000000  0.4655130000000  0.5020500000000 1.0
C      1  0.5472970000000  0.4801130000000  0.5123940000000 1.0
C      1  0.4769820000000  0.5544590000000  0.5822800000000 1.0
C      1  0.4705320000000  0.4378040000000  0.5698700000000 1.0
C      1  0.5561260000000  0.5003490000000  0.5774680000000 1.0
C      1  0.5321610000000  0.5772020000000  0.4733410000000 1.0
C      1  0.4114980000000  0.4952390000000  0.4707850000000 1.0
C      1  0.5424400000000  0.4328000000000  0.4821640000000 1.0
C      1  0.5653220000000  0.4663630000000  0.5382330000000 1.0
C      1  0.4920490000000  0.5776480000000  0.5307650000000 1.0
C      1  0.4297850000000  0.4495120000000  0.5399040000000 1.0
C      1  0.5912560000000  0.5463630000000  0.4968130000000 1.0
C      1  0.4213330000000  0.5464260000000  0.5038860000000 1.0
C      1  0.4956640000000  0.4133540000000  0.5158580000000 1.0
C      1  0.5855730000000  0.4971350000000  0.4782490000000 1.0
C      1  0.4592140000000  0.5686630000000  0.4773710000000 1.0
C      1  0.4580920000000  0.4365300000000  0.4853060000000 1.0
C      1  0.4487140000000  0.4928880000000  0.4292270000000 1.0
C      1  0.5279990000000  0.4580800000000  0.4395680000000 1.0
C      1  0.5128990000000  0.5428090000000  0.4261730000000 1.0
C      1  0.5157760000000  0.4765100000000  0.5207930000000 1.0
C      1  0.5208730000000  0.5359990000000  0.5278970000000 1.0
C      1  0.4585110000000  0.4873170000000  0.5275590000000 1.0
C      1  0.4296760000000  0.5339400000000  0.4522300000000 1.0
C      1  0.4992160000000  0.4125420000000  0.4595140000000 1.0
C      1  0.5616690000000  0.5422570000000  0.4509450000000 1.0
C      1  0.4252730000000  0.4939150000000  0.5243210000000 1.0
C      1  0.5520150000000  0.4304970000000  0.5284850000000 1.0
C      1  0.5328110000000  0.5667720000000  0.5197090000000 1.0
C      1  0.5072150000000  0.4452730000000  0.5180530000000 1.0
C      1  0.5516900000000  0.5313280000000  0.5221900000000 1.0
C      1  0.4539560000000  0.5206500000000  0.5316030000000 1.0
C      1  0.6134910000000  0.4825200000000  0.4743440000000 1.0
C      1  0.4549390000000  0.5956720000000  0.4774610000000 1.0
C      1  0.4417630000000  0.4300460000000  0.4571340000000 1.0
C      1  0.4752340000000  0.4459860000000  0.5251350000000 1.0
C      1  0.5601710000000  0.5044010000000  0.5291760000000 1.0
C      1  0.4772600000000  0.5373440000000  0.5385970000000 1.0
C      1  0.4177690000000  0.4470340000000  0.5148760000000 1.0
C      1  0.5804380000000  0.4457420000000  0.5168100000000 1.0
C      1  0.4939950000000  0.5997640000000  0.5113620000000 1.0
C      1  0.5795980000000  0.5259440000000  0.4741790000000 1.0
C      1  0.4411580000000  0.5451850000000  0.4787620000000 1.0
C      1  0.4825900000000  0.4172880000000  0.4887970000000 1.0
C      1  0.5016450000000  0.5480360000000  0.4568130000000 1.0
C      1  0.4613650000000  0.4885390000000  0.4574120000000 1.0
C      1  0.5428040000000  0.4820630000000  0.4566320000000 1.0
C      1  0.4977380000000  0.5217090000000  0.4688250000000 1.0
C      1  0.4900810000000  0.4910560000000  0.4630010000000 1.0
C      1  0.5218070000000  0.5007410000000  0.4630880000000 1.0
C      1  0.5143730000000  0.4802470000000  0.4176610000000 1.0
C      1  0.5042430000000  0.5124590000000  0.4129870000000 1.0
C      1  0.4818390000000  0.4901360000000  0.4212820000000 1.0
C      1  0.5480990000000  0.4797510000000  0.4228930000000 1.0
C      1  0.5037100000000  0.5394560000000  0.3955300000000 1.0
C      1  0.4594910000000  0.4747580000000  0.4029430000000 1.0
C      1  0.5050590000000  0.4972580000000  0.4995410000000 1.0
END
