TITL C-2622954-8726-391 -4.54381109207193e-05 125000 -177.959366359152 0 0 38 (Ci) n - 1
REM
REM in /nfs/bkarasulu/CARBON/AIRSS/Generating-Clusters/AIREBO/with-SteepDescent/Higher-Symm/SD-CG/HFTN-CG
REM
REM
REM
REM
REM
REM ./C.cell (b20cbc046b6831c77cfcea5457e17084)
REM
REM compiler GCC version 9.2.1 20190827 (Red Hat 9.2.1-1)
REM options -cpp -mtune=generic -march=x86-64 -g -O0 -fpre-include=/usr/include/finclude/math-vector-fortran.h
REM seed 1406616742 1050187076 -1918532835 -675195920 -717220966 257031266 20206734 1026693644 1310955895 1295477573 339819298 1525691019 1615291331 -285948719 -98796482 1632784742 1476527291 612392525 -1638758739 -869720660 874997508 -1731125299 209407386 -1960356766 637133322 -1895775611 -480749714 -1717324105 -123473225 -1484313001 -654750702 -563302951 -1533420668
REM
CELL 1.54180   50.00000   50.00000   50.00000   90.00000   90.00000   90.00000
LATT -1
SFAC C  
C      1  0.4707350000000  0.4670020000000  0.4811820000000 1.0
C      1  0.4658750000000  0.5305840000000  0.5069260000000 1.0
C      1  0.4922850000000  0.4768120000000  0.5338870000000 1.0
C      1  0.5301150000000  0.5329980000000  0.5220080000000 1.0
C      1  0.5349750000000  0.4694160000000  0.4962630000000 1.0
C      1  0.5085650000000  0.5231880000000  0.4693020000000 1.0
C      1  0.4905250000000  0.5107330000000  0.5321770000000 1.0
C      1  0.5346620000000  0.5035270000000  0.5360390000000 1.0
C      1  0.5483990000000  0.4983870000000  0.4891720000000 1.0
C      1  0.5103250000000  0.4892670000000  0.4710120000000 1.0
C      1  0.4661870000000  0.4964730000000  0.4671500000000 1.0
C      1  0.4524500000000  0.5016130000000  0.5140180000000 1.0
C      1  0.5041810000000  0.4615960000000  0.4841310000000 1.0
C      1  0.4771440000000  0.5200300000000  0.4771440000000 1.0
C      1  0.4680960000000  0.4793620000000  0.5115500000000 1.0
C      1  0.4966680000000  0.5384040000000  0.5190580000000 1.0
C      1  0.5237050000000  0.4799700000000  0.5260450000000 1.0
C      1  0.5327540000000  0.5206380000000  0.4916390000000 1.0
C      1  0.4421100000000  0.4540410000000  0.4861540000000 1.0
C      1  0.4522970000000  0.5418240000000  0.5344620000000 1.0
C      1  0.4882940000000  0.4762200000000  0.5643330000000 1.0
C      1  0.5587390000000  0.5459590000000  0.5170350000000 1.0
C      1  0.5485520000000  0.4581760000000  0.4687280000000 1.0
C      1  0.5125550000000  0.5237800000000  0.4388560000000 1.0
C      1  0.5341860000000  0.4201460000000  0.4962790000000 1.0
C      1  0.5132150000000  0.5730690000000  0.4903560000000 1.0
C      1  0.4899840000000  0.4259810000000  0.4597560000000 1.0
C      1  0.4666640000000  0.5798540000000  0.5069100000000 1.0
C      1  0.4876340000000  0.4269310000000  0.5128330000000 1.0
C      1  0.5108660000000  0.5740190000000  0.5434340000000 1.0
C      1  0.5275930000000  0.5552460000000  0.5475580000000 1.0
C      1  0.5465570000000  0.4396970000000  0.5072260000000 1.0
C      1  0.5132110000000  0.5561820000000  0.4721630000000 1.0
C      1  0.4732560000000  0.4447540000000  0.4556310000000 1.0
C      1  0.4542930000000  0.5603030000000  0.4959630000000 1.0
C      1  0.4876390000000  0.4438180000000  0.5310270000000 1.0
C      1  0.4951580000000  0.5723410000000  0.5159780000000 1.0
C      1  0.5056920000000  0.4276590000000  0.4872110000000 1.0
END
