TITL C-2622964-2985-607 0.0035034702097857 125000 -608.303518196909 0 0 110 (C1) n - 1
REM
REM in /nfs/bkarasulu/CARBON/AIRSS/Generating-Clusters/AIREBO/with-SteepDescent/Higher-Symm/SD-CG/HFTN-CG
REM
REM
REM
REM
REM
REM ./C.cell (b20cbc046b6831c77cfcea5457e17084)
REM
REM compiler GCC version 9.2.1 20190827 (Red Hat 9.2.1-1)
REM options -cpp -mtune=generic -march=x86-64 -g -O0 -fpre-include=/usr/include/finclude/math-vector-fortran.h
REM seed 1205759942 1644203175 1162038205 659161996 1773684658 131032876 1205540535 -952006848 -1992492826 -698592494 1066263085 -1451825986 1741322534 -1589979217 -697464872 449723265 -1685029327 161016309 -859827568 -949164146 2110682044 1331725550 -2053285956 803080564 -1267995536 205369558 -1121590716 -262248309 -1059545521 2021411061 -1965442472 -174465155 1068210666
REM
CELL 1.54180   50.00000   50.00000   50.00000   90.00000   90.00000   90.00000
LATT -1
SFAC C  
C      1  0.5108440000000  0.4638820000000  0.4312020000000 1.0
C      1  0.4838920000000  0.5350750000000  0.4327890000000 1.0
C      1  0.5187410000000  0.4374150000000  0.5761030000000 1.0
C      1  0.4849330000000  0.5626140000000  0.5710680000000 1.0
C      1  0.4896840000000  0.4111480000000  0.4565230000000 1.0
C      1  0.4879770000000  0.5872550000000  0.4431030000000 1.0
C      1  0.4898630000000  0.4127130000000  0.5533370000000 1.0
C      1  0.5111580000000  0.5776170000000  0.5647570000000 1.0
C      1  0.4896830000000  0.4701440000000  0.5176230000000 1.0
C      1  0.5139550000000  0.5222230000000  0.5341010000000 1.0
C      1  0.5054920000000  0.4626370000000  0.4909570000000 1.0
C      1  0.4927660000000  0.5081900000000  0.4836790000000 1.0
C      1  0.4675500000000  0.5581910000000  0.5496420000000 1.0
C      1  0.5397390000000  0.4420450000000  0.5580610000000 1.0
C      1  0.4562950000000  0.5464070000000  0.4426850000000 1.0
C      1  0.5330910000000  0.4470530000000  0.4430370000000 1.0
C      1  0.5299420000000  0.5255570000000  0.4462370000000 1.0
C      1  0.4635010000000  0.4826730000000  0.4326290000000 1.0
C      1  0.5313120000000  0.5136530000000  0.5690140000000 1.0
C      1  0.4713010000000  0.4824200000000  0.5620330000000 1.0
C      1  0.5638980000000  0.5524670000000  0.4464060000000 1.0
C      1  0.4283560000000  0.4434570000000  0.4447630000000 1.0
C      1  0.5553180000000  0.5544030000000  0.5470370000000 1.0
C      1  0.4458150000000  0.4482840000000  0.5515310000000 1.0
C      1  0.4091410000000  0.5501130000000  0.4786070000000 1.0
C      1  0.5833210000000  0.4646480000000  0.4793460000000 1.0
C      1  0.4199200000000  0.5453450000000  0.5069200000000 1.0
C      1  0.5858110000000  0.4567610000000  0.5116010000000 1.0
C      1  0.5830720000000  0.5395060000000  0.5350000000000 1.0
C      1  0.4212380000000  0.4657470000000  0.5354050000000 1.0
C      1  0.5777250000000  0.5425430000000  0.4689900000000 1.0
C      1  0.4229370000000  0.4494450000000  0.4716780000000 1.0
C      1  0.5086650000000  0.5382710000000  0.5702850000000 1.0
C      1  0.4932460000000  0.4570010000000  0.5673550000000 1.0
C      1  0.5103370000000  0.5493190000000  0.4394000000000 1.0
C      1  0.4821550000000  0.4555100000000  0.4394420000000 1.0
C      1  0.4569840000000  0.5717800000000  0.4632280000000 1.0
C      1  0.5294360000000  0.4269850000000  0.4606090000000 1.0
C      1  0.4614950000000  0.5734900000000  0.5266140000000 1.0
C      1  0.5431350000000  0.4284010000000  0.5334080000000 1.0
C      1  0.5350130000000  0.4697560000000  0.4944570000000 1.0
C      1  0.4772330000000  0.5350440000000  0.4836970000000 1.0
C      1  0.5450530000000  0.4797560000000  0.5253820000000 1.0
C      1  0.4643350000000  0.5223660000000  0.5125330000000 1.0
C      1  0.4838110000000  0.4168380000000  0.5158770000000 1.0
C      1  0.5104720000000  0.5679590000000  0.5145780000000 1.0
C      1  0.4772520000000  0.4108780000000  0.4843900000000 1.0
C      1  0.5116140000000  0.5718990000000  0.4822310000000 1.0
C      1  0.5645220000000  0.4945620000000  0.4284230000000 1.0
C      1  0.4367780000000  0.5283180000000  0.4245700000000 1.0
C      1  0.5640300000000  0.4840240000000  0.5732750000000 1.0
C      1  0.4407470000000  0.5183050000000  0.5625050000000 1.0
C      1  0.5404740000000  0.5627360000000  0.4364610000000 1.0
C      1  0.4527080000000  0.4441610000000  0.4326150000000 1.0
C      1  0.5358260000000  0.5591460000000  0.5696560000000 1.0
C      1  0.4631350000000  0.4423620000000  0.5733150000000 1.0
C      1  0.5121740000000  0.4857180000000  0.5656330000000 1.0
C      1  0.4896110000000  0.5110550000000  0.5629850000000 1.0
C      1  0.5167290000000  0.4952620000000  0.4382270000000 1.0
C      1  0.4860540000000  0.5048450000000  0.4415360000000 1.0
C      1  0.5169940000000  0.4262510000000  0.5193880000000 1.0
C      1  0.4825480000000  0.5824610000000  0.5099600000000 1.0
C      1  0.5113940000000  0.4232420000000  0.4876920000000 1.0
C      1  0.4750170000000  0.5907300000000  0.4849600000000 1.0
C      1  0.5094700000000  0.5530760000000  0.5396770000000 1.0
C      1  0.4925020000000  0.4422710000000  0.5367140000000 1.0
C      1  0.4889260000000  0.5600830000000  0.4635310000000 1.0
C      1  0.4933210000000  0.4428600000000  0.4666000000000 1.0
C      1  0.4487140000000  0.4970720000000  0.5778870000000 1.0
C      1  0.5531360000000  0.5041700000000  0.5897040000000 1.0
C      1  0.4475130000000  0.5046030000000  0.4160600000000 1.0
C      1  0.5516280000000  0.5183730000000  0.4234420000000 1.0
C      1  0.5895890000000  0.5072970000000  0.5367100000000 1.0
C      1  0.4165070000000  0.4978800000000  0.5255910000000 1.0
C      1  0.5916100000000  0.4938030000000  0.4669490000000 1.0
C      1  0.4109690000000  0.5263060000000  0.4634670000000 1.0
C      1  0.5757070000000  0.4803800000000  0.5250490000000 1.0
C      1  0.4339640000000  0.5182570000000  0.5058200000000 1.0
C      1  0.5547020000000  0.4809480000000  0.4744580000000 1.0
C      1  0.4341170000000  0.5081660000000  0.4745440000000 1.0
C      1  0.4390560000000  0.4788810000000  0.5096170000000 1.0
C      1  0.5666500000000  0.5171990000000  0.5136450000000 1.0
C      1  0.4344360000000  0.4758610000000  0.4797560000000 1.0
C      1  0.5670980000000  0.5126150000000  0.4811530000000 1.0
C      1  0.5810090000000  0.4321250000000  0.4891810000000 1.0
C      1  0.4318740000000  0.5726230000000  0.4810590000000 1.0
C      1  0.5662840000000  0.4297570000000  0.5188480000000 1.0
C      1  0.4372580000000  0.5698190000000  0.5128410000000 1.0
C      1  0.5417260000000  0.4723170000000  0.5554310000000 1.0
C      1  0.4654020000000  0.5280480000000  0.5460450000000 1.0
C      1  0.5452320000000  0.4774480000000  0.4454780000000 1.0
C      1  0.4613200000000  0.5181110000000  0.4608560000000 1.0
C      1  0.5472300000000  0.5233690000000  0.5409940000000 1.0
C      1  0.4606260000000  0.4711300000000  0.5320000000000 1.0
C      1  0.5374880000000  0.5278640000000  0.4758910000000 1.0
C      1  0.4612220000000  0.4783690000000  0.4646840000000 1.0
C      1  0.5632510000000  0.5571620000000  0.5137470000000 1.0
C      1  0.4308290000000  0.4359350000000  0.5236200000000 1.0
C      1  0.5829600000000  0.5601800000000  0.4893520000000 1.0
C      1  0.4247010000000  0.4298750000000  0.4915710000000 1.0
C      1  0.4108280000000  0.5276400000000  0.4354910000000 1.0
C      1  0.5906750000000  0.4948780000000  0.4394240000000 1.0
C      1  0.4168840000000  0.5172430000000  0.5498560000000 1.0
C      1  0.5884190000000  0.4878920000000  0.5620480000000 1.0
C      1  0.5191500000000  0.5093900000000  0.4895690000000 1.0
C      1  0.4836630000000  0.4831830000000  0.4803240000000 1.0
C      1  0.5263920000000  0.5023100000000  0.5148510000000 1.0
C      1  0.4875630000000  0.5035570000000  0.5235610000000 1.0
C      1  0.4546630000000  0.4248470000000  0.5034750000000 1.0
C      1  0.5364850000000  0.5547670000000  0.4966640000000 1.0
END
