TITL C-2622968-4806-704 0.000565579424982348 125000 -912.287741578169 0 0 181 (C1) n - 1
REM
REM in /nfs/bkarasulu/CARBON/AIRSS/Generating-Clusters/AIREBO/with-SteepDescent/Higher-Symm/SD-CG/HFTN-CG
REM
REM
REM
REM
REM
REM ./C.cell (b20cbc046b6831c77cfcea5457e17084)
REM
REM compiler GCC version 9.2.1 20190827 (Red Hat 9.2.1-1)
REM options -cpp -mtune=generic -march=x86-64 -g -O0 -fpre-include=/usr/include/finclude/math-vector-fortran.h
REM seed -1522958462 2003642936 -2074067351 -1079507587 -546913301 -213438780 1045350842 793010490 -1781456245 -1180200022 -567726997 -1183342469 1258062372 57896065 -251448513 -819569694 -102172560 -348617673 -154631499 -1350712390 -709546371 1049929440 862777390 1909021028 -689068833 -1255847335 1512879196 374824379 433366 1754675692 17713567 -895449682 366847641
REM
CELL 1.54180   50.00000   50.00000   50.00000   90.00000   90.00000   90.00000
LATT -1
SFAC C  
C      1  0.5743810000000  0.4140320000000  0.5064540000000 1.0
C      1  0.5094010000000  0.5634670000000  0.4178840000000 1.0
C      1  0.4157590000000  0.5084420000000  0.5719380000000 1.0
C      1  0.4323900000000  0.5889840000000  0.5069500000000 1.0
C      1  0.4331140000000  0.4149460000000  0.4887310000000 1.0
C      1  0.5711660000000  0.5917510000000  0.4938460000000 1.0
C      1  0.4924320000000  0.4310620000000  0.4127230000000 1.0
C      1  0.4928750000000  0.5681300000000  0.5888770000000 1.0
C      1  0.5064400000000  0.4333840000000  0.5852560000000 1.0
C      1  0.5761150000000  0.4884300000000  0.5634070000000 1.0
C      1  0.5830740000000  0.5028880000000  0.4306910000000 1.0
C      1  0.4098750000000  0.4898680000000  0.4328600000000 1.0
C      1  0.4253650000000  0.5340010000000  0.5842890000000 1.0
C      1  0.5860780000000  0.4257810000000  0.5320310000000 1.0
C      1  0.5305900000000  0.5805630000000  0.4123000000000 1.0
C      1  0.5742930000000  0.4682320000000  0.5813530000000 1.0
C      1  0.5727880000000  0.5301600000000  0.4230850000000 1.0
C      1  0.4090040000000  0.4681670000000  0.4150320000000 1.0
C      1  0.4139230000000  0.5882870000000  0.5275610000000 1.0
C      1  0.4198070000000  0.4261600000000  0.4655840000000 1.0
C      1  0.5889480000000  0.5909810000000  0.4724890000000 1.0
C      1  0.4727360000000  0.4125050000000  0.4063930000000 1.0
C      1  0.4728350000000  0.5884050000000  0.5794900000000 1.0
C      1  0.5269710000000  0.4145090000000  0.5858830000000 1.0
C      1  0.5416230000000  0.4123550000000  0.5142520000000 1.0
C      1  0.5164210000000  0.5322620000000  0.4152930000000 1.0
C      1  0.4107540000000  0.5152780000000  0.5407810000000 1.0
C      1  0.4633260000000  0.5965370000000  0.5165800000000 1.0
C      1  0.4658030000000  0.4108580000000  0.4803140000000 1.0
C      1  0.5404090000000  0.5958280000000  0.4836420000000 1.0
C      1  0.4791550000000  0.4591280000000  0.4174340000000 1.0
C      1  0.4785900000000  0.5382500000000  0.5850240000000 1.0
C      1  0.5178720000000  0.4643140000000  0.5924110000000 1.0
C      1  0.5769350000000  0.4817040000000  0.5328580000000 1.0
C      1  0.5813350000000  0.5191330000000  0.4605470000000 1.0
C      1  0.4086240000000  0.4810120000000  0.4646270000000 1.0
C      1  0.4536950000000  0.4571750000000  0.4399750000000 1.0
C      1  0.4292470000000  0.4560500000000  0.4636010000000 1.0
C      1  0.4651290000000  0.4273370000000  0.4521980000000 1.0
C      1  0.5436880000000  0.5290550000000  0.4354450000000 1.0
C      1  0.5463390000000  0.4551870000000  0.5879450000000 1.0
C      1  0.4521740000000  0.5317310000000  0.5662110000000 1.0
C      1  0.5604920000000  0.5464620000000  0.4593890000000 1.0
C      1  0.5657950000000  0.4503610000000  0.5249200000000 1.0
C      1  0.4332300000000  0.5408530000000  0.5392140000000 1.0
C      1  0.5391390000000  0.5731320000000  0.4595700000000 1.0
C      1  0.5395110000000  0.4346830000000  0.5398570000000 1.0
C      1  0.4674140000000  0.5821290000000  0.5466510000000 1.0
C      1  0.3988180000000  0.4533170000000  0.5245090000000 1.0
C      1  0.5271100000000  0.4016150000000  0.4522850000000 1.0
C      1  0.4531830000000  0.5186510000000  0.4014350000000 1.0
C      1  0.5981950000000  0.5450050000000  0.5268670000000 1.0
C      1  0.5960500000000  0.4577820000000  0.4684970000000 1.0
C      1  0.4046670000000  0.5470820000000  0.4716310000000 1.0
C      1  0.4794910000000  0.5991400000000  0.4544990000000 1.0
C      1  0.4775100000000  0.4027740000000  0.5432740000000 1.0
C      1  0.5331240000000  0.6005600000000  0.5491360000000 1.0
C      1  0.5415150000000  0.4674050000000  0.3997200000000 1.0
C      1  0.5420680000000  0.5290280000000  0.5946000000000 1.0
C      1  0.4539970000000  0.4667700000000  0.5984910000000 1.0
C      1  0.5863930000000  0.4870120000000  0.4705710000000 1.0
C      1  0.4746240000000  0.5963450000000  0.4845050000000 1.0
C      1  0.4855560000000  0.4743220000000  0.5959600000000 1.0
C      1  0.4051010000000  0.5134350000000  0.4742910000000 1.0
C      1  0.4007290000000  0.4846430000000  0.5299000000000 1.0
C      1  0.5918160000000  0.5117630000000  0.5235020000000 1.0
C      1  0.5312290000000  0.4100090000000  0.4819540000000 1.0
C      1  0.5297290000000  0.6021240000000  0.5153210000000 1.0
C      1  0.4754130000000  0.4049690000000  0.5124010000000 1.0
C      1  0.5108420000000  0.5310540000000  0.5930830000000 1.0
C      1  0.5118010000000  0.4662890000000  0.4110280000000 1.0
C      1  0.4845410000000  0.5212280000000  0.4109850000000 1.0
C      1  0.5036030000000  0.4827500000000  0.6241660000000 1.0
C      1  0.6220490000000  0.5324450000000  0.4882180000000 1.0
C      1  0.4733770000000  0.6293890000000  0.5252000000000 1.0
C      1  0.4691660000000  0.5130320000000  0.6263690000000 1.0
C      1  0.4887610000000  0.4689280000000  0.3806470000000 1.0
C      1  0.5277360000000  0.5210640000000  0.3835870000000 1.0
C      1  0.3745950000000  0.4974590000000  0.4775370000000 1.0
C      1  0.3819430000000  0.5323230000000  0.5295530000000 1.0
C      1  0.6179780000000  0.4905410000000  0.5188580000000 1.0
C      1  0.5312780000000  0.3822770000000  0.5295370000000 1.0
C      1  0.5242060000000  0.6300240000000  0.4956990000000 1.0
C      1  0.4793060000000  0.3759830000000  0.4877980000000 1.0
C      1  0.5292490000000  0.4421700000000  0.4702010000000 1.0
C      1  0.4863010000000  0.5245940000000  0.4443350000000 1.0
C      1  0.4342930000000  0.4838230000000  0.5346510000000 1.0
C      1  0.4730690000000  0.5641690000000  0.4955350000000 1.0
C      1  0.4669150000000  0.4377960000000  0.5097230000000 1.0
C      1  0.5363850000000  0.5688870000000  0.5125620000000 1.0
C      1  0.5219380000000  0.4621600000000  0.4436710000000 1.0
C      1  0.5092540000000  0.5377960000000  0.5597780000000 1.0
C      1  0.4914670000000  0.4686790000000  0.5629030000000 1.0
C      1  0.5617830000000  0.5247200000000  0.5327890000000 1.0
C      1  0.5533670000000  0.4918840000000  0.4687210000000 1.0
C      1  0.4377520000000  0.5082170000000  0.4661580000000 1.0
C      1  0.5469400000000  0.4245200000000  0.4265030000000 1.0
C      1  0.4336110000000  0.5431080000000  0.4341090000000 1.0
C      1  0.4335850000000  0.4305050000000  0.5436250000000 1.0
C      1  0.4622000000000  0.5577890000000  0.4387010000000 1.0
C      1  0.4579890000000  0.4326150000000  0.5635780000000 1.0
C      1  0.5493140000000  0.5702380000000  0.5694870000000 1.0
C      1  0.5687270000000  0.4483340000000  0.4238520000000 1.0
C      1  0.5684250000000  0.5448810000000  0.5692460000000 1.0
C      1  0.4340310000000  0.4528220000000  0.5670420000000 1.0
C      1  0.5686060000000  0.5648690000000  0.5450050000000 1.0
C      1  0.5717550000000  0.4270910000000  0.4474570000000 1.0
C      1  0.4376900000000  0.5635300000000  0.4577160000000 1.0
C      1  0.4802940000000  0.4896230000000  0.4043860000000 1.0
C      1  0.3962200000000  0.4814260000000  0.4962940000000 1.0
C      1  0.4984220000000  0.4012160000000  0.4800760000000 1.0
C      1  0.5189960000000  0.4993190000000  0.4072170000000 1.0
C      1  0.5174440000000  0.4979470000000  0.5974730000000 1.0
C      1  0.4787620000000  0.5076090000000  0.5974270000000 1.0
C      1  0.5936720000000  0.5207150000000  0.4906170000000 1.0
C      1  0.5921130000000  0.4778350000000  0.5026790000000 1.0
C      1  0.4034300000000  0.5190370000000  0.5077840000000 1.0
C      1  0.5075960000000  0.6046560000000  0.4822570000000 1.0
C      1  0.5088390000000  0.4044690000000  0.5187150000000 1.0
C      1  0.4960010000000  0.6052370000000  0.5202920000000 1.0
C      1  0.5124220000000  0.5170800000000  0.4876090000000 1.0
C      1  0.4944240000000  0.5191410000000  0.5381040000000 1.0
C      1  0.5378080000000  0.4838630000000  0.5239380000000 1.0
C      1  0.4723630000000  0.4680830000000  0.4946500000000 1.0
C      1  0.4766520000000  0.5305550000000  0.4991950000000 1.0
C      1  0.5272490000000  0.4559430000000  0.5084160000000 1.0
C      1  0.5058640000000  0.4765750000000  0.5224970000000 1.0
C      1  0.5017990000000  0.5318640000000  0.4657170000000 1.0
C      1  0.4849930000000  0.4738550000000  0.4657210000000 1.0
C      1  0.4597690000000  0.5022550000000  0.5217180000000 1.0
C      1  0.4706440000000  0.5000730000000  0.4832620000000 1.0
C      1  0.5399450000000  0.5120240000000  0.4879650000000 1.0
C      1  0.4485820000000  0.4907210000000  0.4422530000000 1.0
C      1  0.4416040000000  0.4536300000000  0.4934370000000 1.0
C      1  0.4940260000000  0.4443520000000  0.4514230000000 1.0
C      1  0.5451740000000  0.4966610000000  0.4414810000000 1.0
C      1  0.5439820000000  0.5026020000000  0.5447370000000 1.0
C      1  0.4553080000000  0.5015840000000  0.5554290000000 1.0
C      1  0.5566930000000  0.5546440000000  0.4921900000000 1.0
C      1  0.5538530000000  0.4455590000000  0.4934310000000 1.0
C      1  0.4467660000000  0.5440940000000  0.5081460000000 1.0
C      1  0.5109830000000  0.5603280000000  0.4611770000000 1.0
C      1  0.5083230000000  0.4486850000000  0.5428700000000 1.0
C      1  0.4963600000000  0.5648480000000  0.5493790000000 1.0
C      1  0.4877540000000  0.5001320000000  0.5654970000000 1.0
C      1  0.5584900000000  0.4783990000000  0.4975790000000 1.0
C      1  0.5048920000000  0.5713540000000  0.4885480000000 1.0
C      1  0.5212600000000  0.5058910000000  0.5646200000000 1.0
C      1  0.5137450000000  0.4938890000000  0.4393900000000 1.0
C      1  0.4805580000000  0.4928330000000  0.4387720000000 1.0
C      1  0.4359140000000  0.5129710000000  0.4997760000000 1.0
C      1  0.4290500000000  0.4800670000000  0.5025720000000 1.0
C      1  0.5619850000000  0.5264860000000  0.5015120000000 1.0
C      1  0.4998200000000  0.4338020000000  0.4811410000000 1.0
C      1  0.5040900000000  0.5722480000000  0.5213550000000 1.0
C      1  0.4997380000000  0.4365900000000  0.5122740000000 1.0
C      1  0.4292450000000  0.5644070000000  0.4875000000000 1.0
C      1  0.4879550000000  0.4280360000000  0.5606220000000 1.0
C      1  0.5629590000000  0.4790050000000  0.4215210000000 1.0
C      1  0.5783270000000  0.4314980000000  0.4775380000000 1.0
C      1  0.5761980000000  0.5683990000000  0.5156830000000 1.0
C      1  0.4239080000000  0.4341540000000  0.5149760000000 1.0
C      1  0.5193940000000  0.5771010000000  0.5695780000000 1.0
C      1  0.5145410000000  0.4243360000000  0.4330980000000 1.0
C      1  0.4885630000000  0.5721770000000  0.4403600000000 1.0
C      1  0.4318920000000  0.5136590000000  0.4255190000000 1.0
C      1  0.4358700000000  0.4828740000000  0.5761330000000 1.0
C      1  0.5609910000000  0.5150500000000  0.5714200000000 1.0
C      1  0.4428290000000  0.5812620000000  0.5703530000000 1.0
C      1  0.5745010000000  0.4360130000000  0.5851290000000 1.0
C      1  0.5816800000000  0.5716200000000  0.4507330000000 1.0
C      1  0.5500550000000  0.4211990000000  0.5673150000000 1.0
C      1  0.5547790000000  0.5768800000000  0.4306090000000 1.0
C      1  0.4485290000000  0.4179870000000  0.4242860000000 1.0
C      1  0.4181480000000  0.5614570000000  0.5815890000000 1.0
C      1  0.4285510000000  0.4452330000000  0.4204420000000 1.0
C      1  0.5800160000000  0.5567610000000  0.4214660000000 1.0
C      1  0.4185800000000  0.4182330000000  0.4382100000000 1.0
C      1  0.4209670000000  0.5688220000000  0.5494430000000 1.0
C      1  0.5822030000000  0.4176970000000  0.5584710000000 1.0
C      1  0.4916690000000  0.5019980000000  0.5099360000000 1.0
END
