TITL C-2622966-9038-294 0.000212805273763842 125000 -299.966672010369 0 0 62 (C1) n - 1
REM
REM in /nfs/bkarasulu/CARBON/AIRSS/Generating-Clusters/AIREBO/with-SteepDescent/Higher-Symm/SD-CG/HFTN-CG
REM
REM
REM
REM
REM
REM ./C.cell (b20cbc046b6831c77cfcea5457e17084)
REM
REM compiler GCC version 9.2.1 20190827 (Red Hat 9.2.1-1)
REM options -cpp -mtune=generic -march=x86-64 -g -O0 -fpre-include=/usr/include/finclude/math-vector-fortran.h
REM seed 1065958781 -1770082135 472672290 -715005910 2127428038 -476036620 2021792149 -1249610421 -914077692 1033048480 -1780771226 71600054 1171393607 1818421922 1015933855 1558281106 925821787 2075227590 573986547 -820087921 -516787362 -113936674 -78758427 -791480906 551021228 -1724940398 -1426646133 -2050266533 -1861520256 886056243 -1087361900 1769936550 -519139508
REM
CELL 1.54180   50.00000   50.00000   50.00000   90.00000   90.00000   90.00000
LATT -1
SFAC C  
C      1  0.5340810000000  0.4595770000000  0.5395720000000 1.0
C      1  0.5407930000000  0.4570640000000  0.4828150000000 1.0
C      1  0.4907890000000  0.4604850000000  0.4523290000000 1.0
C      1  0.4523420000000  0.4658560000000  0.4996310000000 1.0
C      1  0.4820100000000  0.4573460000000  0.5493260000000 1.0
C      1  0.5283190000000  0.5037920000000  0.5058210000000 1.0
C      1  0.5071760000000  0.5029180000000  0.4646990000000 1.0
C      1  0.4665410000000  0.5069900000000  0.4846930000000 1.0
C      1  0.4816750000000  0.5167800000000  0.5203100000000 1.0
C      1  0.5191360000000  0.4966380000000  0.5357120000000 1.0
C      1  0.5338920000000  0.5525040000000  0.4618800000000 1.0
C      1  0.4691430000000  0.5533830000000  0.4470810000000 1.0
C      1  0.4411970000000  0.5545210000000  0.5132310000000 1.0
C      1  0.4934130000000  0.5456070000000  0.5526030000000 1.0
C      1  0.5535590000000  0.5497470000000  0.5284360000000 1.0
C      1  0.4978130000000  0.5502310000000  0.4336940000000 1.0
C      1  0.4407330000000  0.5501310000000  0.4809520000000 1.0
C      1  0.4645760000000  0.5444130000000  0.5554400000000 1.0
C      1  0.5371890000000  0.5455210000000  0.5558710000000 1.0
C      1  0.5531570000000  0.5499290000000  0.4869180000000 1.0
C      1  0.5038700000000  0.4701560000000  0.5313570000000 1.0
C      1  0.5388840000000  0.4730100000000  0.5104350000000 1.0
C      1  0.5265370000000  0.4760430000000  0.4609570000000 1.0
C      1  0.4742320000000  0.4749470000000  0.4752350000000 1.0
C      1  0.4629270000000  0.4883890000000  0.5199160000000 1.0
C      1  0.4606100000000  0.4755930000000  0.5475140000000 1.0
C      1  0.5432800000000  0.4727030000000  0.5666690000000 1.0
C      1  0.5658350000000  0.4787210000000  0.4814900000000 1.0
C      1  0.5093920000000  0.4767760000000  0.4345520000000 1.0
C      1  0.4407620000000  0.4764890000000  0.4693370000000 1.0
C      1  0.5240860000000  0.5608830000000  0.4908660000000 1.0
C      1  0.4948060000000  0.5612620000000  0.4638590000000 1.0
C      1  0.4611770000000  0.5698230000000  0.4948090000000 1.0
C      1  0.4958890000000  0.5482380000000  0.5198810000000 1.0
C      1  0.5236690000000  0.5597870000000  0.5307670000000 1.0
C      1  0.5202330000000  0.5272080000000  0.4448060000000 1.0
C      1  0.4539860000000  0.5267470000000  0.4602740000000 1.0
C      1  0.4506940000000  0.5280370000000  0.5290590000000 1.0
C      1  0.5150990000000  0.5203750000000  0.5597260000000 1.0
C      1  0.5560690000000  0.5233980000000  0.5070870000000 1.0
C      1  0.5423340000000  0.5002890000000  0.5677840000000 1.0
C      1  0.5620560000000  0.5055700000000  0.4787480000000 1.0
C      1  0.5046800000000  0.5032450000000  0.4249290000000 1.0
C      1  0.4298280000000  0.5035760000000  0.4699700000000 1.0
C      1  0.4513790000000  0.5050490000000  0.5541140000000 1.0
C      1  0.4817340000000  0.5141800000000  0.4451400000000 1.0
C      1  0.4376810000000  0.5122270000000  0.5019010000000 1.0
C      1  0.4846050000000  0.5070200000000  0.5527550000000 1.0
C      1  0.5495820000000  0.5115320000000  0.5384250000000 1.0
C      1  0.5499080000000  0.5145950000000  0.4556320000000 1.0
C      1  0.4834910000000  0.4288030000000  0.5327100000000 1.0
C      1  0.5175120000000  0.4330750000000  0.5370700000000 1.0
C      1  0.5204760000000  0.4338940000000  0.4819320000000 1.0
C      1  0.5030280000000  0.4360520000000  0.4605820000000 1.0
C      1  0.4569280000000  0.4360510000000  0.5122660000000 1.0
C      1  0.4938420000000  0.4699990000000  0.5025720000000 1.0
C      1  0.4925080000000  0.5716600000000  0.4954530000000 1.0
C      1  0.4836570000000  0.4415960000000  0.4952500000000 1.0
C      1  0.4982530000000  0.5024160000000  0.4943190000000 1.0
C      1  0.4974810000000  0.5997570000000  0.5028550000000 1.0
C      1  0.5053830000000  0.4190710000000  0.5085550000000 1.0
C      1  0.5076680000000  0.3908040000000  0.5063630000000 1.0
END
