TITL C-2622962-9663-253 0.00288322027219848 125000 -971.605143030824 0 0 184 (C1) n - 1
REM
REM in /nfs/bkarasulu/CARBON/AIRSS/Generating-Clusters/AIREBO/with-SteepDescent/Higher-Symm/SD-CG/HFTN-CG
REM
REM
REM
REM
REM
REM ./C.cell (b20cbc046b6831c77cfcea5457e17084)
REM
REM compiler GCC version 9.2.1 20190827 (Red Hat 9.2.1-1)
REM options -cpp -mtune=generic -march=x86-64 -g -O0 -fpre-include=/usr/include/finclude/math-vector-fortran.h
REM seed -450337298 -1204266613 956389428 624111960 -1845917284 -454860877 -1097747647 293311226 -424918036 -684181337 -1775296693 1081959110 -370235740 960841587 -1748465869 1426086568 2005886014 1686268113 -20851135 978210000 -1145080160 2081442224 6835975 226002942 528520260 1261868269 -1126157637 1477494284 -707639682 -165146902 -1889814200 -892874949 -1026975023
REM
CELL 1.54180   50.00000   50.00000   50.00000   90.00000   90.00000   90.00000
LATT -1
SFAC C  
C      1  0.5823350000000  0.4785340000000  0.5522210000000 1.0
C      1  0.5341340000000  0.5244090000000  0.5852570000000 1.0
C      1  0.4740830000000  0.4824510000000  0.5882160000000 1.0
C      1  0.4318860000000  0.5365530000000  0.5648950000000 1.0
C      1  0.3951620000000  0.4807480000000  0.5002170000000 1.0
C      1  0.4194970000000  0.5346900000000  0.4619110000000 1.0
C      1  0.4570980000000  0.4648300000000  0.4220330000000 1.0
C      1  0.5073050000000  0.5293660000000  0.4107890000000 1.0
C      1  0.5625160000000  0.4708000000000  0.4332440000000 1.0
C      1  0.5928840000000  0.5269340000000  0.4876750000000 1.0
C      1  0.5315470000000  0.4077000000000  0.5619300000000 1.0
C      1  0.4789280000000  0.6005300000000  0.5411260000000 1.0
C      1  0.4522930000000  0.3962000000000  0.5116440000000 1.0
C      1  0.4764360000000  0.5906790000000  0.4914260000000 1.0
C      1  0.4665730000000  0.4078450000000  0.4669830000000 1.0
C      1  0.4830120000000  0.5896640000000  0.4580600000000 1.0
C      1  0.5301260000000  0.4073670000000  0.4619030000000 1.0
C      1  0.5566520000000  0.5945390000000  0.4721450000000 1.0
C      1  0.5489240000000  0.4111810000000  0.4900490000000 1.0
C      1  0.5222130000000  0.5936440000000  0.5251270000000 1.0
C      1  0.5263440000000  0.4413410000000  0.4812760000000 1.0
C      1  0.5337110000000  0.5550920000000  0.4969000000000 1.0
C      1  0.5210080000000  0.4490430000000  0.5204100000000 1.0
C      1  0.5116770000000  0.5457500000000  0.5289220000000 1.0
C      1  0.4844120000000  0.4365100000000  0.5302300000000 1.0
C      1  0.4737130000000  0.5562570000000  0.5231480000000 1.0
C      1  0.4658400000000  0.4500150000000  0.4975050000000 1.0
C      1  0.4766750000000  0.5462500000000  0.4801770000000 1.0
C      1  0.4900450000000  0.4443590000000  0.4663280000000 1.0
C      1  0.5044800000000  0.5489370000000  0.4634830000000 1.0
C      1  0.4597660000000  0.4920830000000  0.5489710000000 1.0
C      1  0.4305120000000  0.5112030000000  0.5241660000000 1.0
C      1  0.4310420000000  0.4884620000000  0.4760200000000 1.0
C      1  0.4625500000000  0.5122670000000  0.4487440000000 1.0
C      1  0.4948180000000  0.4880050000000  0.4238340000000 1.0
C      1  0.5321890000000  0.5091320000000  0.4426810000000 1.0
C      1  0.5655710000000  0.4903210000000  0.4706010000000 1.0
C      1  0.5674380000000  0.5153860000000  0.5162960000000 1.0
C      1  0.5445050000000  0.4904980000000  0.5527830000000 1.0
C      1  0.4997590000000  0.5138970000000  0.5639610000000 1.0
C      1  0.4662430000000  0.5703110000000  0.4065960000000 1.0
C      1  0.5284180000000  0.4327360000000  0.4152230000000 1.0
C      1  0.5709800000000  0.5598530000000  0.4464570000000 1.0
C      1  0.5944750000000  0.4403780000000  0.4930620000000 1.0
C      1  0.5668120000000  0.5693540000000  0.5505330000000 1.0
C      1  0.5396390000000  0.4279510000000  0.5953180000000 1.0
C      1  0.4735190000000  0.5716850000000  0.5838960000000 1.0
C      1  0.4381700000000  0.4229630000000  0.5543320000000 1.0
C      1  0.4202890000000  0.5654810000000  0.5067300000000 1.0
C      1  0.4252700000000  0.4351760000000  0.4593430000000 1.0
C      1  0.5965810000000  0.5441990000000  0.5167920000000 1.0
C      1  0.5755770000000  0.4515650000000  0.5640340000000 1.0
C      1  0.5132150000000  0.5468720000000  0.5999120000000 1.0
C      1  0.4647810000000  0.4534690000000  0.5874370000000 1.0
C      1  0.4089390000000  0.5562460000000  0.5538280000000 1.0
C      1  0.3917950000000  0.4517330000000  0.4940740000000 1.0
C      1  0.4292640000000  0.5497200000000  0.4342570000000 1.0
C      1  0.4772880000000  0.4464210000000  0.4017850000000 1.0
C      1  0.5403200000000  0.5382340000000  0.4106680000000 1.0
C      1  0.5925510000000  0.4637520000000  0.4475550000000 1.0
C      1  0.5207800000000  0.5660570000000  0.4158980000000 1.0
C      1  0.5773540000000  0.4346040000000  0.4379300000000 1.0
C      1  0.5988040000000  0.5662660000000  0.4910150000000 1.0
C      1  0.5774430000000  0.4336190000000  0.5379370000000 1.0
C      1  0.5314950000000  0.5635210000000  0.5782460000000 1.0
C      1  0.4865780000000  0.4363000000000  0.5849750000000 1.0
C      1  0.4320420000000  0.5760010000000  0.5691130000000 1.0
C      1  0.4062110000000  0.4366130000000  0.5153890000000 1.0
C      1  0.4252610000000  0.5738850000000  0.4578430000000 1.0
C      1  0.4556030000000  0.4252460000000  0.4175570000000 1.0
C      1  0.4850100000000  0.5496690000000  0.6017710000000 1.0
C      1  0.4405320000000  0.4472250000000  0.5750350000000 1.0
C      1  0.3997080000000  0.5575550000000  0.5285350000000 1.0
C      1  0.3973480000000  0.4430270000000  0.4677720000000 1.0
C      1  0.4431740000000  0.5480440000000  0.4113230000000 1.0
C      1  0.5052370000000  0.4544920000000  0.4049890000000 1.0
C      1  0.5682550000000  0.5429360000000  0.4215950000000 1.0
C      1  0.6066580000000  0.4614170000000  0.4754810000000 1.0
C      1  0.5893700000000  0.5494960000000  0.5455780000000 1.0
C      1  0.5631180000000  0.4504030000000  0.5884830000000 1.0
C      1  0.4827330000000  0.5334350000000  0.4339370000000 1.0
C      1  0.5134880000000  0.4627110000000  0.4369340000000 1.0
C      1  0.5460630000000  0.5310440000000  0.4586290000000 1.0
C      1  0.5570840000000  0.4716860000000  0.4977490000000 1.0
C      1  0.5493100000000  0.5346130000000  0.5313680000000 1.0
C      1  0.5221080000000  0.4697430000000  0.5574150000000 1.0
C      1  0.4805490000000  0.5354210000000  0.5581320000000 1.0
C      1  0.4506380000000  0.4734510000000  0.5259020000000 1.0
C      1  0.4428770000000  0.5365470000000  0.5051600000000 1.0
C      1  0.4491790000000  0.4665990000000  0.4655280000000 1.0
C      1  0.4721770000000  0.4815040000000  0.4475750000000 1.0
C      1  0.5022730000000  0.5109710000000  0.4458630000000 1.0
C      1  0.5380960000000  0.4787320000000  0.4542640000000 1.0
C      1  0.5601660000000  0.5182230000000  0.4844720000000 1.0
C      1  0.5626640000000  0.4856700000000  0.5253890000000 1.0
C      1  0.5297410000000  0.5187230000000  0.5520100000000 1.0
C      1  0.4902790000000  0.4817810000000  0.5580670000000 1.0
C      1  0.4541540000000  0.5232350000000  0.5436550000000 1.0
C      1  0.4267140000000  0.4853810000000  0.5063500000000 1.0
C      1  0.4453660000000  0.5193000000000  0.4759490000000 1.0
C      1  0.5322790000000  0.4412310000000  0.5648930000000 1.0
C      1  0.4824800000000  0.5690420000000  0.5534510000000 1.0
C      1  0.4603080000000  0.4141710000000  0.5362110000000 1.0
C      1  0.4518510000000  0.5691050000000  0.5008800000000 1.0
C      1  0.4518230000000  0.4337370000000  0.4739090000000 1.0
C      1  0.4761040000000  0.5639910000000  0.4367520000000 1.0
C      1  0.5107760000000  0.4291460000000  0.4440740000000 1.0
C      1  0.5440490000000  0.5642220000000  0.4657990000000 1.0
C      1  0.5649260000000  0.4411800000000  0.4913340000000 1.0
C      1  0.5445080000000  0.5679800000000  0.5267920000000 1.0
C      1  0.5027360000000  0.4982460000000  0.5920930000000 1.0
C      1  0.4313870000000  0.5068220000000  0.5747670000000 1.0
C      1  0.3930860000000  0.4984860000000  0.5284940000000 1.0
C      1  0.3985680000000  0.5126640000000  0.4678780000000 1.0
C      1  0.4527870000000  0.4865790000000  0.3991810000000 1.0
C      1  0.5103430000000  0.5037930000000  0.3907360000000 1.0
C      1  0.5708030000000  0.4975970000000  0.4175940000000 1.0
C      1  0.6114610000000  0.5054540000000  0.4704150000000 1.0
C      1  0.6080460000000  0.4862940000000  0.5381120000000 1.0
C      1  0.5629930000000  0.5016470000000  0.6008140000000 1.0
C      1  0.4693600000000  0.5342260000000  0.3964240000000 1.0
C      1  0.5350500000000  0.4708650000000  0.4044190000000 1.0
C      1  0.5941230000000  0.5296370000000  0.4360470000000 1.0
C      1  0.6102750000000  0.4740890000000  0.5068680000000 1.0
C      1  0.5870920000000  0.5286960000000  0.5679010000000 1.0
C      1  0.5364200000000  0.4642120000000  0.6043870000000 1.0
C      1  0.4603460000000  0.5287210000000  0.6071790000000 1.0
C      1  0.4149370000000  0.4645090000000  0.5631050000000 1.0
C      1  0.3863250000000  0.5452200000000  0.5022750000000 1.0
C      1  0.4032710000000  0.4626150000000  0.4421210000000 1.0
C      1  0.5666150000000  0.5623930000000  0.5015650000000 1.0
C      1  0.5435350000000  0.4353820000000  0.5359940000000 1.0
C      1  0.5130000000000  0.5649760000000  0.5513640000000 1.0
C      1  0.4875910000000  0.4202820000000  0.5599480000000 1.0
C      1  0.4452680000000  0.5645860000000  0.5398390000000 1.0
C      1  0.4390900000000  0.4454700000000  0.5146960000000 1.0
C      1  0.4562780000000  0.5605000000000  0.4617060000000 1.0
C      1  0.4731360000000  0.4420450000000  0.4412950000000 1.0
C      1  0.5193670000000  0.5693540000000  0.4489860000000 1.0
C      1  0.5542070000000  0.4387420000000  0.4619460000000 1.0
C      1  0.4516990000000  0.5942060000000  0.5491160000000 1.0
C      1  0.4300990000000  0.4144490000000  0.5101320000000 1.0
C      1  0.4508260000000  0.5932170000000  0.4691990000000 1.0
C      1  0.4814470000000  0.4110610000000  0.4371040000000 1.0
C      1  0.5042620000000  0.5918290000000  0.4315910000000 1.0
C      1  0.5604600000000  0.4076170000000  0.4497540000000 1.0
C      1  0.5783600000000  0.5925420000000  0.4911450000000 1.0
C      1  0.5589500000000  0.4125210000000  0.5185330000000 1.0
C      1  0.5324430000000  0.5906660000000  0.5574170000000 1.0
C      1  0.5077900000000  0.3987010000000  0.5606300000000 1.0
C      1  0.4844990000000  0.4703070000000  0.5263530000000 1.0
C      1  0.4789150000000  0.5227730000000  0.5203580000000 1.0
C      1  0.4754460000000  0.4821510000000  0.4957720000000 1.0
C      1  0.4754540000000  0.5139100000000  0.4908720000000 1.0
C      1  0.4946390000000  0.4749790000000  0.4722590000000 1.0
C      1  0.5053980000000  0.5189030000000  0.4761610000000 1.0
C      1  0.5254090000000  0.4736730000000  0.4855450000000 1.0
C      1  0.5288090000000  0.5220360000000  0.4970530000000 1.0
C      1  0.5154610000000  0.4810180000000  0.5172310000000 1.0
C      1  0.5110220000000  0.5122820000000  0.5243390000000 1.0
C      1  0.5951100000000  0.5491400000000  0.4639370000000 1.0
C      1  0.6018460000000  0.4442630000000  0.5216810000000 1.0
C      1  0.5581820000000  0.5450470000000  0.5724290000000 1.0
C      1  0.5102870000000  0.4432040000000  0.5981890000000 1.0
C      1  0.4477650000000  0.5522310000000  0.5876620000000 1.0
C      1  0.4143720000000  0.4396900000000  0.5460400000000 1.0
C      1  0.4070020000000  0.5585610000000  0.4793570000000 1.0
C      1  0.4304900000000  0.4452320000000  0.4300400000000 1.0
C      1  0.4946250000000  0.5570180000000  0.3962530000000 1.0
C      1  0.5570770000000  0.4462130000000  0.4132230000000 1.0
C      1  0.5714630000000  0.5015300000000  0.5710670000000 1.0
C      1  0.5315820000000  0.4954200000000  0.6030000000000 1.0
C      1  0.4525400000000  0.5035150000000  0.5940300000000 1.0
C      1  0.4165390000000  0.4932890000000  0.5495870000000 1.0
C      1  0.3866560000000  0.5136390000000  0.4986530000000 1.0
C      1  0.4064370000000  0.4874350000000  0.4550020000000 1.0
C      1  0.4782010000000  0.5047930000000  0.3992750000000 1.0
C      1  0.5383250000000  0.5042730000000  0.4100560000000 1.0
C      1  0.5885140000000  0.4978060000000  0.4466270000000 1.0
C      1  0.6004390000000  0.5064090000000  0.5136910000000 1.0
C      1  0.4642030000000  0.3893100000000  0.4869440000000 1.0
C      1  0.4945140000000  0.6029330000000  0.5177220000000 1.0
C      1  0.5001250000000  0.5581080000000  0.5017650000000 1.0
C      1  0.4974340000000  0.4374730000000  0.4988090000000 1.0
END
