TITL C-2622956-4641-621 -1208.19439165863 125000 -625.754037102686 0 0 113 (C1) n - 1
REM
REM in /nfs/bkarasulu/CARBON/AIRSS/Generating-Clusters/AIREBO/with-SteepDescent/Higher-Symm/SD-CG/HFTN-CG
REM
REM
REM
REM
REM
REM ./C.cell (b20cbc046b6831c77cfcea5457e17084)
REM
REM compiler GCC version 9.2.1 20190827 (Red Hat 9.2.1-1)
REM options -cpp -mtune=generic -march=x86-64 -g -O0 -fpre-include=/usr/include/finclude/math-vector-fortran.h
REM seed -14570526 -1994442311 981962335 -1165459183 -1335610127 1370311532 628922779 -2099531722 -1584304251 -1372687091 -1568581166 -188480144 -1125462388 740065893 1447948937 -271738280 -1093966657 80001886 1015308485 -232026885 -1962600238 -2138797724 -2081328365 233309383 1000050717 1457412405 2065029439 -1339717501 148650972 -1307048561 1549485276 979014785 -524112304
REM
CELL 1.54180   50.00000   50.00000   50.00000   90.00000   90.00000   90.00000
LATT -1
SFAC C  
C      1  0.5022520000000  0.4151330000000  0.5178970000000 1.0
C      1  0.4945850000000  0.4398050000000  0.4399010000000 1.0
C      1  0.5126740000000  0.5127160000000  0.4213920000000 1.0
C      1  0.5014180000000  0.5810880000000  0.4519180000000 1.0
C      1  0.5092490000000  0.5815150000000  0.5533870000000 1.0
C      1  0.4937090000000  0.5210810000000  0.5907650000000 1.0
C      1  0.4840010000000  0.4417550000000  0.5764100000000 1.0
C      1  0.4555070000000  0.5079980000000  0.5687650000000 1.0
C      1  0.4593460000000  0.4237840000000  0.5332220000000 1.0
C      1  0.4705370000000  0.4276560000000  0.4795230000000 1.0
C      1  0.4743490000000  0.4772030000000  0.4378890000000 1.0
C      1  0.4710550000000  0.5338090000000  0.4270390000000 1.0
C      1  0.4690400000000  0.5610980000000  0.4825830000000 1.0
C      1  0.4622240000000  0.5643460000000  0.5658770000000 1.0
C      1  0.5731320000000  0.5616470000000  0.4965280000000 1.0
C      1  0.5722270000000  0.5397650000000  0.5479130000000 1.0
C      1  0.5768430000000  0.4849550000000  0.5613120000000 1.0
C      1  0.5834120000000  0.4448200000000  0.5236330000000 1.0
C      1  0.5768610000000  0.4431460000000  0.4682030000000 1.0
C      1  0.5789350000000  0.4851970000000  0.4386130000000 1.0
C      1  0.5807420000000  0.5425630000000  0.4493780000000 1.0
C      1  0.4875800000000  0.5159010000000  0.4096320000000 1.0
C      1  0.4863000000000  0.5850270000000  0.4786730000000 1.0
C      1  0.4770080000000  0.5835390000000  0.5512730000000 1.0
C      1  0.5055360000000  0.4954780000000  0.5860290000000 1.0
C      1  0.4852110000000  0.4330050000000  0.5509950000000 1.0
C      1  0.5020710000000  0.4207910000000  0.4903890000000 1.0
C      1  0.4994510000000  0.4629560000000  0.4198670000000 1.0
C      1  0.5463000000000  0.5252520000000  0.5839920000000 1.0
C      1  0.5460060000000  0.4511170000000  0.5699720000000 1.0
C      1  0.5491220000000  0.4178440000000  0.5031620000000 1.0
C      1  0.5444010000000  0.4389720000000  0.4329160000000 1.0
C      1  0.5520380000000  0.5127090000000  0.4127910000000 1.0
C      1  0.5485430000000  0.5780590000000  0.4521220000000 1.0
C      1  0.5398560000000  0.5743100000000  0.5259220000000 1.0
C      1  0.5264670000000  0.5530700000000  0.5488490000000 1.0
C      1  0.5331890000000  0.4982450000000  0.5738660000000 1.0
C      1  0.5388040000000  0.4442940000000  0.5411820000000 1.0
C      1  0.5310550000000  0.4362530000000  0.4815570000000 1.0
C      1  0.5336170000000  0.4660990000000  0.4226540000000 1.0
C      1  0.5357200000000  0.5331460000000  0.4345260000000 1.0
C      1  0.5250450000000  0.5755510000000  0.4765730000000 1.0
C      1  0.5824920000000  0.4701500000000  0.5132250000000 1.0
C      1  0.5739780000000  0.4706380000000  0.4841550000000 1.0
C      1  0.5813890000000  0.4923370000000  0.4648310000000 1.0
C      1  0.5731750000000  0.5209080000000  0.4716500000000 1.0
C      1  0.5756420000000  0.5343780000000  0.4983700000000 1.0
C      1  0.5650840000000  0.5229140000000  0.5232590000000 1.0
C      1  0.5713080000000  0.4919760000000  0.5305480000000 1.0
C      1  0.4138620000000  0.4511190000000  0.4804180000000 1.0
C      1  0.4275370000000  0.4846730000000  0.4414820000000 1.0
C      1  0.4255250000000  0.5361810000000  0.4538150000000 1.0
C      1  0.4189120000000  0.5519480000000  0.5051900000000 1.0
C      1  0.4407390000000  0.5502690000000  0.5516560000000 1.0
C      1  0.4277240000000  0.4995990000000  0.5864770000000 1.0
C      1  0.4218740000000  0.4582410000000  0.5398780000000 1.0
C      1  0.4471150000000  0.4879240000000  0.5264350000000 1.0
C      1  0.4384820000000  0.4608520000000  0.5103250000000 1.0
C      1  0.4386050000000  0.4718850000000  0.4796870000000 1.0
C      1  0.4366620000000  0.5012590000000  0.4691040000000 1.0
C      1  0.4194360000000  0.5268020000000  0.4835070000000 1.0
C      1  0.4432660000000  0.5203010000000  0.5039620000000 1.0
C      1  0.4363660000000  0.5184300000000  0.5352500000000 1.0
C      1  0.5235880000000  0.5416850000000  0.4777120000000 1.0
C      1  0.5286480000000  0.5266650000000  0.5275310000000 1.0
C      1  0.5392680000000  0.4978810000000  0.5403290000000 1.0
C      1  0.5330830000000  0.4714240000000  0.5225860000000 1.0
C      1  0.5417950000000  0.4672090000000  0.4920260000000 1.0
C      1  0.5332760000000  0.4926640000000  0.4753320000000 1.0
C      1  0.5426560000000  0.5201830000000  0.4652030000000 1.0
C      1  0.4190730000000  0.5142980000000  0.4357300000000 1.0
C      1  0.4493340000000  0.5505850000000  0.4563770000000 1.0
C      1  0.4411790000000  0.5557370000000  0.5218040000000 1.0
C      1  0.4258270000000  0.5243890000000  0.5658270000000 1.0
C      1  0.4498230000000  0.4513800000000  0.5488090000000 1.0
C      1  0.4196260000000  0.4299120000000  0.4934100000000 1.0
C      1  0.4388960000000  0.4593790000000  0.4417910000000 1.0
C      1  0.5060570000000  0.4889500000000  0.4649090000000 1.0
C      1  0.4792520000000  0.5037950000000  0.4733740000000 1.0
C      1  0.4977770000000  0.5272740000000  0.4853840000000 1.0
C      1  0.4964290000000  0.5243650000000  0.5167750000000 1.0
C      1  0.4886770000000  0.4939910000000  0.5300170000000 1.0
C      1  0.5011160000000  0.4692760000000  0.5151800000000 1.0
C      1  0.4903700000000  0.4670860000000  0.4839060000000 1.0
C      1  0.4501250000000  0.4295100000000  0.5036550000000 1.0
C      1  0.4648220000000  0.4572320000000  0.4637230000000 1.0
C      1  0.4617180000000  0.5077900000000  0.4470120000000 1.0
C      1  0.4818140000000  0.5407230000000  0.4585440000000 1.0
C      1  0.4685640000000  0.5423730000000  0.5080170000000 1.0
C      1  0.4814450000000  0.5175040000000  0.5529260000000 1.0
C      1  0.4672400000000  0.4803720000000  0.5527820000000 1.0
C      1  0.4974720000000  0.5911390000000  0.5257720000000 1.0
C      1  0.4783180000000  0.5483710000000  0.5817310000000 1.0
C      1  0.4748810000000  0.4535370000000  0.6038390000000 1.0
C      1  0.4814920000000  0.4000400000000  0.5291170000000 1.0
C      1  0.4749500000000  0.4222370000000  0.4473440000000 1.0
C      1  0.4747760000000  0.4914450000000  0.4071500000000 1.0
C      1  0.4827280000000  0.5657480000000  0.4276150000000 1.0
C      1  0.5099010000000  0.5505690000000  0.4413060000000 1.0
C      1  0.5055450000000  0.5904600000000  0.5001150000000 1.0
C      1  0.5037570000000  0.5378030000000  0.5640260000000 1.0
C      1  0.4869590000000  0.4739270000000  0.5792080000000 1.0
C      1  0.5086210000000  0.4417830000000  0.5328340000000 1.0
C      1  0.5079320000000  0.4492580000000  0.4631410000000 1.0
C      1  0.5128820000000  0.4874610000000  0.4360820000000 1.0
C      1  0.5594310000000  0.4299720000000  0.5252270000000 1.0
C      1  0.5530380000000  0.4339320000000  0.4579850000000 1.0
C      1  0.5575760000000  0.4870100000000  0.4203170000000 1.0
C      1  0.5583740000000  0.5556300000000  0.4396460000000 1.0
C      1  0.5489960000000  0.5751760000000  0.5007030000000 1.0
C      1  0.5517080000000  0.5444560000000  0.5654210000000 1.0
C      1  0.5546150000000  0.4763020000000  0.5746920000000 1.0
C      1  0.4636660000000  0.4969440000000  0.4981300000000 1.0
END
