TITL C-2622955-8511-735 0.00140401246092631 125000 -559.907247294348 0 0 96 (C1) n - 1
REM
REM in /nfs/bkarasulu/CARBON/AIRSS/Generating-Clusters/AIREBO/with-SteepDescent/Higher-Symm/SD-CG/HFTN-CG
REM
REM
REM
REM
REM
REM ./C.cell (b20cbc046b6831c77cfcea5457e17084)
REM
REM compiler GCC version 9.2.1 20190827 (Red Hat 9.2.1-1)
REM options -cpp -mtune=generic -march=x86-64 -g -O0 -fpre-include=/usr/include/finclude/math-vector-fortran.h
REM seed 1457305065 2005541147 -1044879706 -1923614735 -323188522 -1498516178 -1055929605 -791941283 1771612803 818323560 1348546098 -1556799982 -1203051959 2076562612 1254111457 941506143 -773225869 -117434652 -1397038825 -1189887154 1386428787 -1415381011 -1209540538 -1251452953 1574108873 1505164361 428361701 -1254430206 1482070294 323309871 251693016 -726187399 1814504364
REM
CELL 1.54180   50.00000   50.00000   50.00000   90.00000   90.00000   90.00000
LATT -1
SFAC C  
C      1  0.4768710000000  0.5537670000000  0.4370030000000 1.0
C      1  0.5746200000000  0.5609780000000  0.5161510000000 1.0
C      1  0.4476670000000  0.5601960000000  0.5597640000000 1.0
C      1  0.5209150000000  0.4339760000000  0.4277150000000 1.0
C      1  0.4263110000000  0.4406240000000  0.5121560000000 1.0
C      1  0.5470830000000  0.4422730000000  0.5515140000000 1.0
C      1  0.5224660000000  0.4470200000000  0.5672440000000 1.0
C      1  0.4307180000000  0.4499120000000  0.4862020000000 1.0
C      1  0.5470770000000  0.4379360000000  0.4412930000000 1.0
C      1  0.4748840000000  0.5564880000000  0.5717130000000 1.0
C      1  0.5705270000000  0.5569070000000  0.4868510000000 1.0
C      1  0.4487700000000  0.5602750000000  0.4455240000000 1.0
C      1  0.4515510000000  0.4710930000000  0.4406350000000 1.0
C      1  0.5626190000000  0.4735980000000  0.4807710000000 1.0
C      1  0.4806680000000  0.4798810000000  0.5670350000000 1.0
C      1  0.5455620000000  0.5256360000000  0.4473880000000 1.0
C      1  0.4306820000000  0.5298580000000  0.4749620000000 1.0
C      1  0.5151170000000  0.5280870000000  0.5785350000000 1.0
C      1  0.5491760000000  0.5255200000000  0.5447280000000 1.0
C      1  0.4373250000000  0.5278020000000  0.5247370000000 1.0
C      1  0.5191400000000  0.5251130000000  0.4260400000000 1.0
C      1  0.4408600000000  0.4729930000000  0.5642670000000 1.0
C      1  0.5612110000000  0.4788320000000  0.5143380000000 1.0
C      1  0.4832040000000  0.4712900000000  0.4282030000000 1.0
C      1  0.4475960000000  0.5657550000000  0.5317670000000 1.0
C      1  0.4999790000000  0.5665730000000  0.4460000000000 1.0
C      1  0.5516640000000  0.5689370000000  0.5306920000000 1.0
C      1  0.5480570000000  0.4321610000000  0.5256180000000 1.0
C      1  0.4970490000000  0.4259060000000  0.4406460000000 1.0
C      1  0.4489930000000  0.4383110000000  0.5284250000000 1.0
C      1  0.5503890000000  0.4277700000000  0.4671640000000 1.0
C      1  0.4987740000000  0.4365740000000  0.5563450000000 1.0
C      1  0.4472470000000  0.4328080000000  0.4703980000000 1.0
C      1  0.4455830000000  0.5683680000000  0.4729490000000 1.0
C      1  0.4995700000000  0.5652610000000  0.5584390000000 1.0
C      1  0.5494490000000  0.5695730000000  0.4727950000000 1.0
C      1  0.4479480000000  0.4385000000000  0.4430980000000 1.0
C      1  0.5707020000000  0.4410780000000  0.4814380000000 1.0
C      1  0.4757690000000  0.4516520000000  0.5654880000000 1.0
C      1  0.5482100000000  0.5590580000000  0.4467410000000 1.0
C      1  0.4223500000000  0.5559480000000  0.4878770000000 1.0
C      1  0.5231890000000  0.5543030000000  0.5708410000000 1.0
C      1  0.5461410000000  0.5523670000000  0.5541050000000 1.0
C      1  0.4247410000000  0.5538400000000  0.5162910000000 1.0
C      1  0.5226770000000  0.5555200000000  0.4334930000000 1.0
C      1  0.4484740000000  0.4460270000000  0.5552940000000 1.0
C      1  0.5658350000000  0.4470410000000  0.5101140000000 1.0
C      1  0.4748680000000  0.4404500000000  0.4303360000000 1.0
C      1  0.5006040000000  0.5626590000000  0.5303850000000 1.0
C      1  0.4743530000000  0.5573860000000  0.4871600000000 1.0
C      1  0.5247100000000  0.5685930000000  0.4869730000000 1.0
C      1  0.5000110000000  0.4308130000000  0.5281670000000 1.0
C      1  0.5236050000000  0.4336990000000  0.4826170000000 1.0
C      1  0.4754700000000  0.4400440000000  0.4829330000000 1.0
C      1  0.4980820000000  0.4253570000000  0.4692180000000 1.0
C      1  0.5232130000000  0.4281430000000  0.5129600000000 1.0
C      1  0.4768320000000  0.4441280000000  0.5142000000000 1.0
C      1  0.5003240000000  0.5682880000000  0.4743420000000 1.0
C      1  0.4742320000000  0.5547260000000  0.5176600000000 1.0
C      1  0.5265550000000  0.5555600000000  0.5147520000000 1.0
C      1  0.4654410000000  0.5007280000000  0.5790810000000 1.0
C      1  0.4386350000000  0.4979370000000  0.4284190000000 1.0
C      1  0.5810180000000  0.4989780000000  0.4865980000000 1.0
C      1  0.5316480000000  0.5067260000000  0.5847240000000 1.0
C      1  0.5624390000000  0.4996930000000  0.4360510000000 1.0
C      1  0.4237880000000  0.5044910000000  0.4848340000000 1.0
C      1  0.5340320000000  0.4974090000000  0.4215370000000 1.0
C      1  0.5498040000000  0.5039350000000  0.5616090000000 1.0
C      1  0.4353390000000  0.5035640000000  0.5120770000000 1.0
C      1  0.4705490000000  0.4993460000000  0.4203320000000 1.0
C      1  0.4344510000000  0.5008670000000  0.5730970000000 1.0
C      1  0.5872910000000  0.4985980000000  0.5189690000000 1.0
C      1  0.5399200000000  0.5238710000000  0.5120320000000 1.0
C      1  0.4660990000000  0.5306150000000  0.5404720000000 1.0
C      1  0.5097490000000  0.5101650000000  0.4551110000000 1.0
C      1  0.4819350000000  0.4744410000000  0.5211820000000 1.0
C      1  0.5331670000000  0.4938030000000  0.5264650000000 1.0
C      1  0.5045010000000  0.4774670000000  0.4539860000000 1.0
C      1  0.4731930000000  0.4699740000000  0.4668450000000 1.0
C      1  0.5325490000000  0.4634990000000  0.4684880000000 1.0
C      1  0.5038530000000  0.4879740000000  0.5434990000000 1.0
C      1  0.5333130000000  0.5187990000000  0.4784370000000 1.0
C      1  0.4607460000000  0.5317390000000  0.4706900000000 1.0
C      1  0.4925950000000  0.5177970000000  0.5553620000000 1.0
C      1  0.4821520000000  0.5221090000000  0.4392180000000 1.0
C      1  0.5737240000000  0.5274910000000  0.5134390000000 1.0
C      1  0.4413580000000  0.5287290000000  0.5637700000000 1.0
C      1  0.5229190000000  0.4665880000000  0.4275470000000 1.0
C      1  0.4605000000000  0.4882630000000  0.5110110000000 1.0
C      1  0.5465230000000  0.4741540000000  0.5508030000000 1.0
C      1  0.5203310000000  0.4791180000000  0.5719140000000 1.0
C      1  0.4443890000000  0.4774470000000  0.4833850000000 1.0
C      1  0.5533710000000  0.4697570000000  0.4423340000000 1.0
C      1  0.4762200000000  0.5286770000000  0.5831100000000 1.0
C      1  0.5657940000000  0.5257740000000  0.4816010000000 1.0
C      1  0.4483960000000  0.5262490000000  0.4394840000000 1.0
END
