TITL C-2622962-9663-466 0.000186436109586775 125000 -486.109450628049 0 0 87 (C1) n - 1
REM
REM in /nfs/bkarasulu/CARBON/AIRSS/Generating-Clusters/AIREBO/with-SteepDescent/Higher-Symm/SD-CG/HFTN-CG
REM
REM
REM
REM
REM
REM ./C.cell (b20cbc046b6831c77cfcea5457e17084)
REM
REM compiler GCC version 9.2.1 20190827 (Red Hat 9.2.1-1)
REM options -cpp -mtune=generic -march=x86-64 -g -O0 -fpre-include=/usr/include/finclude/math-vector-fortran.h
REM seed 1366111676 -1975218913 2068998822 2056033836 1545173550 -2081416828 1695193430 37168523 1033092243 -1950977509 1712937174 984436665 -423493893 1412033716 1853670780 71404691 525284363 -1173233705 -1100527138 1686377345 517354448 -1503949161 1004709092 -1557784329 -139083594 -609244871 -1020004199 344510020 -76426810 -1685735808 -1827298275 -372901036 -1054072611
REM
CELL 1.54180   50.00000   50.00000   50.00000   90.00000   90.00000   90.00000
LATT -1
SFAC C  
C      1  0.4944700000000  0.5812660000000  0.5283000000000 1.0
C      1  0.5016230000000  0.4252040000000  0.4825630000000 1.0
C      1  0.4911370000000  0.5877530000000  0.4624370000000 1.0
C      1  0.4966530000000  0.4205550000000  0.5329500000000 1.0
C      1  0.5483120000000  0.4890790000000  0.4408000000000 1.0
C      1  0.5442180000000  0.5067590000000  0.5656930000000 1.0
C      1  0.4586840000000  0.4957190000000  0.5561050000000 1.0
C      1  0.4688370000000  0.5122780000000  0.4433690000000 1.0
C      1  0.5325580000000  0.4430610000000  0.4176780000000 1.0
C      1  0.5289350000000  0.5562670000000  0.5678410000000 1.0
C      1  0.4676220000000  0.4490930000000  0.5742510000000 1.0
C      1  0.4769050000000  0.5670000000000  0.4394740000000 1.0
C      1  0.4457580000000  0.5623320000000  0.5638850000000 1.0
C      1  0.4413400000000  0.4557600000000  0.4539750000000 1.0
C      1  0.5600140000000  0.5310180000000  0.4520030000000 1.0
C      1  0.5596650000000  0.4440600000000  0.5439140000000 1.0
C      1  0.4403360000000  0.5186880000000  0.4579420000000 1.0
C      1  0.4307700000000  0.4836850000000  0.5420090000000 1.0
C      1  0.5692970000000  0.5136370000000  0.5467810000000 1.0
C      1  0.5755380000000  0.4749190000000  0.4524690000000 1.0
C      1  0.4503340000000  0.5611760000000  0.4839750000000 1.0
C      1  0.4465250000000  0.4358070000000  0.5198210000000 1.0
C      1  0.5455070000000  0.5584620000000  0.5089840000000 1.0
C      1  0.5651620000000  0.4391280000000  0.4669930000000 1.0
C      1  0.5035200000000  0.4714140000000  0.5261210000000 1.0
C      1  0.4992390000000  0.5378590000000  0.4811480000000 1.0
C      1  0.5090830000000  0.4610310000000  0.4670230000000 1.0
C      1  0.5020470000000  0.5289280000000  0.5238820000000 1.0
C      1  0.5369130000000  0.5265730000000  0.4379460000000 1.0
C      1  0.5379590000000  0.4469880000000  0.5588600000000 1.0
C      1  0.4585170000000  0.5501670000000  0.5444440000000 1.0
C      1  0.4642810000000  0.4497390000000  0.4426310000000 1.0
C      1  0.4906380000000  0.4835530000000  0.4784590000000 1.0
C      1  0.4750320000000  0.5130190000000  0.5343880000000 1.0
C      1  0.5299980000000  0.4920520000000  0.5315280000000 1.0
C      1  0.5174420000000  0.5129610000000  0.4821110000000 1.0
C      1  0.4152250000000  0.4912980000000  0.5211010000000 1.0
C      1  0.4231530000000  0.5128100000000  0.4779440000000 1.0
C      1  0.5791210000000  0.4767080000000  0.4793360000000 1.0
C      1  0.5718980000000  0.5035040000000  0.5212630000000 1.0
C      1  0.5075910000000  0.4444870000000  0.5449380000000 1.0
C      1  0.5125910000000  0.5620320000000  0.4683130000000 1.0
C      1  0.4929110000000  0.4354260000000  0.4541070000000 1.0
C      1  0.4884720000000  0.5549580000000  0.5406200000000 1.0
C      1  0.5428020000000  0.5076680000000  0.5041550000000 1.0
C      1  0.5485500000000  0.4760600000000  0.4930100000000 1.0
C      1  0.4599360000000  0.5117810000000  0.5049940000000 1.0
C      1  0.4632120000000  0.4789410000000  0.4967550000000 1.0
C      1  0.4207980000000  0.5187470000000  0.5086800000000 1.0
C      1  0.4161030000000  0.4846760000000  0.4895940000000 1.0
C      1  0.5752580000000  0.5542580000000  0.5016760000000 1.0
C      1  0.5838790000000  0.4798620000000  0.5106220000000 1.0
C      1  0.4915940000000  0.5311360000000  0.5817620000000 1.0
C      1  0.4858560000000  0.4665550000000  0.4303780000000 1.0
C      1  0.5235150000000  0.5452920000000  0.4225200000000 1.0
C      1  0.5199140000000  0.4648130000000  0.5766310000000 1.0
C      1  0.5445720000000  0.5358100000000  0.5514980000000 1.0
C      1  0.5519890000000  0.4568870000000  0.4358230000000 1.0
C      1  0.4611840000000  0.5442380000000  0.4495250000000 1.0
C      1  0.4565990000000  0.4641270000000  0.5499030000000 1.0
C      1  0.5274810000000  0.4226740000000  0.4896870000000 1.0
C      1  0.5082790000000  0.6072310000000  0.5166010000000 1.0
C      1  0.4742820000000  0.4008070000000  0.5221480000000 1.0
C      1  0.4639450000000  0.5847680000000  0.4812540000000 1.0
C      1  0.4901200000000  0.4919460000000  0.4465620000000 1.0
C      1  0.4898380000000  0.5055810000000  0.5645190000000 1.0
C      1  0.5171200000000  0.4916140000000  0.5629960000000 1.0
C      1  0.5205210000000  0.5022880000000  0.4526020000000 1.0
C      1  0.5071990000000  0.4461660000000  0.4250880000000 1.0
C      1  0.5019060000000  0.5524450000000  0.5680990000000 1.0
C      1  0.4944220000000  0.4486360000000  0.5749210000000 1.0
C      1  0.5070800000000  0.5625360000000  0.4363290000000 1.0
C      1  0.4311560000000  0.5566630000000  0.5027510000000 1.0
C      1  0.4314520000000  0.4386530000000  0.4998220000000 1.0
C      1  0.5404670000000  0.5586670000000  0.4785040000000 1.0
C      1  0.5528900000000  0.4338160000000  0.4929720000000 1.0
C      1  0.5388010000000  0.4606150000000  0.4669430000000 1.0
C      1  0.5328420000000  0.5344230000000  0.5226460000000 1.0
C      1  0.4731220000000  0.4569640000000  0.5210560000000 1.0
C      1  0.4689100000000  0.5342990000000  0.4811130000000 1.0
C      1  0.4369150000000  0.4640360000000  0.4831130000000 1.0
C      1  0.4440030000000  0.5356510000000  0.5232650000000 1.0
C      1  0.5641960000000  0.4531220000000  0.5151890000000 1.0
C      1  0.5583570000000  0.5302820000000  0.4840550000000 1.0
C      1  0.4929250000000  0.5851150000000  0.4957740000000 1.0
C      1  0.4828010000000  0.4288320000000  0.5045640000000 1.0
C      1  0.5001980000000  0.4993940000000  0.5069690000000 1.0
END
