TITL C-2622956-4641-22 2.35624519802375e-07 125000 -78.7125081013908 0 0 15 (C5v) n - 1
REM
REM in /nfs/bkarasulu/CARBON/AIRSS/Generating-Clusters/AIREBO/with-SteepDescent/Higher-Symm/SD-CG/HFTN-CG
REM
REM
REM
REM
REM
REM ./C.cell (b20cbc046b6831c77cfcea5457e17084)
REM
REM compiler GCC version 9.2.1 20190827 (Red Hat 9.2.1-1)
REM options -cpp -mtune=generic -march=x86-64 -g -O0 -fpre-include=/usr/include/finclude/math-vector-fortran.h
REM seed 245043117 -87729671 -391365766 -1140262538 568054563 -1193519392 1171567271 -1721712085 -508867869 -105696806 -501461900 -554114655 -153830071 411324957 -366609693 -1351992059 214057696 -745415799 983032413 680527179 -1104491334 2145167721 860396256 -1583285486 -1540430957 2034884879 -645661944 -1217012803 -1765612897 1168768464 -156270980 -1500003141 -1641564243
REM
CELL 1.54180   50.00000   50.00000   50.00000   90.00000   90.00000   90.00000
LATT -1
SFAC C  
C      1  0.5227590000000  0.4303750000000  0.5079800000000 1.0
C      1  0.5227460000000  0.5697730000000  0.5066010000000 1.0
C      1  0.5733890000000  0.5000720000000  0.5065790000000 1.0
C      1  0.4408160000000  0.5431540000000  0.5080160000000 1.0
C      1  0.4408250000000  0.4570020000000  0.5088690000000 1.0
C      1  0.5485230000000  0.5000210000000  0.5016860000000 1.0
C      1  0.5150130000000  0.5461410000000  0.5017010000000 1.0
C      1  0.5150220000000  0.4539040000000  0.5026130000000 1.0
C      1  0.4608020000000  0.5285280000000  0.5026370000000 1.0
C      1  0.4608070000000  0.4715220000000  0.5032010000000 1.0
C      1  0.5223030000000  0.5162080000000  0.4895470000000 1.0
C      1  0.4912840000000  0.5262890000000  0.4898830000000 1.0
C      1  0.5223060000000  0.4835920000000  0.4898690000000 1.0
C      1  0.4721160000000  0.4999020000000  0.4904140000000 1.0
C      1  0.4912890000000  0.4735150000000  0.4904050000000 1.0
END
