TITL C-2622954-8726-695 0.000187808680585067 125000 -176.721183066287 0 0 33 (C2) n - 1
REM
REM in /nfs/bkarasulu/CARBON/AIRSS/Generating-Clusters/AIREBO/with-SteepDescent/Higher-Symm/SD-CG/HFTN-CG
REM
REM
REM
REM
REM
REM ./C.cell (b20cbc046b6831c77cfcea5457e17084)
REM
REM compiler GCC version 9.2.1 20190827 (Red Hat 9.2.1-1)
REM options -cpp -mtune=generic -march=x86-64 -g -O0 -fpre-include=/usr/include/finclude/math-vector-fortran.h
REM seed -1317839592 853823372 -1170749780 -152877344 187547318 232440578 -1037027677 392468515 1629734306 -623162928 182879017 -1264398533 1169600629 959749584 1500893038 235437499 -1057631426 -370502667 1969638482 2080406346 1760768965 1824136419 -2031929475 514181568 660394763 2119964546 1550039332 23188461 90881687 -2068160528 -756987675 -1985526073 -1912977105
REM
CELL 1.54180   50.00000   50.00000   50.00000   90.00000   90.00000   90.00000
LATT -1
SFAC C  
C      1  0.4851200000000  0.4637460000000  0.4595200000000 1.0
C      1  0.5142610000000  0.4637560000000  0.5409400000000 1.0
C      1  0.4531300000000  0.4579380000000  0.4501790000000 1.0
C      1  0.5462520000000  0.4579550000000  0.5502820000000 1.0
C      1  0.5412480000000  0.5107030000000  0.5342040000000 1.0
C      1  0.4581260000000  0.5106910000000  0.4662470000000 1.0
C      1  0.5313110000000  0.4823520000000  0.4529910000000 1.0
C      1  0.4680680000000  0.4823560000000  0.5474660000000 1.0
C      1  0.5343570000000  0.5501950000000  0.5055450000000 1.0
C      1  0.4650110000000  0.5501890000000  0.4948990000000 1.0
C      1  0.5027120000000  0.5381010000000  0.4338100000000 1.0
C      1  0.4966580000000  0.5381130000000  0.5666360000000 1.0
C      1  0.5134410000000  0.5734230000000  0.4952140000000 1.0
C      1  0.4859230000000  0.5734220000000  0.5052250000000 1.0
C      1  0.4937970000000  0.4492690000000  0.5231950000000 1.0
C      1  0.5055860000000  0.4492660000000  0.4772680000000 1.0
C      1  0.4692440000000  0.4625340000000  0.5236010000000 1.0
C      1  0.5301370000000  0.4625350000000  0.4768590000000 1.0
C      1  0.4519030000000  0.4756020000000  0.5019970000000 1.0
C      1  0.5474760000000  0.4756090000000  0.4984600000000 1.0
C      1  0.4968930000000  0.5395970000000  0.4599640000000 1.0
C      1  0.5024760000000  0.5396050000000  0.5404820000000 1.0
C      1  0.5537430000000  0.4941030000000  0.4726740000000 1.0
C      1  0.4456340000000  0.4941000000000  0.5277800000000 1.0
C      1  0.4703270000000  0.5353810000000  0.4707140000000 1.0
C      1  0.5290430000000  0.5353910000000  0.5297320000000 1.0
C      1  0.5052580000000  0.4806600000000  0.4410180000000 1.0
C      1  0.4941200000000  0.4806710000000  0.5594390000000 1.0
C      1  0.5394810000000  0.4812220000000  0.5262800000000 1.0
C      1  0.4598980000000  0.4812110000000  0.4741770000000 1.0
C      1  0.4846240000000  0.5446690000000  0.5198070000000 1.0
C      1  0.5147450000000  0.5446680000000  0.4806380000000 1.0
C      1  0.4996930000000  0.4348740000000  0.5002330000000 1.0
END
