TITL C-2622967-6265-575 0.00365890499135546 125000 -785.659013201327 0 0 151 (C1) n - 1
REM
REM in /nfs/bkarasulu/CARBON/AIRSS/Generating-Clusters/AIREBO/with-SteepDescent/Higher-Symm/SD-CG/HFTN-CG
REM
REM
REM
REM
REM
REM ./C.cell (b20cbc046b6831c77cfcea5457e17084)
REM
REM compiler GCC version 9.2.1 20190827 (Red Hat 9.2.1-1)
REM options -cpp -mtune=generic -march=x86-64 -g -O0 -fpre-include=/usr/include/finclude/math-vector-fortran.h
REM seed 1454081469 -105961337 1699558094 2081148482 -630048407 -1482159460 -1221771538 1740301876 -1789737165 -1135044028 664957829 -315093443 -1287309855 1241615120 -379732802 -724838920 1681001751 -1172776451 -476833069 1223937284 -2020609360 1771360560 -1465670223 1459561121 55343976 -763748055 -1555689312 -1148534569 1107697775 1622390567 1062816854 -414890981 1839292793
REM
CELL 1.54180   50.00000   50.00000   50.00000   90.00000   90.00000   90.00000
LATT -1
SFAC C  
C      1  0.5792530000000  0.5400640000000  0.5213900000000 1.0
C      1  0.5800410000000  0.4607190000000  0.5237500000000 1.0
C      1  0.5787360000000  0.4984160000000  0.4535530000000 1.0
C      1  0.4624530000000  0.5512070000000  0.4301220000000 1.0
C      1  0.4598840000000  0.5373960000000  0.5849810000000 1.0
C      1  0.4632370000000  0.4114130000000  0.4904030000000 1.0
C      1  0.5378240000000  0.4436220000000  0.5150420000000 1.0
C      1  0.5346060000000  0.5164600000000  0.4431620000000 1.0
C      1  0.5374780000000  0.5411780000000  0.5402210000000 1.0
C      1  0.5396720000000  0.5799890000000  0.5318070000000 1.0
C      1  0.5409900000000  0.4324670000000  0.5530510000000 1.0
C      1  0.5364730000000  0.4883670000000  0.4151410000000 1.0
C      1  0.4479740000000  0.4949660000000  0.5554950000000 1.0
C      1  0.4450620000000  0.4549730000000  0.4648980000000 1.0
C      1  0.4468840000000  0.5478390000000  0.4799450000000 1.0
C      1  0.4290850000000  0.5128700000000  0.5362670000000 1.0
C      1  0.4278490000000  0.4668150000000  0.4988740000000 1.0
C      1  0.4319610000000  0.5187330000000  0.4706380000000 1.0
C      1  0.4165050000000  0.4667410000000  0.4714440000000 1.0
C      1  0.4146340000000  0.5407200000000  0.4899440000000 1.0
C      1  0.4049760000000  0.4955970000000  0.5281840000000 1.0
C      1  0.4656500000000  0.5581550000000  0.5028800000000 1.0
C      1  0.4762980000000  0.4764690000000  0.5461170000000 1.0
C      1  0.4655310000000  0.4734770000000  0.4470110000000 1.0
C      1  0.4678160000000  0.4035840000000  0.4576440000000 1.0
C      1  0.4675710000000  0.5813960000000  0.4389810000000 1.0
C      1  0.4648700000000  0.5126830000000  0.6077970000000 1.0
C      1  0.5590420000000  0.4738060000000  0.5004310000000 1.0
C      1  0.5580310000000  0.5138700000000  0.4747690000000 1.0
C      1  0.5588930000000  0.5128580000000  0.5227720000000 1.0
C      1  0.4626580000000  0.4186770000000  0.5464960000000 1.0
C      1  0.4595520000000  0.4963970000000  0.4027670000000 1.0
C      1  0.4621620000000  0.5807900000000  0.5528230000000 1.0
C      1  0.4230460000000  0.5392970000000  0.5507960000000 1.0
C      1  0.4253250000000  0.4388640000000  0.5117330000000 1.0
C      1  0.4239680000000  0.5190900000000  0.4411490000000 1.0
C      1  0.4818030000000  0.5921960000000  0.5270200000000 1.0
C      1  0.4840130000000  0.4319790000000  0.5691760000000 1.0
C      1  0.4805110000000  0.4705800000000  0.4101500000000 1.0
C      1  0.5476290000000  0.5203330000000  0.4119880000000 1.0
C      1  0.5442690000000  0.5659940000000  0.5624570000000 1.0
C      1  0.5459860000000  0.4124790000000  0.5259960000000 1.0
C      1  0.5420580000000  0.5633600000000  0.4718500000000 1.0
C      1  0.5421340000000  0.4945340000000  0.5647990000000 1.0
C      1  0.5416740000000  0.4435990000000  0.4592160000000 1.0
C      1  0.4511020000000  0.5838510000000  0.5148840000000 1.0
C      1  0.4584710000000  0.4540380000000  0.5644400000000 1.0
C      1  0.4485950000000  0.4639550000000  0.4218140000000 1.0
C      1  0.6041180000000  0.5152170000000  0.4954470000000 1.0
C      1  0.5878880000000  0.5002270000000  0.5192200000000 1.0
C      1  0.5892970000000  0.4849280000000  0.4895030000000 1.0
C      1  0.5138280000000  0.4560350000000  0.5356880000000 1.0
C      1  0.5112470000000  0.4925900000000  0.4486840000000 1.0
C      1  0.5151340000000  0.5521280000000  0.5170410000000 1.0
C      1  0.5679740000000  0.4152950000000  0.4694460000000 1.0
C      1  0.5707670000000  0.5676890000000  0.4415190000000 1.0
C      1  0.5672200000000  0.5157260000000  0.5875450000000 1.0
C      1  0.5139210000000  0.4195180000000  0.5587780000000 1.0
C      1  0.5101090000000  0.4855720000000  0.4027130000000 1.0
C      1  0.5124990000000  0.5910360000000  0.5416450000000 1.0
C      1  0.5944610000000  0.5449270000000  0.4940490000000 1.0
C      1  0.5927800000000  0.4820510000000  0.5429030000000 1.0
C      1  0.5936770000000  0.4702800000000  0.4619810000000 1.0
C      1  0.5294750000000  0.4719150000000  0.5827250000000 1.0
C      1  0.5240020000000  0.4422810000000  0.4332150000000 1.0
C      1  0.5286440000000  0.5899250000000  0.4863570000000 1.0
C      1  0.4967820000000  0.4162340000000  0.4540980000000 1.0
C      1  0.4973740000000  0.5805720000000  0.4486940000000 1.0
C      1  0.4941400000000  0.5047860000000  0.6000660000000 1.0
C      1  0.5157510000000  0.5259350000000  0.5858550000000 1.0
C      1  0.5150610000000  0.4094130000000  0.4798960000000 1.0
C      1  0.5193090000000  0.5673980000000  0.4279670000000 1.0
C      1  0.5514010000000  0.5632860000000  0.5046020000000 1.0
C      1  0.5500020000000  0.4650970000000  0.5496540000000 1.0
C      1  0.5461190000000  0.4736220000000  0.4443120000000 1.0
C      1  0.4332260000000  0.4942180000000  0.4196380000000 1.0
C      1  0.4350400000000  0.5698580000000  0.5413890000000 1.0
C      1  0.4383210000000  0.4369400000000  0.5430420000000 1.0
C      1  0.4432320000000  0.4684910000000  0.5849110000000 1.0
C      1  0.4356810000000  0.4389620000000  0.4295240000000 1.0
C      1  0.4382050000000  0.5862030000000  0.4871950000000 1.0
C      1  0.5745440000000  0.4424010000000  0.4580020000000 1.0
C      1  0.5760360000000  0.5634710000000  0.4732240000000 1.0
C      1  0.5752690000000  0.4911160000000  0.5677530000000 1.0
C      1  0.5404600000000  0.4865140000000  0.4752900000000 1.0
C      1  0.5431790000000  0.5308640000000  0.4983880000000 1.0
C      1  0.5383300000000  0.4859010000000  0.5253750000000 1.0
C      1  0.4669940000000  0.5354110000000  0.4569530000000 1.0
C      1  0.4657780000000  0.5232650000000  0.5555090000000 1.0
C      1  0.4673790000000  0.4440320000000  0.4875920000000 1.0
C      1  0.3984000000000  0.4755320000000  0.4528940000000 1.0
C      1  0.3989950000000  0.5532280000000  0.5067270000000 1.0
C      1  0.3956910000000  0.4720220000000  0.5381150000000 1.0
C      1  0.5036560000000  0.6019640000000  0.4723290000000 1.0
C      1  0.5017660000000  0.4754470000000  0.5961390000000 1.0
C      1  0.5138660000000  0.4157340000000  0.4271470000000 1.0
C      1  0.5703970000000  0.5675340000000  0.5393610000000 1.0
C      1  0.5716050000000  0.4320630000000  0.5382650000000 1.0
C      1  0.5694280000000  0.4961390000000  0.4213440000000 1.0
C      1  0.4576380000000  0.5082590000000  0.5194850000000 1.0
C      1  0.4560550000000  0.4801420000000  0.5004290000000 1.0
C      1  0.4584750000000  0.5027470000000  0.4773470000000 1.0
C      1  0.4884180000000  0.5095630000000  0.4070470000000 1.0
C      1  0.4942060000000  0.5693870000000  0.5571890000000 1.0
C      1  0.4943030000000  0.4163320000000  0.5340060000000 1.0
C      1  0.4303350000000  0.5480210000000  0.4339820000000 1.0
C      1  0.4270700000000  0.5323060000000  0.5808250000000 1.0
C      1  0.4301930000000  0.4169470000000  0.4906430000000 1.0
C      1  0.4831430000000  0.4462150000000  0.4572110000000 1.0
C      1  0.4826750000000  0.5754280000000  0.4789340000000 1.0
C      1  0.4847860000000  0.4997000000000  0.5694560000000 1.0
C      1  0.4692020000000  0.3974490000000  0.5220050000000 1.0
C      1  0.4833400000000  0.5427400000000  0.4081940000000 1.0
C      1  0.4714600000000  0.5692350000000  0.5820040000000 1.0
C      1  0.4415080000000  0.4226850000000  0.4588370000000 1.0
C      1  0.4406560000000  0.5716780000000  0.4565510000000 1.0
C      1  0.4415000000000  0.5019870000000  0.5873900000000 1.0
C      1  0.5029370000000  0.5789090000000  0.5049690000000 1.0
C      1  0.5039410000000  0.4570430000000  0.5675020000000 1.0
C      1  0.5020300000000  0.4636720000000  0.4349640000000 1.0
C      1  0.4077930000000  0.4482830000000  0.5386700000000 1.0
C      1  0.4038830000000  0.4939290000000  0.4341990000000 1.0
C      1  0.4052420000000  0.5601950000000  0.5317750000000 1.0
C      1  0.4844190000000  0.5247520000000  0.4841490000000 1.0
C      1  0.4905510000000  0.5051400000000  0.5112410000000 1.0
C      1  0.4891850000000  0.4792180000000  0.4928230000000 1.0
C      1  0.5767470000000  0.4648430000000  0.4324360000000 1.0
C      1  0.5787820000000  0.5803590000000  0.5026060000000 1.0
C      1  0.5757340000000  0.4571270000000  0.5685300000000 1.0
C      1  0.4980110000000  0.5276730000000  0.4342000000000 1.0
C      1  0.4980490000000  0.5424160000000  0.5429940000000 1.0
C      1  0.4986740000000  0.4382120000000  0.5114270000000 1.0
C      1  0.5663260000000  0.5284050000000  0.4459650000000 1.0
C      1  0.5684160000000  0.5360620000000  0.5533710000000 1.0
C      1  0.5688640000000  0.4356740000000  0.5036470000000 1.0
C      1  0.4921740000000  0.5442900000000  0.5931290000000 1.0
C      1  0.4935960000000  0.3982780000000  0.4983250000000 1.0
C      1  0.5044840000000  0.5623020000000  0.4033110000000 1.0
C      1  0.4718150000000  0.5375170000000  0.5251930000000 1.0
C      1  0.4724750000000  0.4566800000000  0.5187650000000 1.0
C      1  0.4793860000000  0.5043730000000  0.4505680000000 1.0
C      1  0.5458190000000  0.5362720000000  0.5789100000000 1.0
C      1  0.5468340000000  0.4126330000000  0.4917620000000 1.0
C      1  0.5490540000000  0.5509430000000  0.4272440000000 1.0
C      1  0.5184700000000  0.5162800000000  0.5534520000000 1.0
C      1  0.5209500000000  0.4424210000000  0.4855480000000 1.0
C      1  0.5197320000000  0.5451640000000  0.4536940000000 1.0
C      1  0.5101570000000  0.4714760000000  0.4751350000000 1.0
C      1  0.5123670000000  0.5386260000000  0.4862410000000 1.0
C      1  0.5064330000000  0.4892090000000  0.5367430000000 1.0
C      1  0.5237260000000  0.5030150000000  0.4998780000000 1.0
END
