TITL C-2622967-6265-149 0.00434118481725096 125000 -573.797757528172 0 0 108 (C1) n - 1
REM
REM in /nfs/bkarasulu/CARBON/AIRSS/Generating-Clusters/AIREBO/with-SteepDescent/Higher-Symm/SD-CG/HFTN-CG
REM
REM
REM
REM
REM
REM ./C.cell (b20cbc046b6831c77cfcea5457e17084)
REM
REM compiler GCC version 9.2.1 20190827 (Red Hat 9.2.1-1)
REM options -cpp -mtune=generic -march=x86-64 -g -O0 -fpre-include=/usr/include/finclude/math-vector-fortran.h
REM seed -1904792676 558465769 -458211332 1727933288 371825476 -958358830 455304785 798637335 1544932896 497038793 524700705 564329217 1971607197 1462338201 167671104 483828184 -992518850 2001787822 -353230254 789565945 -717628163 -555679016 -1828443149 -2130853321 -856671539 459090088 1989397408 -996986773 1098469338 1909043271 -570986726 1543182963 79414808
REM
CELL 1.54180   50.00000   50.00000   50.00000   90.00000   90.00000   90.00000
LATT -1
SFAC C  
C      1  0.5039440000000  0.4462780000000  0.5411370000000 1.0
C      1  0.4961430000000  0.5236570000000  0.5629920000000 1.0
C      1  0.5004080000000  0.5676580000000  0.4962960000000 1.0
C      1  0.4964010000000  0.5164730000000  0.4339670000000 1.0
C      1  0.5019580000000  0.4416780000000  0.4643830000000 1.0
C      1  0.5299620000000  0.5201390000000  0.5694580000000 1.0
C      1  0.5297150000000  0.5784410000000  0.5109220000000 1.0
C      1  0.5275370000000  0.5234750000000  0.4236740000000 1.0
C      1  0.5269290000000  0.4330110000000  0.4430430000000 1.0
C      1  0.5341340000000  0.4300470000000  0.5421680000000 1.0
C      1  0.5653140000000  0.5454030000000  0.4890290000000 1.0
C      1  0.5651790000000  0.5013830000000  0.4500670000000 1.0
C      1  0.5610580000000  0.4540950000000  0.4822330000000 1.0
C      1  0.5706120000000  0.4673270000000  0.5316760000000 1.0
C      1  0.5766840000000  0.5288970000000  0.5428450000000 1.0
C      1  0.4516790000000  0.4471790000000  0.5263130000000 1.0
C      1  0.4300850000000  0.5083380000000  0.5596670000000 1.0
C      1  0.4389640000000  0.5506870000000  0.5143790000000 1.0
C      1  0.4563310000000  0.5347360000000  0.4365430000000 1.0
C      1  0.4231350000000  0.4661720000000  0.4630530000000 1.0
C      1  0.4358960000000  0.4819140000000  0.5744820000000 1.0
C      1  0.4317610000000  0.5647570000000  0.5425990000000 1.0
C      1  0.4395310000000  0.5582560000000  0.4456710000000 1.0
C      1  0.4323530000000  0.4673430000000  0.4302070000000 1.0
C      1  0.4312490000000  0.4311410000000  0.5057640000000 1.0
C      1  0.5104700000000  0.4231570000000  0.5188580000000 1.0
C      1  0.5081930000000  0.4947840000000  0.5723470000000 1.0
C      1  0.5065030000000  0.5637730000000  0.5290350000000 1.0
C      1  0.5097590000000  0.5443970000000  0.4439940000000 1.0
C      1  0.5089110000000  0.4596440000000  0.4363300000000 1.0
C      1  0.4911920000000  0.5680220000000  0.4360860000000 1.0
C      1  0.4855300000000  0.4544970000000  0.4152190000000 1.0
C      1  0.4836110000000  0.4072650000000  0.5125530000000 1.0
C      1  0.4878230000000  0.4815400000000  0.5915720000000 1.0
C      1  0.4847020000000  0.5769520000000  0.5475820000000 1.0
C      1  0.5918960000000  0.4961730000000  0.4630250000000 1.0
C      1  0.5846870000000  0.4720600000000  0.4839270000000 1.0
C      1  0.5954230000000  0.4810240000000  0.5224760000000 1.0
C      1  0.5987570000000  0.5144190000000  0.5279670000000 1.0
C      1  0.5933170000000  0.5359740000000  0.4888940000000 1.0
C      1  0.5185910000000  0.4886280000000  0.4514790000000 1.0
C      1  0.5268300000000  0.4350200000000  0.4951760000000 1.0
C      1  0.5224560000000  0.4807180000000  0.5482030000000 1.0
C      1  0.5203130000000  0.5343590000000  0.5333860000000 1.0
C      1  0.5221440000000  0.5414750000000  0.4755710000000 1.0
C      1  0.5551620000000  0.5278860000000  0.4388610000000 1.0
C      1  0.5540390000000  0.4485710000000  0.4518060000000 1.0
C      1  0.5624460000000  0.4377690000000  0.5285340000000 1.0
C      1  0.5529060000000  0.5102040000000  0.5520710000000 1.0
C      1  0.5586530000000  0.5634330000000  0.5125930000000 1.0
C      1  0.4247810000000  0.4647660000000  0.5178150000000 1.0
C      1  0.4198560000000  0.4963130000000  0.5295480000000 1.0
C      1  0.4159700000000  0.5253050000000  0.5120290000000 1.0
C      1  0.4175320000000  0.5212710000000  0.4782800000000 1.0
C      1  0.4093030000000  0.4971960000000  0.4611110000000 1.0
C      1  0.5658920000000  0.4300220000000  0.5019110000000 1.0
C      1  0.5610360000000  0.4821780000000  0.5582380000000 1.0
C      1  0.5710910000000  0.5546650000000  0.5353250000000 1.0
C      1  0.5513210000000  0.5486540000000  0.4596440000000 1.0
C      1  0.5473570000000  0.4755850000000  0.4385700000000 1.0
C      1  0.5381310000000  0.4229190000000  0.4722800000000 1.0
C      1  0.5416580000000  0.4568050000000  0.5571500000000 1.0
C      1  0.5254460000000  0.5506960000000  0.5615860000000 1.0
C      1  0.5366530000000  0.5718620000000  0.4803240000000 1.0
C      1  0.5397650000000  0.4947720000000  0.4150820000000 1.0
C      1  0.4592870000000  0.5147740000000  0.4194170000000 1.0
C      1  0.4522340000000  0.4534580000000  0.4616550000000 1.0
C      1  0.4567090000000  0.4439930000000  0.5547200000000 1.0
C      1  0.4435760000000  0.5312970000000  0.5629060000000 1.0
C      1  0.4488490000000  0.5721120000000  0.4943980000000 1.0
C      1  0.4618080000000  0.4189780000000  0.4992170000000 1.0
C      1  0.4615260000000  0.4741820000000  0.5804580000000 1.0
C      1  0.4572870000000  0.5677970000000  0.5544600000000 1.0
C      1  0.4680750000000  0.5701920000000  0.4504520000000 1.0
C      1  0.4583320000000  0.4653460000000  0.4217170000000 1.0
C      1  0.4982100000000  0.5338010000000  0.4986090000000 1.0
C      1  0.4949890000000  0.5077520000000  0.4668180000000 1.0
C      1  0.4998720000000  0.4710080000000  0.4814650000000 1.0
C      1  0.5038260000000  0.4734500000000  0.5206880000000 1.0
C      1  0.4969440000000  0.5110060000000  0.5314350000000 1.0
C      1  0.4742600000000  0.4405110000000  0.4794200000000 1.0
C      1  0.4830460000000  0.4629130000000  0.5566990000000 1.0
C      1  0.4732160000000  0.5389160000000  0.5506330000000 1.0
C      1  0.4745100000000  0.5633700000000  0.4801190000000 1.0
C      1  0.4780150000000  0.4907790000000  0.4294270000000 1.0
C      1  0.5319860000000  0.4685200000000  0.4924240000000 1.0
C      1  0.5427670000000  0.4818270000000  0.5219520000000 1.0
C      1  0.5422010000000  0.5150050000000  0.5201530000000 1.0
C      1  0.5441720000000  0.5199880000000  0.4901410000000 1.0
C      1  0.5429000000000  0.4945030000000  0.4733940000000 1.0
C      1  0.4478450000000  0.5181510000000  0.4794190000000 1.0
C      1  0.4664870000000  0.4925570000000  0.4774620000000 1.0
C      1  0.4614010000000  0.4774160000000  0.5020420000000 1.0
C      1  0.4524640000000  0.4933730000000  0.5259300000000 1.0
C      1  0.4580940000000  0.5167340000000  0.5078930000000 1.0
C      1  0.4772050000000  0.4729040000000  0.4561570000000 1.0
C      1  0.4787380000000  0.4532370000000  0.5104040000000 1.0
C      1  0.4747350000000  0.4918760000000  0.5452960000000 1.0
C      1  0.4716210000000  0.5419220000000  0.5183100000000 1.0
C      1  0.4720710000000  0.5331110000000  0.4647830000000 1.0
C      1  0.4129100000000  0.4527670000000  0.4883840000000 1.0
C      1  0.4136270000000  0.4727330000000  0.5533650000000 1.0
C      1  0.4066060000000  0.5475110000000  0.5363490000000 1.0
C      1  0.4173500000000  0.5500200000000  0.4619770000000 1.0
C      1  0.4110720000000  0.4888950000000  0.4328030000000 1.0
C      1  0.6175400000000  0.5340880000000  0.5083200000000 1.0
C      1  0.5005440000000  0.4998650000000  0.4994860000000 1.0
C      1  0.5960130000000  0.5027510000000  0.4961400000000 1.0
END
