TITL C-2622953-3516-451 -0.00145257364199797 125000 -667.563767975219 0 0 123 (C1) n - 1
REM
REM in /nfs/bkarasulu/CARBON/AIRSS/Generating-Clusters/AIREBO/with-SteepDescent/Higher-Symm/SD-CG/HFTN-CG
REM
REM
REM
REM
REM
REM ./C.cell (b20cbc046b6831c77cfcea5457e17084)
REM
REM compiler GCC version 9.2.1 20190827 (Red Hat 9.2.1-1)
REM options -cpp -mtune=generic -march=x86-64 -g -O0 -fpre-include=/usr/include/finclude/math-vector-fortran.h
REM seed -269911824 -1853082184 1035304228 -1556213649 1728630079 -1441498367 2037336108 420068424 2106332031 386258706 1941108479 1890559320 -1775763700 -1878652729 -1321227834 10205120 1455228161 -209644003 1466122831 -1876098400 -422161530 1813001651 -834016996 -2129767545 1387633041 1961937787 2000955683 1957806477 -300273124 451430617 -1241778194 726114411 156445550
REM
CELL 1.54180   50.00000   50.00000   50.00000   90.00000   90.00000   90.00000
LATT -1
SFAC C  
C      1  0.4624140000000  0.4284050000000  0.5466210000000 1.0
C      1  0.4503960000000  0.4295460000000  0.4819150000000 1.0
C      1  0.5032830000000  0.4260640000000  0.4418770000000 1.0
C      1  0.5521960000000  0.4218910000000  0.4847870000000 1.0
C      1  0.5290660000000  0.4267370000000  0.5474040000000 1.0
C      1  0.5365150000000  0.4737970000000  0.5472590000000 1.0
C      1  0.4711790000000  0.4751990000000  0.5689700000000 1.0
C      1  0.4534090000000  0.4740880000000  0.4896920000000 1.0
C      1  0.4939060000000  0.4751250000000  0.4310430000000 1.0
C      1  0.5538360000000  0.4684790000000  0.4723110000000 1.0
C      1  0.4775710000000  0.4286550000000  0.4631060000000 1.0
C      1  0.5285260000000  0.4207120000000  0.4625260000000 1.0
C      1  0.5411900000000  0.4259070000000  0.5155530000000 1.0
C      1  0.4964850000000  0.4269770000000  0.5474390000000 1.0
C      1  0.4578130000000  0.4294380000000  0.5135910000000 1.0
C      1  0.4262160000000  0.4979040000000  0.5617220000000 1.0
C      1  0.4228980000000  0.4938570000000  0.4518370000000 1.0
C      1  0.5175650000000  0.4938750000000  0.4049700000000 1.0
C      1  0.5976260000000  0.4851940000000  0.4958570000000 1.0
C      1  0.5370040000000  0.4935880000000  0.5822860000000 1.0
C      1  0.4343710000000  0.5120770000000  0.5840950000000 1.0
C      1  0.4055240000000  0.5100300000000  0.4646400000000 1.0
C      1  0.4963260000000  0.5076460000000  0.3941040000000 1.0
C      1  0.6003640000000  0.5023820000000  0.4746430000000 1.0
C      1  0.5618280000000  0.5046670000000  0.5834920000000 1.0
C      1  0.5832880000000  0.5450960000000  0.5130000000000 1.0
C      1  0.5241070000000  0.5449130000000  0.5898340000000 1.0
C      1  0.4230950000000  0.5386320000000  0.5451920000000 1.0
C      1  0.4355470000000  0.5466400000000  0.4344760000000 1.0
C      1  0.5392850000000  0.5401760000000  0.4209420000000 1.0
C      1  0.5379430000000  0.5020570000000  0.5191930000000 1.0
C      1  0.5042470000000  0.5068430000000  0.5231190000000 1.0
C      1  0.4789780000000  0.5029990000000  0.5024950000000 1.0
C      1  0.4958780000000  0.5068140000000  0.4733060000000 1.0
C      1  0.5484980000000  0.5134360000000  0.4889370000000 1.0
C      1  0.5306230000000  0.5490310000000  0.5200540000000 1.0
C      1  0.4894520000000  0.5418370000000  0.5492000000000 1.0
C      1  0.4581490000000  0.5430550000000  0.5067420000000 1.0
C      1  0.4811890000000  0.5491630000000  0.4584620000000 1.0
C      1  0.5263990000000  0.5456670000000  0.4583490000000 1.0
C      1  0.5067740000000  0.6206890000000  0.4885830000000 1.0
C      1  0.5113940000000  0.6136270000000  0.5169170000000 1.0
C      1  0.4838760000000  0.6012580000000  0.5244820000000 1.0
C      1  0.4689840000000  0.5965380000000  0.4999510000000 1.0
C      1  0.4871430000000  0.6016530000000  0.4783630000000 1.0
C      1  0.5172640000000  0.5302890000000  0.5384540000000 1.0
C      1  0.4654610000000  0.5261780000000  0.5354010000000 1.0
C      1  0.4616120000000  0.5279470000000  0.4764310000000 1.0
C      1  0.5025550000000  0.5245210000000  0.4487770000000 1.0
C      1  0.5358820000000  0.5416660000000  0.4876800000000 1.0
C      1  0.5258790000000  0.4540270000000  0.4593910000000 1.0
C      1  0.5326400000000  0.4574070000000  0.5193630000000 1.0
C      1  0.4871350000000  0.4594350000000  0.5453020000000 1.0
C      1  0.4706770000000  0.4602930000000  0.5155550000000 1.0
C      1  0.4923090000000  0.4592550000000  0.4610700000000 1.0
C      1  0.4979090000000  0.4038850000000  0.5254110000000 1.0
C      1  0.4759790000000  0.4050550000000  0.5075250000000 1.0
C      1  0.4857410000000  0.4042030000000  0.4811980000000 1.0
C      1  0.5138840000000  0.4012310000000  0.4823870000000 1.0
C      1  0.5212940000000  0.4027520000000  0.5095950000000 1.0
C      1  0.5057340000000  0.5731270000000  0.4379780000000 1.0
C      1  0.5578820000000  0.5742260000000  0.4818720000000 1.0
C      1  0.5348990000000  0.5745240000000  0.5505520000000 1.0
C      1  0.4604860000000  0.5689970000000  0.5516010000000 1.0
C      1  0.4370420000000  0.5732020000000  0.4734490000000 1.0
C      1  0.4984070000000  0.4659390000000  0.5850920000000 1.0
C      1  0.4131930000000  0.4573060000000  0.5257790000000 1.0
C      1  0.4451490000000  0.4553580000000  0.4325020000000 1.0
C      1  0.5566530000000  0.4602080000000  0.4138110000000 1.0
C      1  0.5797660000000  0.4433310000000  0.5256660000000 1.0
C      1  0.5786220000000  0.5237940000000  0.4640980000000 1.0
C      1  0.5672900000000  0.5266930000000  0.5604300000000 1.0
C      1  0.4653270000000  0.5261500000000  0.5844850000000 1.0
C      1  0.4178430000000  0.5243800000000  0.4902870000000 1.0
C      1  0.4837280000000  0.5306380000000  0.4129980000000 1.0
C      1  0.4521810000000  0.5260310000000  0.4248260000000 1.0
C      1  0.5561300000000  0.5188970000000  0.4388980000000 1.0
C      1  0.5834760000000  0.5238740000000  0.5308490000000 1.0
C      1  0.4955880000000  0.5298670000000  0.5872810000000 1.0
C      1  0.4117980000000  0.5227730000000  0.5218840000000 1.0
C      1  0.5504650000000  0.5517980000000  0.5697540000000 1.0
C      1  0.4463780000000  0.5467890000000  0.5686840000000 1.0
C      1  0.4218830000000  0.5464270000000  0.4656810000000 1.0
C      1  0.5077050000000  0.5496850000000  0.4183300000000 1.0
C      1  0.5779070000000  0.5483880000000  0.4813990000000 1.0
C      1  0.5563230000000  0.4987420000000  0.5444240000000 1.0
C      1  0.4656880000000  0.5037520000000  0.5609850000000 1.0
C      1  0.4457720000000  0.5063200000000  0.4973670000000 1.0
C      1  0.4830520000000  0.5023700000000  0.4318820000000 1.0
C      1  0.5577460000000  0.4969600000000  0.4648240000000 1.0
C      1  0.5727990000000  0.4412410000000  0.4746440000000 1.0
C      1  0.5402970000000  0.4468960000000  0.5644100000000 1.0
C      1  0.4515400000000  0.4508970000000  0.5622100000000 1.0
C      1  0.4329470000000  0.4531670000000  0.4764370000000 1.0
C      1  0.5040190000000  0.4465900000000  0.4230850000000 1.0
C      1  0.4231890000000  0.4649530000000  0.4517900000000 1.0
C      1  0.5243340000000  0.4624640000000  0.4033800000000 1.0
C      1  0.5934730000000  0.4534320000000  0.4958420000000 1.0
C      1  0.5289540000000  0.4660640000000  0.5857180000000 1.0
C      1  0.4237900000000  0.4649750000000  0.5571860000000 1.0
C      1  0.4550080000000  0.5051220000000  0.4514900000000 1.0
C      1  0.5265910000000  0.5050300000000  0.4346390000000 1.0
C      1  0.5766180000000  0.4928620000000  0.5186690000000 1.0
C      1  0.5141280000000  0.5135640000000  0.5669690000000 1.0
C      1  0.4392820000000  0.5049350000000  0.5309720000000 1.0
C      1  0.4620430000000  0.4722860000000  0.4568490000000 1.0
C      1  0.5336250000000  0.4724270000000  0.4345330000000 1.0
C      1  0.5627900000000  0.4646420000000  0.5053110000000 1.0
C      1  0.5081930000000  0.4833840000000  0.5565330000000 1.0
C      1  0.4425460000000  0.4723970000000  0.5298140000000 1.0
C      1  0.5178890000000  0.5805140000000  0.5217180000000 1.0
C      1  0.4880150000000  0.5726350000000  0.5359300000000 1.0
C      1  0.4517580000000  0.5747160000000  0.4969640000000 1.0
C      1  0.4996700000000  0.5758240000000  0.4687440000000 1.0
C      1  0.5245110000000  0.5729440000000  0.4885820000000 1.0
C      1  0.4417280000000  0.5580160000000  0.5310950000000 1.0
C      1  0.4536590000000  0.5646230000000  0.4501110000000 1.0
C      1  0.5372840000000  0.5674850000000  0.4378680000000 1.0
C      1  0.5585700000000  0.5634100000000  0.5122700000000 1.0
C      1  0.5119910000000  0.5596280000000  0.5651040000000 1.0
C      1  0.5041280000000  0.4603290000000  0.5093530000000 1.0
C      1  0.5176010000000  0.5069830000000  0.4939900000000 1.0
C      1  0.4931070000000  0.4765170000000  0.4867090000000 1.0
END
