TITL C-2622968-4806-670 -3.48306027910597e-05 125000 -141.386622680402 0 0 32 (C1) n - 1
REM
REM in /nfs/bkarasulu/CARBON/AIRSS/Generating-Clusters/AIREBO/with-SteepDescent/Higher-Symm/SD-CG/HFTN-CG
REM
REM
REM
REM
REM
REM ./C.cell (b20cbc046b6831c77cfcea5457e17084)
REM
REM compiler GCC version 9.2.1 20190827 (Red Hat 9.2.1-1)
REM options -cpp -mtune=generic -march=x86-64 -g -O0 -fpre-include=/usr/include/finclude/math-vector-fortran.h
REM seed -1746726814 -2119911568 -76148 293205254 -2105780678 -2011065298 -1480885309 -441652865 -1443085435 -1729230324 1105339147 1161292370 -439827995 946037010 -264611572 666685994 -1234150785 185584253 1192821897 -1529614434 699309062 -1375986321 254151984 -889586484 -962729359 1718241165 833483026 -588161086 -1974902943 656421164 -392678109 876181956 1333845831
REM
CELL 1.54180   50.00000   50.00000   50.00000   90.00000   90.00000   90.00000
LATT -1
SFAC C  
C      1  0.4741120000000  0.5001080000000  0.5327330000000 1.0
C      1  0.4744750000000  0.5054200000000  0.4681650000000 1.0
C      1  0.5224310000000  0.4952110000000  0.4715510000000 1.0
C      1  0.5244450000000  0.5037260000000  0.5322930000000 1.0
C      1  0.5377460000000  0.5454340000000  0.4721440000000 1.0
C      1  0.5356000000000  0.4525190000000  0.5290590000000 1.0
C      1  0.4596050000000  0.5496130000000  0.5271150000000 1.0
C      1  0.4594390000000  0.4573010000000  0.4769460000000 1.0
C      1  0.4508830000000  0.5136500000000  0.4469060000000 1.0
C      1  0.4660890000000  0.4693190000000  0.5423570000000 1.0
C      1  0.5546570000000  0.5098430000000  0.5320390000000 1.0
C      1  0.5483750000000  0.4866300000000  0.4545290000000 1.0
C      1  0.4678060000000  0.5092820000000  0.5825440000000 1.0
C      1  0.4707520000000  0.4954820000000  0.4161450000000 1.0
C      1  0.5340060000000  0.5083370000000  0.4215310000000 1.0
C      1  0.5320900000000  0.4901940000000  0.5805840000000 1.0
C      1  0.5099900000000  0.5230540000000  0.5140180000000 1.0
C      1  0.5065070000000  0.4763990000000  0.4890380000000 1.0
C      1  0.4871810000000  0.5231050000000  0.4880480000000 1.0
C      1  0.4862200000000  0.4744330000000  0.5162870000000 1.0
C      1  0.5137660000000  0.5060610000000  0.5613960000000 1.0
C      1  0.5150010000000  0.4934090000000  0.4387000000000 1.0
C      1  0.4868800000000  0.5091450000000  0.4370160000000 1.0
C      1  0.4841150000000  0.4942100000000  0.5640730000000 1.0
C      1  0.4765870000000  0.4766540000000  0.4776300000000 1.0
C      1  0.4768010000000  0.5265580000000  0.5192040000000 1.0
C      1  0.5187550000000  0.4757490000000  0.5202640000000 1.0
C      1  0.5202750000000  0.5237660000000  0.4829390000000 1.0
C      1  0.5135320000000  0.5358650000000  0.5696170000000 1.0
C      1  0.5113860000000  0.4658860000000  0.4297890000000 1.0
C      1  0.4916620000000  0.5372090000000  0.4306850000000 1.0
C      1  0.4888320000000  0.4664280000000  0.5746540000000 1.0
END
