TITL C-2622968-4806-657 -0.000815745525243369 125000 -261.96268050488 0 0 50 (C1) n - 1
REM
REM in /nfs/bkarasulu/CARBON/AIRSS/Generating-Clusters/AIREBO/with-SteepDescent/Higher-Symm/SD-CG/HFTN-CG
REM
REM
REM
REM
REM
REM ./C.cell (b20cbc046b6831c77cfcea5457e17084)
REM
REM compiler GCC version 9.2.1 20190827 (Red Hat 9.2.1-1)
REM options -cpp -mtune=generic -march=x86-64 -g -O0 -fpre-include=/usr/include/finclude/math-vector-fortran.h
REM seed -1674566549 1653830332 -784138578 510157108 -1119426518 -642643866 -830791893 -1553819100 -916636351 -2059115667 956574530 -1178098075 -1759833275 -55864090 950362547 304542087 332944342 -1574933368 1640719315 1433141374 1854200458 -433511683 -758233054 711099582 1572036002 -1320023276 1603983514 61085443 -155392368 1325419131 1883646883 2047184252 334310613
REM
CELL 1.54180   50.00000   50.00000   50.00000   90.00000   90.00000   90.00000
LATT -1
SFAC C  
C      1  0.4586350000000  0.5138340000000  0.5262860000000 1.0
C      1  0.5424530000000  0.5086770000000  0.5175390000000 1.0
C      1  0.4979560000000  0.5153190000000  0.4497560000000 1.0
C      1  0.4255260000000  0.5345470000000  0.5177850000000 1.0
C      1  0.5548980000000  0.5324360000000  0.5484600000000 1.0
C      1  0.5225960000000  0.5360960000000  0.4260760000000 1.0
C      1  0.4769000000000  0.4814690000000  0.4471520000000 1.0
C      1  0.4676060000000  0.4803420000000  0.5460630000000 1.0
C      1  0.5619380000000  0.4793430000000  0.4988030000000 1.0
C      1  0.4737030000000  0.4845170000000  0.4810490000000 1.0
C      1  0.4977900000000  0.4822100000000  0.5301900000000 1.0
C      1  0.5302750000000  0.4854940000000  0.4865780000000 1.0
C      1  0.5524270000000  0.4977110000000  0.4478970000000 1.0
C      1  0.4270450000000  0.4959230000000  0.4817170000000 1.0
C      1  0.5226120000000  0.4981530000000  0.5737400000000 1.0
C      1  0.4682670000000  0.5433850000000  0.4845470000000 1.0
C      1  0.5029640000000  0.5421560000000  0.5343240000000 1.0
C      1  0.5282230000000  0.5443680000000  0.4805380000000 1.0
C      1  0.4633360000000  0.5094860000000  0.5585570000000 1.0
C      1  0.5726050000000  0.5111090000000  0.5045700000000 1.0
C      1  0.4683440000000  0.5103420000000  0.4357280000000 1.0
C      1  0.5172600000000  0.4618370000000  0.4497550000000 1.0
C      1  0.4456680000000  0.4605010000000  0.5114320000000 1.0
C      1  0.5351390000000  0.4615140000000  0.5461460000000 1.0
C      1  0.4972680000000  0.5365410000000  0.4700460000000 1.0
C      1  0.4758820000000  0.5353690000000  0.5162600000000 1.0
C      1  0.5271070000000  0.5335360000000  0.5119770000000 1.0
C      1  0.5252740000000  0.5248160000000  0.5528050000000 1.0
C      1  0.5368250000000  0.5277550000000  0.4521410000000 1.0
C      1  0.4397280000000  0.5261220000000  0.4911450000000 1.0
C      1  0.5315040000000  0.4857630000000  0.5275710000000 1.0
C      1  0.5140770000000  0.4918590000000  0.4573570000000 1.0
C      1  0.4554040000000  0.4897890000000  0.5092190000000 1.0
C      1  0.4699800000000  0.4445420000000  0.5072310000000 1.0
C      1  0.5199530000000  0.4478210000000  0.5227770000000 1.0
C      1  0.5082560000000  0.4465570000000  0.4730030000000 1.0
C      1  0.4963990000000  0.5271600000000  0.4187270000000 1.0
C      1  0.4334960000000  0.5257640000000  0.5439620000000 1.0
C      1  0.5734730000000  0.5291900000000  0.5319590000000 1.0
C      1  0.4809390000000  0.4513510000000  0.4810570000000 1.0
C      1  0.4905610000000  0.4491930000000  0.5264440000000 1.0
C      1  0.5261350000000  0.4529350000000  0.4954650000000 1.0
C      1  0.4969130000000  0.5059460000000  0.5545270000000 1.0
C      1  0.5507200000000  0.5114600000000  0.4785500000000 1.0
C      1  0.4540060000000  0.5079350000000  0.4662120000000 1.0
C      1  0.4236960000000  0.4716540000000  0.4931600000000 1.0
C      1  0.5326010000000  0.4726890000000  0.5725260000000 1.0
C      1  0.5446920000000  0.4727800000000  0.4403970000000 1.0
C      1  0.4997870000000  0.4944070000000  0.4987180000000 1.0
C      1  0.4997180000000  0.5241340000000  0.4991720000000 1.0
END
