TITL C-2622967-6265-348 0.00110621392315572 125000 -1034.09331911381 0 0 191 (C1) n - 1
REM
REM in /nfs/bkarasulu/CARBON/AIRSS/Generating-Clusters/AIREBO/with-SteepDescent/Higher-Symm/SD-CG/HFTN-CG
REM
REM
REM
REM
REM
REM ./C.cell (b20cbc046b6831c77cfcea5457e17084)
REM
REM compiler GCC version 9.2.1 20190827 (Red Hat 9.2.1-1)
REM options -cpp -mtune=generic -march=x86-64 -g -O0 -fpre-include=/usr/include/finclude/math-vector-fortran.h
REM seed -801863398 419654025 1815150148 2131552471 1148146231 -1709099085 1736639507 113144 -910622585 -424756066 -927984389 24244020 -961744477 561505829 -1279013067 769376842 1264462781 -1074845794 -428704579 -517983681 -1507333281 80568870 1463485688 -1857349345 -782767656 -1575883304 1973386500 918655699 1198652735 -1148424731 132217490 -952176225 229864768
REM
CELL 1.54180   50.00000   50.00000   50.00000   90.00000   90.00000   90.00000
LATT -1
SFAC C  
C      1  0.4148110000000  0.4373240000000  0.5109840000000 1.0
C      1  0.4354550000000  0.5954290000000  0.4985470000000 1.0
C      1  0.5925130000000  0.5654460000000  0.5046270000000 1.0
C      1  0.5624550000000  0.4100390000000  0.4958970000000 1.0
C      1  0.4666040000000  0.5323470000000  0.5227150000000 1.0
C      1  0.5267890000000  0.5290420000000  0.4694690000000 1.0
C      1  0.5316230000000  0.4715960000000  0.5245980000000 1.0
C      1  0.4758720000000  0.4703200000000  0.4674830000000 1.0
C      1  0.4468870000000  0.4150590000000  0.4499770000000 1.0
C      1  0.4147150000000  0.5525960000000  0.5528600000000 1.0
C      1  0.5523850000000  0.5849520000000  0.4470340000000 1.0
C      1  0.5831960000000  0.4468000000000  0.5511090000000 1.0
C      1  0.4226760000000  0.4404140000000  0.5728590000000 1.0
C      1  0.4428510000000  0.5801470000000  0.4355610000000 1.0
C      1  0.5729720000000  0.5581660000000  0.5665310000000 1.0
C      1  0.5562070000000  0.4186590000000  0.4327790000000 1.0
C      1  0.5586760000000  0.4683960000000  0.5416930000000 1.0
C      1  0.4685600000000  0.4404610000000  0.4563980000000 1.0
C      1  0.4411890000000  0.5334320000000  0.5434660000000 1.0
C      1  0.5316190000000  0.5601600000000  0.4575420000000 1.0
C      1  0.5435770000000  0.5155080000000  0.5148880000000 1.0
C      1  0.5187010000000  0.4571040000000  0.4841560000000 1.0
C      1  0.4579820000000  0.4875740000000  0.5078090000000 1.0
C      1  0.4824050000000  0.5446060000000  0.4842530000000 1.0
C      1  0.4020280000000  0.5140980000000  0.5071160000000 1.0
C      1  0.5176170000000  0.5991180000000  0.4895070000000 1.0
C      1  0.5986610000000  0.4824510000000  0.5136790000000 1.0
C      1  0.4857790000000  0.4006270000000  0.4862510000000 1.0
C      1  0.4234730000000  0.4629640000000  0.4612670000000 1.0
C      1  0.4644470000000  0.5784230000000  0.5394350000000 1.0
C      1  0.5778160000000  0.5363210000000  0.4606700000000 1.0
C      1  0.5366380000000  0.4173090000000  0.5368950000000 1.0
C      1  0.5603050000000  0.4859580000000  0.5955130000000 1.0
C      1  0.4807900000000  0.4378000000000  0.3995230000000 1.0
C      1  0.4392880000000  0.5172970000000  0.5956900000000 1.0
C      1  0.5163030000000  0.5591330000000  0.4025050000000 1.0
C      1  0.4730780000000  0.5052580000000  0.5769540000000 1.0
C      1  0.5055840000000  0.5251470000000  0.4205180000000 1.0
C      1  0.5264830000000  0.4959190000000  0.5767610000000 1.0
C      1  0.4925960000000  0.4716440000000  0.4170470000000 1.0
C      1  0.4978670000000  0.4465970000000  0.6087070000000 1.0
C      1  0.4451260000000  0.5045390000000  0.3858440000000 1.0
C      1  0.5007180000000  0.5529400000000  0.6121970000000 1.0
C      1  0.5585690000000  0.4995880000000  0.3968090000000 1.0
C      1  0.4729490000000  0.5999310000000  0.5603950000000 1.0
C      1  0.5990290000000  0.5256010000000  0.4394540000000 1.0
C      1  0.5316520000000  0.3984500000000  0.5619540000000 1.0
C      1  0.4004060000000  0.4727970000000  0.4418220000000 1.0
C      1  0.4474810000000  0.5273910000000  0.4950280000000 1.0
C      1  0.5255540000000  0.5470300000000  0.4982980000000 1.0
C      1  0.5483930000000  0.4805610000000  0.4963940000000 1.0
C      1  0.4812400000000  0.4569570000000  0.4974320000000 1.0
C      1  0.4737300000000  0.5564260000000  0.4438560000000 1.0
C      1  0.5515650000000  0.5274130000000  0.5537710000000 1.0
C      1  0.5249930000000  0.4424590000000  0.4390640000000 1.0
C      1  0.4444520000000  0.4723630000000  0.5627920000000 1.0
C      1  0.4980540000000  0.6149780000000  0.5506930000000 1.0
C      1  0.6112900000000  0.5020800000000  0.4460580000000 1.0
C      1  0.5085260000000  0.3791340000000  0.5584540000000 1.0
C      1  0.3901400000000  0.4999130000000  0.4516570000000 1.0
C      1  0.4979710000000  0.5367740000000  0.5103270000000 1.0
C      1  0.5254820000000  0.5063400000000  0.4919160000000 1.0
C      1  0.5031630000000  0.4734520000000  0.5100020000000 1.0
C      1  0.4743030000000  0.5000240000000  0.4837300000000 1.0
C      1  0.5045670000000  0.5765330000000  0.5449800000000 1.0
C      1  0.5653640000000  0.4884310000000  0.4683550000000 1.0
C      1  0.4919770000000  0.4211650000000  0.5369260000000 1.0
C      1  0.4365360000000  0.5142500000000  0.4685550000000 1.0
C      1  0.4767960000000  0.5015270000000  0.5319700000000 1.0
C      1  0.4946540000000  0.5280750000000  0.4627140000000 1.0
C      1  0.5251340000000  0.5026520000000  0.5368670000000 1.0
C      1  0.5084570000000  0.4723890000000  0.4596340000000 1.0
C      1  0.5586670000000  0.4720350000000  0.4116960000000 1.0
C      1  0.4717230000000  0.4392460000000  0.5921670000000 1.0
C      1  0.4392130000000  0.5289830000000  0.4072870000000 1.0
C      1  0.5218500000000  0.5598010000000  0.5894790000000 1.0
C      1  0.4261440000000  0.4989440000000  0.4126940000000 1.0
C      1  0.4993460000000  0.5833350000000  0.5994680000000 1.0
C      1  0.5841230000000  0.4917700000000  0.4186480000000 1.0
C      1  0.4980210000000  0.4195770000000  0.5885900000000 1.0
C      1  0.4874090000000  0.5278820000000  0.5972390000000 1.0
C      1  0.5282210000000  0.5095340000000  0.4003410000000 1.0
C      1  0.5115650000000  0.4725070000000  0.5965300000000 1.0
C      1  0.4691570000000  0.4877230000000  0.4012700000000 1.0
C      1  0.4778990000000  0.5207970000000  0.4012540000000 1.0
C      1  0.5208020000000  0.5210440000000  0.5989650000000 1.0
C      1  0.5196940000000  0.4765410000000  0.3970970000000 1.0
C      1  0.4786150000000  0.4804220000000  0.5995160000000 1.0
C      1  0.5577390000000  0.4218290000000  0.4669160000000 1.0
C      1  0.4198610000000  0.4480790000000  0.5397420000000 1.0
C      1  0.4392160000000  0.5814760000000  0.4696640000000 1.0
C      1  0.5762040000000  0.5611240000000  0.5324230000000 1.0
C      1  0.5762680000000  0.5213470000000  0.5360520000000 1.0
C      1  0.5181130000000  0.4226640000000  0.4642570000000 1.0
C      1  0.4301590000000  0.4785320000000  0.5349490000000 1.0
C      1  0.4793480000000  0.5793060000000  0.4662550000000 1.0
C      1  0.4465880000000  0.4839480000000  0.4568560000000 1.0
C      1  0.4840930000000  0.5517940000000  0.5444500000000 1.0
C      1  0.5546010000000  0.5156730000000  0.4583810000000 1.0
C      1  0.5163660000000  0.4440820000000  0.5375220000000 1.0
C      1  0.5389580000000  0.4042070000000  0.5090130000000 1.0
C      1  0.4150800000000  0.4625030000000  0.4921350000000 1.0
C      1  0.4650060000000  0.5874250000000  0.5102530000000 1.0
C      1  0.5863320000000  0.5355670000000  0.4918280000000 1.0
C      1  0.6061410000000  0.5173780000000  0.5437030000000 1.0
C      1  0.5134840000000  0.3922780000000  0.4587810000000 1.0
C      1  0.3968790000000  0.4803630000000  0.5416690000000 1.0
C      1  0.4888540000000  0.6085100000000  0.4614840000000 1.0
C      1  0.4087090000000  0.5050270000000  0.5555090000000 1.0
C      1  0.5063330000000  0.5897390000000  0.4391550000000 1.0
C      1  0.5914240000000  0.4936180000000  0.5598310000000 1.0
C      1  0.4930240000000  0.4073730000000  0.4374000000000 1.0
C      1  0.5461550000000  0.4376480000000  0.5840360000000 1.0
C      1  0.4333820000000  0.4509930000000  0.4140600000000 1.0
C      1  0.4529200000000  0.5655940000000  0.5869690000000 1.0
C      1  0.5634070000000  0.5451020000000  0.4138270000000 1.0
C      1  0.3989920000000  0.4823080000000  0.5102860000000 1.0
C      1  0.4847750000000  0.6057530000000  0.4951660000000 1.0
C      1  0.6053480000000  0.5155770000000  0.5097560000000 1.0
C      1  0.5186340000000  0.3944320000000  0.4924430000000 1.0
C      1  0.5424920000000  0.4632970000000  0.5963810000000 1.0
C      1  0.4582970000000  0.4562540000000  0.3993560000000 1.0
C      1  0.4569130000000  0.5392270000000  0.5985800000000 1.0
C      1  0.5382540000000  0.5410240000000  0.4005190000000 1.0
C      1  0.4037370000000  0.5191290000000  0.4761910000000 1.0
C      1  0.5126540000000  0.6012870000000  0.5231040000000 1.0
C      1  0.5859310000000  0.4698200000000  0.4880210000000 1.0
C      1  0.4721460000000  0.4142270000000  0.5132330000000 1.0
C      1  0.5899110000000  0.4785040000000  0.4492450000000 1.0
C      1  0.4922490000000  0.4048440000000  0.5606610000000 1.0
C      1  0.4188890000000  0.5081730000000  0.4413000000000 1.0
C      1  0.5107010000000  0.5930570000000  0.5711810000000 1.0
C      1  0.5570390000000  0.4487710000000  0.4485490000000 1.0
C      1  0.4347110000000  0.4213420000000  0.5503010000000 1.0
C      1  0.4417100000000  0.5526020000000  0.4549350000000 1.0
C      1  0.5464410000000  0.5599720000000  0.5453400000000 1.0
C      1  0.5049960000000  0.5276230000000  0.5486000000000 1.0
C      1  0.5312790000000  0.4952140000000  0.4486870000000 1.0
C      1  0.4953540000000  0.4628160000000  0.5530830000000 1.0
C      1  0.4715360000000  0.5065130000000  0.4510700000000 1.0
C      1  0.4397280000000  0.5690440000000  0.5609230000000 1.0
C      1  0.5668630000000  0.5593490000000  0.4389960000000 1.0
C      1  0.5586300000000  0.4320410000000  0.5582440000000 1.0
C      1  0.4319120000000  0.4391030000000  0.4406420000000 1.0
C      1  0.4472990000000  0.4576580000000  0.4995390000000 1.0
C      1  0.4540660000000  0.5606470000000  0.4920790000000 1.0
C      1  0.5580640000000  0.5455420000000  0.5082330000000 1.0
C      1  0.5501590000000  0.4476760000000  0.4878650000000 1.0
C      1  0.5842190000000  0.5253380000000  0.4132440000000 1.0
C      1  0.5284990000000  0.4147800000000  0.5851580000000 1.0
C      1  0.4130730000000  0.4720830000000  0.4152160000000 1.0
C      1  0.4717260000000  0.5879420000000  0.5863590000000 1.0
C      1  0.5713300000000  0.4532870000000  0.5139020000000 1.0
C      1  0.4570190000000  0.4280480000000  0.4859330000000 1.0
C      1  0.4339010000000  0.5560420000000  0.5190690000000 1.0
C      1  0.5560090000000  0.5654350000000  0.4807230000000 1.0
C      1  0.5277400000000  0.5998680000000  0.4589980000000 1.0
C      1  0.5985050000000  0.4709390000000  0.5431000000000 1.0
C      1  0.4724290000000  0.4007340000000  0.4580980000000 1.0
C      1  0.4020940000000  0.5275780000000  0.5384620000000 1.0
C      1  0.5319660000000  0.4715860000000  0.4273170000000 1.0
C      1  0.4710010000000  0.4625610000000  0.5716030000000 1.0
C      1  0.4624070000000  0.5283000000000  0.4297450000000 1.0
C      1  0.5260390000000  0.5361950000000  0.5697380000000 1.0
C      1  0.5330310000000  0.4246520000000  0.4110220000000 1.0
C      1  0.4278560000000  0.4636410000000  0.5904670000000 1.0
C      1  0.4660800000000  0.5728870000000  0.4151020000000 1.0
C      1  0.5698480000000  0.5402830000000  0.5876000000000 1.0
C      1  0.4333950000000  0.4169200000000  0.5046430000000 1.0
C      1  0.4145080000000  0.5616810000000  0.4972780000000 1.0
C      1  0.5561640000000  0.5851300000000  0.5034180000000 1.0
C      1  0.5861130000000  0.4309400000000  0.4929730000000 1.0
C      1  0.5575610000000  0.4951880000000  0.5629020000000 1.0
C      1  0.4918710000000  0.4408600000000  0.4315260000000 1.0
C      1  0.4417280000000  0.5059620000000  0.5637250000000 1.0
C      1  0.5065500000000  0.5559790000000  0.4349280000000 1.0
C      1  0.5876990000000  0.4478540000000  0.4632240000000 1.0
C      1  0.4449150000000  0.4057170000000  0.5302560000000 1.0
C      1  0.4159290000000  0.5479170000000  0.4735680000000 1.0
C      1  0.5411320000000  0.5857380000000  0.5266900000000 1.0
C      1  0.4989730000000  0.4308030000000  0.4887590000000 1.0
C      1  0.4325700000000  0.5054520000000  0.5163200000000 1.0
C      1  0.5024910000000  0.5704710000000  0.4895480000000 1.0
C      1  0.5704260000000  0.4975580000000  0.5159420000000 1.0
C      1  0.4857650000000  0.5538800000000  0.4008930000000 1.0
C      1  0.5544300000000  0.5167480000000  0.5963360000000 1.0
C      1  0.5119670000000  0.4431840000000  0.3970980000000 1.0
C      1  0.4453760000000  0.4876130000000  0.5996350000000 1.0
C      1  0.4987720000000  0.4952680000000  0.5570390000000 1.0
C      1  0.4993750000000  0.4960270000000  0.4369400000000 1.0
C      1  0.4967810000000  0.5039000000000  0.5050410000000 1.0
END
