TITL C-2622958-629-779 -0.00214265878252719 125000 -974.948969672866 0 0 176 (C1) n - 1
REM
REM in /nfs/bkarasulu/CARBON/AIRSS/Generating-Clusters/AIREBO/with-SteepDescent/Higher-Symm/SD-CG/HFTN-CG
REM
REM
REM
REM
REM
REM ./C.cell (b20cbc046b6831c77cfcea5457e17084)
REM
REM compiler GCC version 9.2.1 20190827 (Red Hat 9.2.1-1)
REM options -cpp -mtune=generic -march=x86-64 -g -O0 -fpre-include=/usr/include/finclude/math-vector-fortran.h
REM seed 506076122 615060205 -469427333 -1318426516 71332817 1643658001 1093351149 46752533 -2137615732 -1682596235 -535804932 1254202532 1451360 -212125460 948494113 -811693507 -1965002846 1901685576 624699313 1606590323 2063021647 1743620867 660574134 -53674376 -1930865112 1082363928 -1749246932 1090557545 -1399940454 1619466374 -1852607411 1722802592 463672866
REM
CELL 1.54180   50.00000   50.00000   50.00000   90.00000   90.00000   90.00000
LATT -1
SFAC C  
C      1  0.5682260000000  0.5244110000000  0.5835070000000 1.0
C      1  0.4564230000000  0.4714880000000  0.5969240000000 1.0
C      1  0.3870050000000  0.5238850000000  0.5122890000000 1.0
C      1  0.4287330000000  0.4788930000000  0.4153970000000 1.0
C      1  0.5420940000000  0.5252560000000  0.4096620000000 1.0
C      1  0.6036410000000  0.4729550000000  0.4894720000000 1.0
C      1  0.4950140000000  0.4668730000000  0.4421230000000 1.0
C      1  0.5447820000000  0.5245150000000  0.4689630000000 1.0
C      1  0.5495650000000  0.4536930000000  0.5259890000000 1.0
C      1  0.4997210000000  0.5383350000000  0.5492950000000 1.0
C      1  0.4500890000000  0.4543010000000  0.5308660000000 1.0
C      1  0.4399100000000  0.5450560000000  0.4747060000000 1.0
C      1  0.6147280000000  0.4999610000000  0.4315610000000 1.0
C      1  0.6338850000000  0.4950080000000  0.5446450000000 1.0
C      1  0.4979140000000  0.5012980000000  0.6187640000000 1.0
C      1  0.3906920000000  0.4823520000000  0.5862490000000 1.0
C      1  0.3639840000000  0.5096510000000  0.4565730000000 1.0
C      1  0.5011840000000  0.5072730000000  0.3863780000000 1.0
C      1  0.5384460000000  0.6122330000000  0.4955870000000 1.0
C      1  0.5105350000000  0.3908420000000  0.5251600000000 1.0
C      1  0.4942730000000  0.6097820000000  0.5079160000000 1.0
C      1  0.4680480000000  0.3799170000000  0.4950580000000 1.0
C      1  0.5066230000000  0.6207400000000  0.4605840000000 1.0
C      1  0.5075570000000  0.3922220000000  0.4779380000000 1.0
C      1  0.5108920000000  0.3972330000000  0.5519050000000 1.0
C      1  0.4684450000000  0.5926370000000  0.5179330000000 1.0
C      1  0.4602730000000  0.4038680000000  0.4752170000000 1.0
C      1  0.4997600000000  0.5971280000000  0.4465890000000 1.0
C      1  0.5375690000000  0.4050360000000  0.4765490000000 1.0
C      1  0.5402030000000  0.5964500000000  0.5252750000000 1.0
C      1  0.5222500000000  0.5019000000000  0.4928900000000 1.0
C      1  0.5243010000000  0.4834000000000  0.5176800000000 1.0
C      1  0.5005870000000  0.5065680000000  0.5252240000000 1.0
C      1  0.4830740000000  0.4801090000000  0.5230130000000 1.0
C      1  0.4776570000000  0.5167160000000  0.4939020000000 1.0
C      1  0.4943810000000  0.4938620000000  0.4843960000000 1.0
C      1  0.5830130000000  0.4245430000000  0.5037750000000 1.0
C      1  0.5322220000000  0.5716490000000  0.5725680000000 1.0
C      1  0.4627440000000  0.4286820000000  0.5649470000000 1.0
C      1  0.4200590000000  0.5716980000000  0.5071050000000 1.0
C      1  0.4566920000000  0.4352290000000  0.4336470000000 1.0
C      1  0.5373110000000  0.5631610000000  0.4400550000000 1.0
C      1  0.5139320000000  0.4461220000000  0.4272780000000 1.0
C      1  0.5713910000000  0.5449780000000  0.4743730000000 1.0
C      1  0.5551840000000  0.4435640000000  0.5546490000000 1.0
C      1  0.4751200000000  0.5446310000000  0.5713800000000 1.0
C      1  0.4264420000000  0.4371240000000  0.5189710000000 1.0
C      1  0.4349670000000  0.5561450000000  0.4453320000000 1.0
C      1  0.4582100000000  0.5218270000000  0.4695250000000 1.0
C      1  0.5109370000000  0.4849550000000  0.4588510000000 1.0
C      1  0.5543170000000  0.5015470000000  0.4921790000000 1.0
C      1  0.5309370000000  0.4952160000000  0.5475870000000 1.0
C      1  0.4794350000000  0.5110600000000  0.5480400000000 1.0
C      1  0.4498760000000  0.4859480000000  0.5184200000000 1.0
C      1  0.4911060000000  0.5577270000000  0.4249480000000 1.0
C      1  0.5498690000000  0.4428090000000  0.4733760000000 1.0
C      1  0.5498720000000  0.5565530000000  0.5284170000000 1.0
C      1  0.5007590000000  0.4453210000000  0.5544120000000 1.0
C      1  0.4657810000000  0.5534030000000  0.5228200000000 1.0
C      1  0.4634750000000  0.4511560000000  0.4819940000000 1.0
C      1  0.4486300000000  0.4479460000000  0.5788460000000 1.0
C      1  0.4016520000000  0.5513580000000  0.5029970000000 1.0
C      1  0.4509670000000  0.4547960000000  0.4133690000000 1.0
C      1  0.5557150000000  0.5448850000000  0.4252410000000 1.0
C      1  0.6052330000000  0.4488060000000  0.5072210000000 1.0
C      1  0.5484750000000  0.5485080000000  0.5905310000000 1.0
C      1  0.4532220000000  0.5050820000000  0.5956460000000 1.0
C      1  0.3924680000000  0.4932770000000  0.5044690000000 1.0
C      1  0.4310340000000  0.5101160000000  0.4121280000000 1.0
C      1  0.5469570000000  0.4952800000000  0.4085450000000 1.0
C      1  0.6076390000000  0.5064450000000  0.4956000000000 1.0
C      1  0.5684280000000  0.4968700000000  0.5915740000000 1.0
C      1  0.4804040000000  0.5355680000000  0.4484100000000 1.0
C      1  0.5415600000000  0.4748740000000  0.4656900000000 1.0
C      1  0.5454810000000  0.5295790000000  0.5098140000000 1.0
C      1  0.5032640000000  0.4755660000000  0.5502790000000 1.0
C      1  0.4642500000000  0.5228150000000  0.5220550000000 1.0
C      1  0.4478830000000  0.4760770000000  0.4872960000000 1.0
C      1  0.3934970000000  0.4743270000000  0.5239540000000 1.0
C      1  0.4178650000000  0.5299970000000  0.4259660000000 1.0
C      1  0.5300840000000  0.4766410000000  0.3983900000000 1.0
C      1  0.5975340000000  0.5200230000000  0.4679830000000 1.0
C      1  0.5840570000000  0.4776360000000  0.5796710000000 1.0
C      1  0.4708130000000  0.5274250000000  0.5994190000000 1.0
C      1  0.4598100000000  0.5669170000000  0.4345570000000 1.0
C      1  0.5434620000000  0.4405520000000  0.4400590000000 1.0
C      1  0.5675390000000  0.5610160000000  0.4996940000000 1.0
C      1  0.5439740000000  0.4390180000000  0.5854550000000 1.0
C      1  0.4502350000000  0.5576020000000  0.5593480000000 1.0
C      1  0.4162300000000  0.4365000000000  0.4894070000000 1.0
C      1  0.5129670000000  0.4850610000000  0.5814550000000 1.0
C      1  0.4402410000000  0.5092240000000  0.5412730000000 1.0
C      1  0.4412730000000  0.4960560000000  0.4651260000000 1.0
C      1  0.4862480000000  0.5166400000000  0.4238650000000 1.0
C      1  0.5697030000000  0.4938820000000  0.4628310000000 1.0
C      1  0.5588190000000  0.5077990000000  0.5313920000000 1.0
C      1  0.4481230000000  0.4856280000000  0.4384370000000 1.0
C      1  0.5165040000000  0.5174810000000  0.4217840000000 1.0
C      1  0.5855760000000  0.4676450000000  0.4689690000000 1.0
C      1  0.5540670000000  0.5260970000000  0.5579840000000 1.0
C      1  0.4842310000000  0.4817270000000  0.5866890000000 1.0
C      1  0.4122980000000  0.5175020000000  0.5290670000000 1.0
C      1  0.4359390000000  0.5954160000000  0.5165770000000 1.0
C      1  0.4502900000000  0.4098420000000  0.4437960000000 1.0
C      1  0.5136800000000  0.5766740000000  0.4312180000000 1.0
C      1  0.5692880000000  0.4138710000000  0.4745460000000 1.0
C      1  0.5541190000000  0.5833660000000  0.5493390000000 1.0
C      1  0.4897480000000  0.4140410000000  0.5659260000000 1.0
C      1  0.4765850000000  0.4457470000000  0.4541210000000 1.0
C      1  0.5336070000000  0.5541250000000  0.4665970000000 1.0
C      1  0.5509800000000  0.4308560000000  0.5051890000000 1.0
C      1  0.5202710000000  0.5644320000000  0.5419850000000 1.0
C      1  0.4769500000000  0.4353580000000  0.5347730000000 1.0
C      1  0.4502180000000  0.5633740000000  0.4977370000000 1.0
C      1  0.4759360000000  0.4866470000000  0.4272610000000 1.0
C      1  0.5257160000000  0.5097790000000  0.4484470000000 1.0
C      1  0.5641520000000  0.4792790000000  0.5160160000000 1.0
C      1  0.5231650000000  0.5231420000000  0.5637360000000 1.0
C      1  0.4666170000000  0.4880200000000  0.5621110000000 1.0
C      1  0.4292210000000  0.5087400000000  0.5033860000000 1.0
C      1  0.4653700000000  0.5482910000000  0.4064870000000 1.0
C      1  0.5653320000000  0.4541510000000  0.4271070000000 1.0
C      1  0.5877620000000  0.5481190000000  0.5192690000000 1.0
C      1  0.5430040000000  0.4559920000000  0.6063120000000 1.0
C      1  0.4287590000000  0.5408430000000  0.5629130000000 1.0
C      1  0.4055150000000  0.4561220000000  0.4749580000000 1.0
C      1  0.5981450000000  0.5519710000000  0.4563730000000 1.0
C      1  0.5849370000000  0.4562880000000  0.5561950000000 1.0
C      1  0.4964060000000  0.5507120000000  0.5950760000000 1.0
C      1  0.4117370000000  0.4553250000000  0.5419520000000 1.0
C      1  0.4047410000000  0.5455420000000  0.4528590000000 1.0
C      1  0.5055770000000  0.4545430000000  0.3976700000000 1.0
C      1  0.5188630000000  0.4522240000000  0.5152270000000 1.0
C      1  0.4963830000000  0.5454560000000  0.5165240000000 1.0
C      1  0.4886780000000  0.4651720000000  0.4929490000000 1.0
C      1  0.4914140000000  0.5427470000000  0.4770920000000 1.0
C      1  0.5190040000000  0.4538200000000  0.4824670000000 1.0
C      1  0.5157050000000  0.5318610000000  0.4982510000000 1.0
C      1  0.5666590000000  0.4853450000000  0.4300160000000 1.0
C      1  0.5893270000000  0.5194410000000  0.5218290000000 1.0
C      1  0.5405650000000  0.4865440000000  0.5998500000000 1.0
C      1  0.4344230000000  0.5095450000000  0.5721470000000 1.0
C      1  0.4102220000000  0.4874170000000  0.4760350000000 1.0
C      1  0.4587290000000  0.5175100000000  0.4039060000000 1.0
C      1  0.5213900000000  0.5327780000000  0.5937760000000 1.0
C      1  0.4373950000000  0.4709980000000  0.5578540000000 1.0
C      1  0.4115740000000  0.5273890000000  0.4810100000000 1.0
C      1  0.4776640000000  0.4678410000000  0.4001750000000 1.0
C      1  0.5802340000000  0.5349020000000  0.4351690000000 1.0
C      1  0.5924390000000  0.4692390000000  0.5276410000000 1.0
C      1  0.3809030000000  0.5593680000000  0.4524070000000 1.0
C      1  0.5077690000000  0.4349680000000  0.3776090000000 1.0
C      1  0.6144640000000  0.5724160000000  0.4499670000000 1.0
C      1  0.5907660000000  0.4290750000000  0.5366460000000 1.0
C      1  0.4984780000000  0.5763660000000  0.5721470000000 1.0
C      1  0.3963210000000  0.4401360000000  0.5602440000000 1.0
C      1  0.5271070000000  0.4258350000000  0.5603640000000 1.0
C      1  0.4760480000000  0.5756470000000  0.5464850000000 1.0
C      1  0.4464350000000  0.4277420000000  0.4892740000000 1.0
C      1  0.4759180000000  0.5848990000000  0.4568470000000 1.0
C      1  0.5183300000000  0.4252120000000  0.4570730000000 1.0
C      1  0.5414610000000  0.5792530000000  0.4966490000000 1.0
C      1  0.4126690000000  0.4875450000000  0.5743220000000 1.0
C      1  0.3866120000000  0.5081570000000  0.4682300000000 1.0
C      1  0.4770410000000  0.4973040000000  0.3887370000000 1.0
C      1  0.5886470000000  0.5084390000000  0.4307520000000 1.0
C      1  0.6097050000000  0.4942000000000  0.5270700000000 1.0
C      1  0.5218830000000  0.5091080000000  0.6120390000000 1.0
C      1  0.5080080000000  0.5921510000000  0.5281310000000 1.0
C      1  0.4956550000000  0.4286910000000  0.5071680000000 1.0
C      1  0.4782310000000  0.5788510000000  0.4883660000000 1.0
C      1  0.4892950000000  0.4215900000000  0.4744050000000 1.0
C      1  0.5107880000000  0.5692720000000  0.4858910000000 1.0
C      1  0.5254040000000  0.4125090000000  0.5074090000000 1.0
C      1  0.5120970000000  0.6196200000000  0.4884170000000 1.0
C      1  0.4964780000000  0.3796750000000  0.5016700000000 1.0
END
