TITL C-2622956-4641-241 0.00130606659390296 125000 -378.259424982067 0 0 70 (C1) n - 1
REM
REM in /nfs/bkarasulu/CARBON/AIRSS/Generating-Clusters/AIREBO/with-SteepDescent/Higher-Symm/SD-CG/HFTN-CG
REM
REM
REM
REM
REM
REM ./C.cell (b20cbc046b6831c77cfcea5457e17084)
REM
REM compiler GCC version 9.2.1 20190827 (Red Hat 9.2.1-1)
REM options -cpp -mtune=generic -march=x86-64 -g -O0 -fpre-include=/usr/include/finclude/math-vector-fortran.h
REM seed -274720404 -1789060793 -654006324 -230686010 1619028355 1682634699 -1189166571 -1003647950 -2065841997 -1087003113 483915151 1452836566 1621773439 -143743032 -434387410 -640375635 -1409492094 -1706614216 -50465934 -482109493 2000885776 -1221574796 243051392 1451903271 -93377924 -1416172156 -1050286350 -1596212939 204486910 -167422899 -433348437 335452975 153217036
REM
CELL 1.54180   50.00000   50.00000   50.00000   90.00000   90.00000   90.00000
LATT -1
SFAC C  
C      1  0.4931220000000  0.4745300000000  0.5469400000000 1.0
C      1  0.4979000000000  0.4741020000000  0.4687890000000 1.0
C      1  0.4997420000000  0.5460030000000  0.4964750000000 1.0
C      1  0.5038960000000  0.4955160000000  0.5882720000000 1.0
C      1  0.5044210000000  0.4283660000000  0.4525630000000 1.0
C      1  0.5099410000000  0.5767760000000  0.4606200000000 1.0
C      1  0.4844880000000  0.5766510000000  0.5327740000000 1.0
C      1  0.4842620000000  0.4252260000000  0.5501160000000 1.0
C      1  0.4874060000000  0.4860650000000  0.4205150000000 1.0
C      1  0.5391690000000  0.4768940000000  0.5594990000000 1.0
C      1  0.5385190000000  0.4627230000000  0.4464070000000 1.0
C      1  0.5446220000000  0.5665410000000  0.4940620000000 1.0
C      1  0.5545300000000  0.4625830000000  0.4748260000000 1.0
C      1  0.5668740000000  0.5461870000000  0.4782140000000 1.0
C      1  0.5634230000000  0.4978680000000  0.5478100000000 1.0
C      1  0.5213010000000  0.5252360000000  0.4331520000000 1.0
C      1  0.5192350000000  0.5445580000000  0.5505170000000 1.0
C      1  0.5245710000000  0.4282600000000  0.5110720000000 1.0
C      1  0.4193630000000  0.5402060000000  0.4846640000000 1.0
C      1  0.4192850000000  0.4823260000000  0.5290590000000 1.0
C      1  0.4329030000000  0.4712560000000  0.4800330000000 1.0
C      1  0.5803910000000  0.5205250000000  0.4963340000000 1.0
C      1  0.5662860000000  0.4957400000000  0.5143960000000 1.0
C      1  0.5732710000000  0.4899740000000  0.4830270000000 1.0
C      1  0.5345730000000  0.5145150000000  0.4595400000000 1.0
C      1  0.5367660000000  0.5260760000000  0.5279920000000 1.0
C      1  0.5368460000000  0.4578500000000  0.5102530000000 1.0
C      1  0.4908330000000  0.5334760000000  0.5589800000000 1.0
C      1  0.4923230000000  0.4279600000000  0.5025830000000 1.0
C      1  0.4897160000000  0.5297950000000  0.4386100000000 1.0
C      1  0.4680470000000  0.4926210000000  0.5424700000000 1.0
C      1  0.4666850000000  0.4673560000000  0.4804780000000 1.0
C      1  0.4682230000000  0.5454980000000  0.4840690000000 1.0
C      1  0.4438350000000  0.5335600000000  0.5268700000000 1.0
C      1  0.4511530000000  0.4477860000000  0.5253100000000 1.0
C      1  0.4261900000000  0.5035140000000  0.4523300000000 1.0
C      1  0.4602310000000  0.5245470000000  0.5485390000000 1.0
C      1  0.4635620000000  0.4409870000000  0.5017180000000 1.0
C      1  0.4673190000000  0.5447800000000  0.4520920000000 1.0
C      1  0.5367680000000  0.4098010000000  0.4857600000000 1.0
C      1  0.5404090000000  0.5526070000000  0.4274160000000 1.0
C      1  0.5415930000000  0.5491120000000  0.5713300000000 1.0
C      1  0.4426260000000  0.5471040000000  0.4995920000000 1.0
C      1  0.4437450000000  0.4728960000000  0.5372590000000 1.0
C      1  0.4525050000000  0.4846540000000  0.4548580000000 1.0
C      1  0.5545210000000  0.4364330000000  0.4906050000000 1.0
C      1  0.5529210000000  0.5396750000000  0.4525890000000 1.0
C      1  0.5519380000000  0.5242570000000  0.5583450000000 1.0
C      1  0.4157240000000  0.5136470000000  0.4756280000000 1.0
C      1  0.4424540000000  0.5086410000000  0.5102090000000 1.0
C      1  0.4186710000000  0.4920940000000  0.4981690000000 1.0
C      1  0.5140990000000  0.5181780000000  0.4824710000000 1.0
C      1  0.5171460000000  0.5081970000000  0.5132460000000 1.0
C      1  0.5169230000000  0.4784150000000  0.4970460000000 1.0
C      1  0.5126220000000  0.4802450000000  0.5660050000000 1.0
C      1  0.5118340000000  0.4553070000000  0.4500190000000 1.0
C      1  0.5176210000000  0.5681420000000  0.4859130000000 1.0
C      1  0.4865590000000  0.5460050000000  0.5276590000000 1.0
C      1  0.4908650000000  0.4480250000000  0.5299980000000 1.0
C      1  0.4826390000000  0.4988020000000  0.4507150000000 1.0
C      1  0.4922540000000  0.5204800000000  0.5870010000000 1.0
C      1  0.5079830000000  0.4154590000000  0.4772920000000 1.0
C      1  0.5102310000000  0.5596310000000  0.4370190000000 1.0
C      1  0.4898650000000  0.5122410000000  0.5252180000000 1.0
C      1  0.4869650000000  0.4728500000000  0.5072290000000 1.0
C      1  0.4810630000000  0.5155030000000  0.4791930000000 1.0
C      1  0.5547150000000  0.4697940000000  0.5310110000000 1.0
C      1  0.5527080000000  0.4911980000000  0.4574930000000 1.0
C      1  0.5551240000000  0.5391940000000  0.5093430000000 1.0
C      1  0.4697670000000  0.5000440000000  0.5032400000000 1.0
END
