TITL C-2622957-9142-135 -0.0041153879817416 125000 -518.886061863261 0 0 97 (C1) n - 1
REM
REM in /nfs/bkarasulu/CARBON/AIRSS/Generating-Clusters/AIREBO/with-SteepDescent/Higher-Symm/SD-CG/HFTN-CG
REM
REM
REM
REM
REM
REM ./C.cell (b20cbc046b6831c77cfcea5457e17084)
REM
REM compiler GCC version 9.2.1 20190827 (Red Hat 9.2.1-1)
REM options -cpp -mtune=generic -march=x86-64 -g -O0 -fpre-include=/usr/include/finclude/math-vector-fortran.h
REM seed -113908110 891953180 -1582787253 2114744784 -515412177 1143330209 -1992868684 159699236 2004284936 1349229275 897637320 -830776238 -276994291 -2094619522 755746454 -1629133332 -1380692940 -1637112974 -1674632213 -171961578 485866393 1197538984 -645699007 1416505403 201593456 567083126 -619099552 1217766493 1708996416 -125505960 539680590 -1079142603 1227091530
REM
CELL 1.54180   50.00000   50.00000   50.00000   90.00000   90.00000   90.00000
LATT -1
SFAC C  
C      1  0.4932000000000  0.5129900000000  0.5909870000000 1.0
C      1  0.4938890000000  0.4844910000000  0.5858460000000 1.0
C      1  0.4875100000000  0.4410380000000  0.4600720000000 1.0
C      1  0.4863200000000  0.5577240000000  0.4552630000000 1.0
C      1  0.4534110000000  0.5868040000000  0.4971770000000 1.0
C      1  0.4644270000000  0.4050980000000  0.5066230000000 1.0
C      1  0.4446370000000  0.5098590000000  0.4467930000000 1.0
C      1  0.4378470000000  0.4771070000000  0.4443400000000 1.0
C      1  0.5770370000000  0.5243960000000  0.4497670000000 1.0
C      1  0.5555830000000  0.4663860000000  0.4507260000000 1.0
C      1  0.4534890000000  0.4940960000000  0.5172440000000 1.0
C      1  0.4474170000000  0.5149480000000  0.5395010000000 1.0
C      1  0.5353490000000  0.5534590000000  0.5258280000000 1.0
C      1  0.5368370000000  0.4424020000000  0.5247150000000 1.0
C      1  0.5008390000000  0.4269260000000  0.5187640000000 1.0
C      1  0.5016190000000  0.5746970000000  0.5269090000000 1.0
C      1  0.5219860000000  0.5347270000000  0.4359970000000 1.0
C      1  0.5271660000000  0.4823060000000  0.4409630000000 1.0
C      1  0.4700130000000  0.6012830000000  0.4818110000000 1.0
C      1  0.4805310000000  0.3933420000000  0.4878130000000 1.0
C      1  0.5268080000000  0.5220200000000  0.5243780000000 1.0
C      1  0.5267620000000  0.4729370000000  0.5226020000000 1.0
C      1  0.4226800000000  0.5339280000000  0.5460310000000 1.0
C      1  0.4304120000000  0.4782340000000  0.5453760000000 1.0
C      1  0.5675670000000  0.5121210000000  0.4258470000000 1.0
C      1  0.5646510000000  0.4818100000000  0.4253050000000 1.0
C      1  0.5004690000000  0.4693140000000  0.4851540000000 1.0
C      1  0.5009480000000  0.5354720000000  0.4850930000000 1.0
C      1  0.4740730000000  0.4605510000000  0.5715570000000 1.0
C      1  0.4730660000000  0.5350620000000  0.5788190000000 1.0
C      1  0.4453110000000  0.5570860000000  0.5065620000000 1.0
C      1  0.4618130000000  0.4317810000000  0.5126030000000 1.0
C      1  0.5117070000000  0.5753150000000  0.4694910000000 1.0
C      1  0.5164160000000  0.4264160000000  0.4670940000000 1.0
C      1  0.4907820000000  0.4438860000000  0.5396580000000 1.0
C      1  0.4875660000000  0.5377940000000  0.5319950000000 1.0
C      1  0.4973520000000  0.4857380000000  0.4553500000000 1.0
C      1  0.4993850000000  0.5199660000000  0.4557490000000 1.0
C      1  0.5126270000000  0.5321330000000  0.5738020000000 1.0
C      1  0.5223470000000  0.4743470000000  0.5826780000000 1.0
C      1  0.4581240000000  0.5390400000000  0.4590200000000 1.0
C      1  0.4562270000000  0.4547010000000  0.4621480000000 1.0
C      1  0.4244450000000  0.5220860000000  0.4712710000000 1.0
C      1  0.4244870000000  0.4888520000000  0.4740860000000 1.0
C      1  0.5779500000000  0.4838210000000  0.4989830000000 1.0
C      1  0.5771390000000  0.5113910000000  0.4983340000000 1.0
C      1  0.4666990000000  0.5496280000000  0.5521740000000 1.0
C      1  0.4601990000000  0.4398800000000  0.5445210000000 1.0
C      1  0.5011470000000  0.5084000000000  0.5386020000000 1.0
C      1  0.4963330000000  0.4762980000000  0.5341970000000 1.0
C      1  0.5056740000000  0.5576010000000  0.5521420000000 1.0
C      1  0.5064580000000  0.4504620000000  0.5691030000000 1.0
C      1  0.5516380000000  0.4811810000000  0.5406920000000 1.0
C      1  0.5523130000000  0.5135620000000  0.5406970000000 1.0
C      1  0.4348440000000  0.4517670000000  0.5550670000000 1.0
C      1  0.4431590000000  0.5546550000000  0.5387480000000 1.0
C      1  0.4826050000000  0.5432880000000  0.4280250000000 1.0
C      1  0.4841770000000  0.4548560000000  0.4336310000000 1.0
C      1  0.4758780000000  0.5138990000000  0.4336140000000 1.0
C      1  0.4700090000000  0.4812140000000  0.4356340000000 1.0
C      1  0.5219120000000  0.5651960000000  0.4386680000000 1.0
C      1  0.5273960000000  0.4483950000000  0.4435890000000 1.0
C      1  0.4122440000000  0.5201090000000  0.5215830000000 1.0
C      1  0.4142310000000  0.4910500000000  0.5242030000000 1.0
C      1  0.5499650000000  0.4217710000000  0.4700970000000 1.0
C      1  0.5457010000000  0.5744460000000  0.4697530000000 1.0
C      1  0.5373840000000  0.4916150000000  0.4097140000000 1.0
C      1  0.5411710000000  0.5224380000000  0.4143370000000 1.0
C      1  0.4811340000000  0.5205550000000  0.5063950000000 1.0
C      1  0.4799700000000  0.4895590000000  0.5002010000000 1.0
C      1  0.5280950000000  0.5165450000000  0.4930490000000 1.0
C      1  0.5301860000000  0.4838830000000  0.4929560000000 1.0
C      1  0.5634420000000  0.4394170000000  0.4860430000000 1.0
C      1  0.5593410000000  0.5559650000000  0.4840440000000 1.0
C      1  0.4553430000000  0.5166740000000  0.4844790000000 1.0
C      1  0.4559760000000  0.4831090000000  0.4790860000000 1.0
C      1  0.5036840000000  0.3971650000000  0.4739230000000 1.0
C      1  0.4959580000000  0.6028810000000  0.4735300000000 1.0
C      1  0.4726840000000  0.5105730000000  0.5570770000000 1.0
C      1  0.4644050000000  0.4795230000000  0.5459690000000 1.0
C      1  0.5443070000000  0.5211560000000  0.5717130000000 1.0
C      1  0.5425330000000  0.4888970000000  0.5702770000000 1.0
C      1  0.5266230000000  0.4312250000000  0.5519520000000 1.0
C      1  0.5369270000000  0.5519730000000  0.5593880000000 1.0
C      1  0.5135420000000  0.5627340000000  0.5010490000000 1.0
C      1  0.5165380000000  0.4419310000000  0.4973520000000 1.0
C      1  0.4719430000000  0.5532690000000  0.4857510000000 1.0
C      1  0.4736360000000  0.4489800000000  0.4900810000000 1.0
C      1  0.5614550000000  0.5604280000000  0.5108490000000 1.0
C      1  0.5637940000000  0.4345940000000  0.5128800000000 1.0
C      1  0.4088670000000  0.4785700000000  0.4987940000000 1.0
C      1  0.4230800000000  0.5349250000000  0.4994970000000 1.0
C      1  0.5765680000000  0.5227070000000  0.5234370000000 1.0
C      1  0.5773560000000  0.4732900000000  0.5246000000000 1.0
C      1  0.5570530000000  0.5248980000000  0.4772790000000 1.0
C      1  0.5584220000000  0.4696810000000  0.4804080000000 1.0
C      1  0.5379540000000  0.5113860000000  0.4526080000000 1.0
END
