TITL C-2622968-4806-487 0.00269536018814181 125000 -1023.2056894412 0 0 193 (C1) n - 1
REM
REM in /nfs/bkarasulu/CARBON/AIRSS/Generating-Clusters/AIREBO/with-SteepDescent/Higher-Symm/SD-CG/HFTN-CG
REM
REM
REM
REM
REM
REM ./C.cell (b20cbc046b6831c77cfcea5457e17084)
REM
REM compiler GCC version 9.2.1 20190827 (Red Hat 9.2.1-1)
REM options -cpp -mtune=generic -march=x86-64 -g -O0 -fpre-include=/usr/include/finclude/math-vector-fortran.h
REM seed 540084485 -1622344592 131445432 -665291470 -502642919 -1372397800 854167522 -1509510642 -145762397 1288230014 -1838906231 448943012 -2070239071 1197914233 153203156 -451474357 -2001866075 1498869469 -959879130 905936794 1945012215 -548436164 -1846634280 2010368784 -943759347 1495703202 1785787297 -1054984378 958205933 -1256143778 -536078469 -749680058 -23145207
REM
CELL 1.54180   50.00000   50.00000   50.00000   90.00000   90.00000   90.00000
LATT -1
SFAC C  
C      1  0.5710960000000  0.5010990000000  0.5258070000000 1.0
C      1  0.5661600000000  0.4765590000000  0.5470260000000 1.0
C      1  0.5844140000000  0.4634160000000  0.5242570000000 1.0
C      1  0.5697130000000  0.4469750000000  0.5022450000000 1.0
C      1  0.5846380000000  0.4575300000000  0.4752890000000 1.0
C      1  0.5695890000000  0.4711800000000  0.4564260000000 1.0
C      1  0.5736360000000  0.5132550000000  0.4424500000000 1.0
C      1  0.5876550000000  0.5340230000000  0.4634560000000 1.0
C      1  0.5717780000000  0.5528210000000  0.4784480000000 1.0
C      1  0.5753890000000  0.5510620000000  0.5109620000000 1.0
C      1  0.5808120000000  0.5296420000000  0.5323440000000 1.0
C      1  0.4059110000000  0.4681230000000  0.4524000000000 1.0
C      1  0.4132920000000  0.4995010000000  0.4472730000000 1.0
C      1  0.4068910000000  0.5293360000000  0.4492600000000 1.0
C      1  0.4114120000000  0.5469080000000  0.4750710000000 1.0
C      1  0.4103720000000  0.5619450000000  0.5055680000000 1.0
C      1  0.4141170000000  0.5444540000000  0.5322620000000 1.0
C      1  0.4027360000000  0.5200300000000  0.5514320000000 1.0
C      1  0.4069880000000  0.4884410000000  0.5488790000000 1.0
C      1  0.4112940000000  0.4581260000000  0.5338820000000 1.0
C      1  0.4046060000000  0.4415970000000  0.5095420000000 1.0
C      1  0.4089510000000  0.4515410000000  0.4785120000000 1.0
C      1  0.4967700000000  0.5932920000000  0.5772400000000 1.0
C      1  0.4939010000000  0.5432620000000  0.6143640000000 1.0
C      1  0.4930280000000  0.4755440000000  0.6200640000000 1.0
C      1  0.5073150000000  0.4205810000000  0.5832800000000 1.0
C      1  0.4980510000000  0.3805840000000  0.5219550000000 1.0
C      1  0.4976270000000  0.3906040000000  0.4531250000000 1.0
C      1  0.4947930000000  0.4323280000000  0.4042820000000 1.0
C      1  0.4948050000000  0.4938880000000  0.3806720000000 1.0
C      1  0.5038820000000  0.5562230000000  0.4001530000000 1.0
C      1  0.4973230000000  0.6066140000000  0.4441280000000 1.0
C      1  0.4990730000000  0.6205330000000  0.5087010000000 1.0
C      1  0.4530150000000  0.4020820000000  0.4801020000000 1.0
C      1  0.4534850000000  0.4324380000000  0.4394600000000 1.0
C      1  0.4520150000000  0.4751910000000  0.4076900000000 1.0
C      1  0.4554760000000  0.5291410000000  0.4102850000000 1.0
C      1  0.4512810000000  0.5726880000000  0.4423600000000 1.0
C      1  0.4529810000000  0.5934930000000  0.4931500000000 1.0
C      1  0.4485410000000  0.5735180000000  0.5468290000000 1.0
C      1  0.4394410000000  0.5312390000000  0.5789200000000 1.0
C      1  0.4491010000000  0.4943570000000  0.5910090000000 1.0
C      1  0.4573790000000  0.4432570000000  0.5758980000000 1.0
C      1  0.4451380000000  0.4168170000000  0.5266630000000 1.0
C      1  0.6241430000000  0.4812560000000  0.5439430000000 1.0
C      1  0.6119560000000  0.4658980000000  0.5238930000000 1.0
C      1  0.6245940000000  0.4588780000000  0.4995350000000 1.0
C      1  0.6117570000000  0.4626530000000  0.4747700000000 1.0
C      1  0.6185040000000  0.4787530000000  0.4525560000000 1.0
C      1  0.6060760000000  0.5033270000000  0.4471460000000 1.0
C      1  0.6163220000000  0.5271290000000  0.4649990000000 1.0
C      1  0.6304930000000  0.5340190000000  0.4877640000000 1.0
C      1  0.6255830000000  0.5380120000000  0.5142240000000 1.0
C      1  0.6108360000000  0.5284100000000  0.5359680000000 1.0
C      1  0.6214160000000  0.5075090000000  0.5511560000000 1.0
C      1  0.5219080000000  0.4368560000000  0.4351930000000 1.0
C      1  0.5266360000000  0.4801850000000  0.4122170000000 1.0
C      1  0.5254110000000  0.5229430000000  0.4091910000000 1.0
C      1  0.5219940000000  0.5736990000000  0.4473450000000 1.0
C      1  0.5271830000000  0.5922450000000  0.4913560000000 1.0
C      1  0.5153420000000  0.5866810000000  0.5418690000000 1.0
C      1  0.5220010000000  0.5422290000000  0.5816240000000 1.0
C      1  0.5241240000000  0.4979650000000  0.5948280000000 1.0
C      1  0.5255540000000  0.4562280000000  0.5818520000000 1.0
C      1  0.5214270000000  0.4146680000000  0.5306930000000 1.0
C      1  0.5242900000000  0.4123400000000  0.4806600000000 1.0
C      1  0.5455280000000  0.4430990000000  0.4115370000000 1.0
C      1  0.5497580000000  0.4960220000000  0.3929540000000 1.0
C      1  0.5542250000000  0.5541490000000  0.4112940000000 1.0
C      1  0.5461180000000  0.5962950000000  0.4553600000000 1.0
C      1  0.5491350000000  0.6091180000000  0.5111000000000 1.0
C      1  0.5430140000000  0.5749650000000  0.5578090000000 1.0
C      1  0.5446970000000  0.5373170000000  0.6064750000000 1.0
C      1  0.5478250000000  0.4769760000000  0.6072460000000 1.0
C      1  0.5571550000000  0.4264280000000  0.5705660000000 1.0
C      1  0.5461990000000  0.3941850000000  0.5195660000000 1.0
C      1  0.5474000000000  0.4015120000000  0.4581830000000 1.0
C      1  0.4372270000000  0.5531330000000  0.4206770000000 1.0
C      1  0.4362530000000  0.5911410000000  0.4636420000000 1.0
C      1  0.4532180000000  0.6003390000000  0.5264630000000 1.0
C      1  0.4525480000000  0.5591640000000  0.5773890000000 1.0
C      1  0.4252960000000  0.5130430000000  0.6029810000000 1.0
C      1  0.4369000000000  0.4657680000000  0.5853220000000 1.0
C      1  0.4556950000000  0.4161150000000  0.5561360000000 1.0
C      1  0.4387050000000  0.3965460000000  0.5026490000000 1.0
C      1  0.4391160000000  0.4131250000000  0.4591130000000 1.0
C      1  0.4364350000000  0.4497720000000  0.4198000000000 1.0
C      1  0.4419600000000  0.5054320000000  0.3968040000000 1.0
C      1  0.5631240000000  0.4504930000000  0.5938880000000 1.0
C      1  0.5590330000000  0.4019220000000  0.5487470000000 1.0
C      1  0.5559340000000  0.3891580000000  0.4878240000000 1.0
C      1  0.5551200000000  0.4157100000000  0.4290360000000 1.0
C      1  0.5621140000000  0.4662750000000  0.3984660000000 1.0
C      1  0.5622370000000  0.5260280000000  0.3939320000000 1.0
C      1  0.5577300000000  0.5825670000000  0.4275120000000 1.0
C      1  0.5617620000000  0.6089460000000  0.4804870000000 1.0
C      1  0.5602420000000  0.5985450000000  0.5403520000000 1.0
C      1  0.5553200000000  0.5635000000000  0.5873780000000 1.0
C      1  0.5575530000000  0.5081730000000  0.6140690000000 1.0
C      1  0.5180530000000  0.4516520000000  0.4787940000000 1.0
C      1  0.5191450000000  0.4720990000000  0.4538890000000 1.0
C      1  0.5227620000000  0.5016130000000  0.4455000000000 1.0
C      1  0.5200260000000  0.5331880000000  0.4476520000000 1.0
C      1  0.5207890000000  0.5452410000000  0.4760080000000 1.0
C      1  0.5246450000000  0.5550430000000  0.5057950000000 1.0
C      1  0.5202320000000  0.5475870000000  0.5365000000000 1.0
C      1  0.5249190000000  0.5181550000000  0.5474930000000 1.0
C      1  0.5224900000000  0.4843050000000  0.5484120000000 1.0
C      1  0.5165750000000  0.4528300000000  0.5414590000000 1.0
C      1  0.5197870000000  0.4493070000000  0.5109220000000 1.0
C      1  0.4467350000000  0.5492240000000  0.5238560000000 1.0
C      1  0.4496980000000  0.5257520000000  0.5482860000000 1.0
C      1  0.4384150000000  0.4967170000000  0.5589280000000 1.0
C      1  0.4417090000000  0.4697590000000  0.5436620000000 1.0
C      1  0.4488490000000  0.4480560000000  0.5184720000000 1.0
C      1  0.4394680000000  0.4410830000000  0.4892740000000 1.0
C      1  0.4445070000000  0.4570320000000  0.4611530000000 1.0
C      1  0.4451370000000  0.4880420000000  0.4506390000000 1.0
C      1  0.4468780000000  0.5200650000000  0.4408770000000 1.0
C      1  0.4429830000000  0.5465100000000  0.4624230000000 1.0
C      1  0.4480360000000  0.5599500000000  0.4923320000000 1.0
C      1  0.4234880000000  0.5878410000000  0.5091090000000 1.0
C      1  0.4208780000000  0.5614530000000  0.5610430000000 1.0
C      1  0.4069740000000  0.5267680000000  0.5796770000000 1.0
C      1  0.4109770000000  0.4685160000000  0.5753520000000 1.0
C      1  0.4304870000000  0.4399220000000  0.5554910000000 1.0
C      1  0.4145780000000  0.4149540000000  0.5130160000000 1.0
C      1  0.4137670000000  0.4214330000000  0.4651480000000 1.0
C      1  0.4110170000000  0.4538100000000  0.4292840000000 1.0
C      1  0.4229830000000  0.4901260000000  0.4176330000000 1.0
C      1  0.4119580000000  0.5445130000000  0.4268880000000 1.0
C      1  0.4106460000000  0.5798100000000  0.4684600000000 1.0
C      1  0.4828400000000  0.4291580000000  0.4359950000000 1.0
C      1  0.4824930000000  0.4761140000000  0.4065610000000 1.0
C      1  0.4854840000000  0.5302040000000  0.4092870000000 1.0
C      1  0.4817370000000  0.5766130000000  0.4404220000000 1.0
C      1  0.4835860000000  0.5981330000000  0.4901180000000 1.0
C      1  0.4765250000000  0.5915440000000  0.5504960000000 1.0
C      1  0.4838210000000  0.5535690000000  0.5835210000000 1.0
C      1  0.4780810000000  0.4974770000000  0.5986100000000 1.0
C      1  0.4866680000000  0.4472370000000  0.5834930000000 1.0
C      1  0.4832060000000  0.4062280000000  0.5386830000000 1.0
C      1  0.4830580000000  0.4010000000000  0.4820550000000 1.0
C      1  0.5236720000000  0.5641140000000  0.4178160000000 1.0
C      1  0.5174620000000  0.6097290000000  0.4636350000000 1.0
C      1  0.5199960000000  0.6126370000000  0.5249000000000 1.0
C      1  0.5180510000000  0.5759960000000  0.5808810000000 1.0
C      1  0.5151880000000  0.5234540000000  0.6157630000000 1.0
C      1  0.5171820000000  0.4638240000000  0.6139190000000 1.0
C      1  0.5253870000000  0.4187510000000  0.5621980000000 1.0
C      1  0.5189570000000  0.3867220000000  0.5025420000000 1.0
C      1  0.5187370000000  0.4054430000000  0.4419150000000 1.0
C      1  0.5157150000000  0.4508350000000  0.3987210000000 1.0
C      1  0.5188440000000  0.5058680000000  0.3827860000000 1.0
C      1  0.4966570000000  0.5763550000000  0.4699280000000 1.0
C      1  0.5025550000000  0.5793700000000  0.5112060000000 1.0
C      1  0.4939340000000  0.5623690000000  0.5522390000000 1.0
C      1  0.4949630000000  0.5215110000000  0.5814300000000 1.0
C      1  0.4999950000000  0.4784250000000  0.5809210000000 1.0
C      1  0.4902230000000  0.4368950000000  0.5513720000000 1.0
C      1  0.4952180000000  0.4178790000000  0.5090820000000 1.0
C      1  0.4971720000000  0.4279780000000  0.4669150000000 1.0
C      1  0.4969310000000  0.4599400000000  0.4328120000000 1.0
C      1  0.5009500000000  0.5016370000000  0.4194060000000 1.0
C      1  0.4935670000000  0.5449320000000  0.4368830000000 1.0
C      1  0.4786970000000  0.5085360000000  0.4441980000000 1.0
C      1  0.4755870000000  0.5368670000000  0.4627420000000 1.0
C      1  0.4899440000000  0.5505580000000  0.4865220000000 1.0
C      1  0.4796050000000  0.5546670000000  0.5159310000000 1.0
C      1  0.4787890000000  0.5338400000000  0.5416230000000 1.0
C      1  0.4945960000000  0.5120620000000  0.5527580000000 1.0
C      1  0.4891310000000  0.4809320000000  0.5487980000000 1.0
C      1  0.4779110000000  0.4585180000000  0.5317500000000 1.0
C      1  0.4867460000000  0.4473550000000  0.5031410000000 1.0
C      1  0.4751240000000  0.4524980000000  0.4752450000000 1.0
C      1  0.4774440000000  0.4773860000000  0.4532050000000 1.0
C      1  0.5459590000000  0.4923570000000  0.5693660000000 1.0
C      1  0.5461640000000  0.4539570000000  0.5580230000000 1.0
C      1  0.5462310000000  0.4322560000000  0.5164750000000 1.0
C      1  0.5483290000000  0.4362160000000  0.4776330000000 1.0
C      1  0.5454750000000  0.4530400000000  0.4501670000000 1.0
C      1  0.5513090000000  0.4890040000000  0.4339090000000 1.0
C      1  0.5483340000000  0.5287520000000  0.4311190000000 1.0
C      1  0.5464630000000  0.5588810000000  0.4631340000000 1.0
C      1  0.5519290000000  0.5708160000000  0.5005780000000 1.0
C      1  0.5536340000000  0.5456180000000  0.5443090000000 1.0
C      1  0.5484870000000  0.5249180000000  0.5691540000000 1.0
C      1  0.4518660000000  0.5001820000000  0.5006030000000 1.0
C      1  0.5579250000000  0.4986160000000  0.5024690000000 1.0
C      1  0.4258130000000  0.5013530000000  0.4998050000000 1.0
C      1  0.5315960000000  0.5010110000000  0.4984450000000 1.0
C      1  0.5048790000000  0.4999050000000  0.4983890000000 1.0
C      1  0.4783500000000  0.5011490000000  0.5001670000000 1.0
END
