TITL C-2622965-4321-715 0.00144953029666103 125000 -465.041944474693 0 0 86 (C1) n - 1
REM
REM in /nfs/bkarasulu/CARBON/AIRSS/Generating-Clusters/AIREBO/with-SteepDescent/Higher-Symm/SD-CG/HFTN-CG
REM
REM
REM
REM
REM
REM ./C.cell (b20cbc046b6831c77cfcea5457e17084)
REM
REM compiler GCC version 9.2.1 20190827 (Red Hat 9.2.1-1)
REM options -cpp -mtune=generic -march=x86-64 -g -O0 -fpre-include=/usr/include/finclude/math-vector-fortran.h
REM seed 226324507 -1162158604 -1868010065 657189679 -1225685285 1586362884 713732648 1254707124 -1035735801 1258556208 755831667 -54975470 -1899624499 200131233 1108472109 1668588601 1011412895 19570895 1667097008 354478274 -499676803 1577952149 -526878525 -2075716667 316895645 -514186582 726502785 -27044689 746717239 -435094390 -875795748 -1970433991 -997086838
REM
CELL 1.54180   50.00000   50.00000   50.00000   90.00000   90.00000   90.00000
LATT -1
SFAC C  
C      1  0.5003390000000  0.5341560000000  0.5293840000000 1.0
C      1  0.5507600000000  0.5649550000000  0.4716570000000 1.0
C      1  0.4739440000000  0.4225900000000  0.4807030000000 1.0
C      1  0.4386020000000  0.4848090000000  0.5227940000000 1.0
C      1  0.5120000000000  0.5332980000000  0.5816870000000 1.0
C      1  0.5436950000000  0.5553980000000  0.5411110000000 1.0
C      1  0.5008010000000  0.4178040000000  0.4941830000000 1.0
C      1  0.5580320000000  0.3814430000000  0.4173950000000 1.0
C      1  0.4271300000000  0.5063310000000  0.5446430000000 1.0
C      1  0.5001850000000  0.5800920000000  0.5273150000000 1.0
C      1  0.4731100000000  0.5343870000000  0.5290540000000 1.0
C      1  0.5583440000000  0.4635930000000  0.4312650000000 1.0
C      1  0.4433620000000  0.5373090000000  0.4830400000000 1.0
C      1  0.4415540000000  0.5764040000000  0.5301100000000 1.0
C      1  0.4773380000000  0.4883700000000  0.4825140000000 1.0
C      1  0.4943970000000  0.4567900000000  0.5163460000000 1.0
C      1  0.4983780000000  0.4476050000000  0.4180770000000 1.0
C      1  0.4678930000000  0.4758870000000  0.5732610000000 1.0
C      1  0.4180000000000  0.5376740000000  0.5041220000000 1.0
C      1  0.4813130000000  0.4717660000000  0.6011990000000 1.0
C      1  0.4246890000000  0.4882360000000  0.4946120000000 1.0
C      1  0.4401800000000  0.4579330000000  0.5308910000000 1.0
C      1  0.4117150000000  0.5124660000000  0.5147020000000 1.0
C      1  0.5002660000000  0.4928330000000  0.4621180000000 1.0
C      1  0.5309820000000  0.4928680000000  0.4716430000000 1.0
C      1  0.5069950000000  0.5044940000000  0.4019620000000 1.0
C      1  0.4717410000000  0.4456310000000  0.4161130000000 1.0
C      1  0.5072750000000  0.5569390000000  0.4494740000000 1.0
C      1  0.4444400000000  0.4887970000000  0.5684950000000 1.0
C      1  0.5015450000000  0.4506260000000  0.4864950000000 1.0
C      1  0.5298720000000  0.4510180000000  0.4175550000000 1.0
C      1  0.5398280000000  0.5628030000000  0.5100560000000 1.0
C      1  0.5137790000000  0.5815890000000  0.4991110000000 1.0
C      1  0.5468350000000  0.5387470000000  0.4904950000000 1.0
C      1  0.5733600000000  0.5254130000000  0.4989250000000 1.0
C      1  0.4683960000000  0.5173330000000  0.4933510000000 1.0
C      1  0.5015790000000  0.4685820000000  0.5740840000000 1.0
C      1  0.5230330000000  0.5191260000000  0.4888490000000 1.0
C      1  0.5486300000000  0.4039260000000  0.4270410000000 1.0
C      1  0.5288440000000  0.4844330000000  0.4187870000000 1.0
C      1  0.5265230000000  0.4698500000000  0.5509830000000 1.0
C      1  0.4478590000000  0.4553860000000  0.4248680000000 1.0
C      1  0.4367200000000  0.4616200000000  0.4769770000000 1.0
C      1  0.5215500000000  0.4280220000000  0.5127280000000 1.0
C      1  0.4600580000000  0.4432880000000  0.5170600000000 1.0
C      1  0.4855770000000  0.4982520000000  0.5401900000000 1.0
C      1  0.4962530000000  0.5666570000000  0.4779330000000 1.0
C      1  0.4947720000000  0.5387010000000  0.4372720000000 1.0
C      1  0.5379930000000  0.5861260000000  0.4777440000000 1.0
C      1  0.4358070000000  0.4679600000000  0.4459070000000 1.0
C      1  0.5056650000000  0.4803180000000  0.5282370000000 1.0
C      1  0.4782270000000  0.5176130000000  0.4546110000000 1.0
C      1  0.4956080000000  0.5327040000000  0.4796480000000 1.0
C      1  0.5362240000000  0.5292600000000  0.5615380000000 1.0
C      1  0.5674900000000  0.4433180000000  0.5312190000000 1.0
C      1  0.5880410000000  0.5317220000000  0.4415920000000 1.0
C      1  0.4731810000000  0.5788750000000  0.5289500000000 1.0
C      1  0.5305380000000  0.4540090000000  0.4806360000000 1.0
C      1  0.5160110000000  0.5109850000000  0.5178050000000 1.0
C      1  0.4605650000000  0.5064730000000  0.5227220000000 1.0
C      1  0.4679420000000  0.4559130000000  0.4864840000000 1.0
C      1  0.5792350000000  0.5149520000000  0.5287350000000 1.0
C      1  0.4852590000000  0.5388700000000  0.5850890000000 1.0
C      1  0.4686430000000  0.5798320000000  0.4726880000000 1.0
C      1  0.5391400000000  0.4535790000000  0.5239040000000 1.0
C      1  0.5123160000000  0.5569990000000  0.5382660000000 1.0
C      1  0.5691350000000  0.5145930000000  0.4424570000000 1.0
C      1  0.4402320000000  0.5198500000000  0.5729600000000 1.0
C      1  0.5273200000000  0.4518830000000  0.5865950000000 1.0
C      1  0.4850410000000  0.4301910000000  0.5319120000000 1.0
C      1  0.4306080000000  0.4952850000000  0.4617020000000 1.0
C      1  0.4593610000000  0.5544330000000  0.5474080000000 1.0
C      1  0.5482990000000  0.4927850000000  0.4455310000000 1.0
C      1  0.5677260000000  0.5344380000000  0.5493460000000 1.0
C      1  0.5416390000000  0.4374140000000  0.4631290000000 1.0
C      1  0.5424230000000  0.4770880000000  0.4995180000000 1.0
C      1  0.5546430000000  0.4969810000000  0.5199110000000 1.0
C      1  0.5002720000000  0.4941940000000  0.4312680000000 1.0
C      1  0.4460980000000  0.5694840000000  0.4820260000000 1.0
C      1  0.4481930000000  0.5178500000000  0.4590790000000 1.0
C      1  0.5345950000000  0.5023740000000  0.5446430000000 1.0
C      1  0.5413010000000  0.4283920000000  0.4368060000000 1.0
C      1  0.6037090000000  0.5033190000000  0.5347800000000 1.0
C      1  0.5505440000000  0.4576640000000  0.5725140000000 1.0
C      1  0.4592820000000  0.5399810000000  0.5732200000000 1.0
C      1  0.4292210000000  0.5660610000000  0.5067880000000 1.0
END
