TITL C-2622958-629-351 -0.00136422803810383 125000 -920.477313883742 0 0 177 (C1) n - 1
REM
REM in /nfs/bkarasulu/CARBON/AIRSS/Generating-Clusters/AIREBO/with-SteepDescent/Higher-Symm/SD-CG/HFTN-CG
REM
REM
REM
REM
REM
REM ./C.cell (b20cbc046b6831c77cfcea5457e17084)
REM
REM compiler GCC version 9.2.1 20190827 (Red Hat 9.2.1-1)
REM options -cpp -mtune=generic -march=x86-64 -g -O0 -fpre-include=/usr/include/finclude/math-vector-fortran.h
REM seed 1524859818 -1262369555 -1646904474 869037363 -1430827290 -1178726404 512298751 -1687893366 -703013871 2060445961 -1087226020 648264844 -194296578 1975192209 -68079494 -1117715263 1571462535 -499691595 -994555065 -770914264 831348979 -148436640 1543627259 -274580567 2095049081 1331110320 1722250587 -2127857785 1840247601 1169171868 2002946070 1704758900 -683332156
REM
CELL 1.54180   50.00000   50.00000   50.00000   90.00000   90.00000   90.00000
LATT -1
SFAC C  
C      1  0.4813690000000  0.4144180000000  0.5512800000000 1.0
C      1  0.5466160000000  0.4850740000000  0.4107190000000 1.0
C      1  0.4056440000000  0.5557270000000  0.4842240000000 1.0
C      1  0.5148330000000  0.4190300000000  0.4452310000000 1.0
C      1  0.4844730000000  0.5875460000000  0.4538820000000 1.0
C      1  0.5153740000000  0.5905990000000  0.5518860000000 1.0
C      1  0.4421580000000  0.4813250000000  0.5950800000000 1.0
C      1  0.5506470000000  0.5144400000000  0.5871460000000 1.0
C      1  0.4439170000000  0.5179830000000  0.4037150000000 1.0
C      1  0.5863400000000  0.5532660000000  0.5113760000000 1.0
C      1  0.4142010000000  0.4514560000000  0.5151480000000 1.0
C      1  0.5835670000000  0.4434170000000  0.4850170000000 1.0
C      1  0.4848520000000  0.5857990000000  0.5498620000000 1.0
C      1  0.5556870000000  0.5149340000000  0.4033340000000 1.0
C      1  0.4062350000000  0.4468060000000  0.4839360000000 1.0
C      1  0.5168740000000  0.5837040000000  0.4522720000000 1.0
C      1  0.4849700000000  0.4155220000000  0.4464330000000 1.0
C      1  0.5130660000000  0.4136630000000  0.5576090000000 1.0
C      1  0.4471550000000  0.5131760000000  0.5878350000000 1.0
C      1  0.5554940000000  0.4836360000000  0.5965130000000 1.0
C      1  0.4521220000000  0.4849090000000  0.4046940000000 1.0
C      1  0.5854980000000  0.4465310000000  0.5169400000000 1.0
C      1  0.4091140000000  0.5463340000000  0.5167490000000 1.0
C      1  0.5949330000000  0.5531550000000  0.4796020000000 1.0
C      1  0.5161040000000  0.4450380000000  0.5139560000000 1.0
C      1  0.5334040000000  0.5013970000000  0.4612330000000 1.0
C      1  0.4495580000000  0.5122630000000  0.5210220000000 1.0
C      1  0.4849540000000  0.4513900000000  0.4690540000000 1.0
C      1  0.5167250000000  0.5519280000000  0.4904830000000 1.0
C      1  0.4754540000000  0.5342520000000  0.5196090000000 1.0
C      1  0.4873190000000  0.5123110000000  0.5428230000000 1.0
C      1  0.5305790000000  0.4952160000000  0.5225000000000 1.0
C      1  0.4837980000000  0.4851840000000  0.4653650000000 1.0
C      1  0.5580420000000  0.5118200000000  0.4822380000000 1.0
C      1  0.4566350000000  0.4877820000000  0.4865390000000 1.0
C      1  0.5600700000000  0.4861670000000  0.5145410000000 1.0
C      1  0.5228710000000  0.5611870000000  0.5214080000000 1.0
C      1  0.5111450000000  0.4813730000000  0.4451120000000 1.0
C      1  0.4676960000000  0.4835890000000  0.5184230000000 1.0
C      1  0.4853550000000  0.5475180000000  0.4898630000000 1.0
C      1  0.5159240000000  0.4449160000000  0.4819920000000 1.0
C      1  0.4878020000000  0.4584200000000  0.5211490000000 1.0
C      1  0.4770120000000  0.4883320000000  0.5628340000000 1.0
C      1  0.5192190000000  0.5156410000000  0.5429070000000 1.0
C      1  0.4750640000000  0.5125740000000  0.4468580000000 1.0
C      1  0.5648110000000  0.4785160000000  0.4833090000000 1.0
C      1  0.4434320000000  0.5190720000000  0.4882790000000 1.0
C      1  0.5647530000000  0.5198430000000  0.5147290000000 1.0
C      1  0.4866670000000  0.4904450000000  0.6224530000000 1.0
C      1  0.6227880000000  0.4838120000000  0.4876800000000 1.0
C      1  0.4870360000000  0.6086460000000  0.4875330000000 1.0
C      1  0.5143430000000  0.4875670000000  0.3781380000000 1.0
C      1  0.4850010000000  0.5138020000000  0.3814370000000 1.0
C      1  0.5147160000000  0.5180610000000  0.6269090000000 1.0
C      1  0.3721490000000  0.4813620000000  0.5144100000000 1.0
C      1  0.6224530000000  0.5138200000000  0.5138370000000 1.0
C      1  0.3894400000000  0.5074980000000  0.4913760000000 1.0
C      1  0.5134780000000  0.6240250000000  0.5127880000000 1.0
C      1  0.4858170000000  0.3972230000000  0.5081750000000 1.0
C      1  0.5152950000000  0.3883320000000  0.4829790000000 1.0
C      1  0.4831550000000  0.5197180000000  0.6270620000000 1.0
C      1  0.6214770000000  0.5138780000000  0.4834410000000 1.0
C      1  0.4859680000000  0.3890470000000  0.4763560000000 1.0
C      1  0.5146550000000  0.5181820000000  0.3719290000000 1.0
C      1  0.4840910000000  0.4842860000000  0.3663990000000 1.0
C      1  0.5157590000000  0.4862700000000  0.6296890000000 1.0
C      1  0.3809940000000  0.5132700000000  0.5208940000000 1.0
C      1  0.6206810000000  0.4839270000000  0.5178120000000 1.0
C      1  0.3918040000000  0.4767480000000  0.4868760000000 1.0
C      1  0.5155120000000  0.3857880000000  0.5128210000000 1.0
C      1  0.4821180000000  0.6245870000000  0.5127600000000 1.0
C      1  0.5163540000000  0.6098760000000  0.4840150000000 1.0
C      1  0.4109900000000  0.5077300000000  0.5546880000000 1.0
C      1  0.5483800000000  0.4077130000000  0.5214310000000 1.0
C      1  0.5171210000000  0.5532010000000  0.4101800000000 1.0
C      1  0.5973280000000  0.5129220000000  0.4429130000000 1.0
C      1  0.4162660000000  0.4859460000000  0.4514970000000 1.0
C      1  0.5805820000000  0.4857230000000  0.5511190000000 1.0
C      1  0.4445690000000  0.4067890000000  0.4811610000000 1.0
C      1  0.5621210000000  0.5859580000000  0.4827130000000 1.0
C      1  0.4403700000000  0.5955950000000  0.5190250000000 1.0
C      1  0.4835460000000  0.5493150000000  0.5826400000000 1.0
C      1  0.5154310000000  0.4434800000000  0.6000340000000 1.0
C      1  0.4898090000000  0.4511290000000  0.4118530000000 1.0
C      1  0.4098310000000  0.4751770000000  0.5577400000000 1.0
C      1  0.5542560000000  0.5848410000000  0.5151100000000 1.0
C      1  0.5178220000000  0.4443530000000  0.4131380000000 1.0
C      1  0.5913940000000  0.4803310000000  0.4466920000000 1.0
C      1  0.4164130000000  0.5184040000000  0.4490950000000 1.0
C      1  0.5822070000000  0.5188150000000  0.5505750000000 1.0
C      1  0.4451390000000  0.5834200000000  0.4881190000000 1.0
C      1  0.5543060000000  0.4154400000000  0.4948510000000 1.0
C      1  0.4485160000000  0.4136320000000  0.5117380000000 1.0
C      1  0.4833930000000  0.4490730000000  0.5932990000000 1.0
C      1  0.5140740000000  0.5456760000000  0.5787500000000 1.0
C      1  0.4849680000000  0.5493070000000  0.4135190000000 1.0
C      1  0.5041110000000  0.4412380000000  0.5694280000000 1.0
C      1  0.5508570000000  0.5126610000000  0.4367980000000 1.0
C      1  0.4359810000000  0.5643500000000  0.5218640000000 1.0
C      1  0.4750130000000  0.4449510000000  0.4371750000000 1.0
C      1  0.5037910000000  0.5565580000000  0.4398130000000 1.0
C      1  0.4778260000000  0.5525710000000  0.5481570000000 1.0
C      1  0.4434940000000  0.5147760000000  0.5543830000000 1.0
C      1  0.5524500000000  0.4817070000000  0.5644250000000 1.0
C      1  0.4427090000000  0.4760520000000  0.4354160000000 1.0
C      1  0.5456310000000  0.5426750000000  0.4751330000000 1.0
C      1  0.4603710000000  0.4544890000000  0.4923500000000 1.0
C      1  0.5453750000000  0.4566050000000  0.5226970000000 1.0
C      1  0.5110530000000  0.5461010000000  0.5449290000000 1.0
C      1  0.5605590000000  0.4801730000000  0.4397050000000 1.0
C      1  0.4438220000000  0.4457840000000  0.5183780000000 1.0
C      1  0.4782520000000  0.5437210000000  0.4567260000000 1.0
C      1  0.5227580000000  0.4520390000000  0.4433080000000 1.0
C      1  0.4836780000000  0.4581960000000  0.5523250000000 1.0
C      1  0.4432340000000  0.4813610000000  0.5606750000000 1.0
C      1  0.5490360000000  0.5118060000000  0.5538630000000 1.0
C      1  0.4448420000000  0.5087020000000  0.4358300000000 1.0
C      1  0.5497410000000  0.4482930000000  0.4873360000000 1.0
C      1  0.4386420000000  0.5505960000000  0.4909010000000 1.0
C      1  0.5525590000000  0.5515010000000  0.5079400000000 1.0
C      1  0.5887800000000  0.4461910000000  0.4515170000000 1.0
C      1  0.4527280000000  0.5902360000000  0.4555630000000 1.0
C      1  0.4525130000000  0.4501160000000  0.5857810000000 1.0
C      1  0.4005250000000  0.4473840000000  0.5447050000000 1.0
C      1  0.5804410000000  0.5523460000000  0.5452220000000 1.0
C      1  0.4218060000000  0.5503120000000  0.4547660000000 1.0
C      1  0.5487280000000  0.5857290000000  0.5487510000000 1.0
C      1  0.4505640000000  0.4159800000000  0.5456000000000 1.0
C      1  0.5464130000000  0.4200760000000  0.4390870000000 1.0
C      1  0.5376390000000  0.4561030000000  0.3980110000000 1.0
C      1  0.4526610000000  0.5485730000000  0.4161220000000 1.0
C      1  0.5480100000000  0.5476390000000  0.5794550000000 1.0
C      1  0.5896030000000  0.5458280000000  0.4468310000000 1.0
C      1  0.4499510000000  0.4122500000000  0.4480360000000 1.0
C      1  0.4492150000000  0.5472530000000  0.5835710000000 1.0
C      1  0.4135210000000  0.5408970000000  0.5500950000000 1.0
C      1  0.5865670000000  0.4505830000000  0.5506880000000 1.0
C      1  0.4137560000000  0.4517370000000  0.4516700000000 1.0
C      1  0.5460900000000  0.4175740000000  0.5519980000000 1.0
C      1  0.4501390000000  0.5884800000000  0.5520330000000 1.0
C      1  0.5506320000000  0.5790730000000  0.4515390000000 1.0
C      1  0.5491020000000  0.5457630000000  0.4157640000000 1.0
C      1  0.4374240000000  0.4549630000000  0.4024310000000 1.0
C      1  0.5467210000000  0.4506750000000  0.5885740000000 1.0
C      1  0.4116700000000  0.5228380000000  0.4808930000000 1.0
C      1  0.4788220000000  0.4265900000000  0.5201500000000 1.0
C      1  0.5126580000000  0.4839250000000  0.4119470000000 1.0
C      1  0.5973480000000  0.5250420000000  0.5228930000000 1.0
C      1  0.4042820000000  0.4811160000000  0.5245620000000 1.0
C      1  0.5977890000000  0.4729090000000  0.4772270000000 1.0
C      1  0.5291350000000  0.4144810000000  0.4745500000000 1.0
C      1  0.4765030000000  0.5782250000000  0.4847060000000 1.0
C      1  0.5232000000000  0.5951850000000  0.5205310000000 1.0
C      1  0.4761340000000  0.4804580000000  0.5960340000000 1.0
C      1  0.5280510000000  0.5306060000000  0.6052250000000 1.0
C      1  0.4762150000000  0.5172860000000  0.4127990000000 1.0
C      1  0.4253140000000  0.4756440000000  0.4812050000000 1.0
C      1  0.4684190000000  0.6069450000000  0.5307890000000 1.0
C      1  0.5306590000000  0.5311800000000  0.3914500000000 1.0
C      1  0.5917920000000  0.4773730000000  0.5230790000000 1.0
C      1  0.4151190000000  0.5131890000000  0.5213810000000 1.0
C      1  0.5904650000000  0.5196900000000  0.4755190000000 1.0
C      1  0.5287450000000  0.5817490000000  0.4833430000000 1.0
C      1  0.4746040000000  0.4201230000000  0.4777820000000 1.0
C      1  0.5167170000000  0.4154660000000  0.5257770000000 1.0
C      1  0.4681240000000  0.5315380000000  0.6059250000000 1.0
C      1  0.5294100000000  0.4708240000000  0.6098010000000 1.0
C      1  0.4817880000000  0.4779990000000  0.3987920000000 1.0
C      1  0.4495140000000  0.5589610000000  0.4461830000000 1.0
C      1  0.5550300000000  0.4497050000000  0.4537540000000 1.0
C      1  0.4508350000000  0.4494130000000  0.5518230000000 1.0
C      1  0.5530020000000  0.4489900000000  0.5551770000000 1.0
C      1  0.5583520000000  0.5493360000000  0.4442290000000 1.0
C      1  0.4442930000000  0.5550030000000  0.5533480000000 1.0
C      1  0.5622050000000  0.5649110000000  0.5614190000000 1.0
C      1  0.4413100000000  0.4421000000000  0.4342330000000 1.0
C      1  0.5092260000000  0.4975250000000  0.4814500000000 1.0
END
