TITL C-2622963-3633-623 0.00343314453900016 125000 -659.322227181689 0 0 114 (C1) n - 1
REM
REM in /nfs/bkarasulu/CARBON/AIRSS/Generating-Clusters/AIREBO/with-SteepDescent/Higher-Symm/SD-CG/HFTN-CG
REM
REM
REM
REM
REM
REM ./C.cell (b20cbc046b6831c77cfcea5457e17084)
REM
REM compiler GCC version 9.2.1 20190827 (Red Hat 9.2.1-1)
REM options -cpp -mtune=generic -march=x86-64 -g -O0 -fpre-include=/usr/include/finclude/math-vector-fortran.h
REM seed -1507045450 136578765 224728257 -1741408781 -1594410700 542352806 -1277183932 -103285518 -1903449853 -260262296 -1769207538 951049266 -648169881 1293671846 -354982989 2056728573 691797945 -1867155586 603508896 1702291851 -1184430917 294327751 1348125303 -1249049903 1047752334 1921773654 -1730601382 -1728796795 520332696 1508062213 1852860601 -903615882 1491858146
REM
CELL 1.54180   50.00000   50.00000   50.00000   90.00000   90.00000   90.00000
LATT -1
SFAC C  
C      1  0.5494410000000  0.4845720000000  0.5320740000000 1.0
C      1  0.4910370000000  0.5313300000000  0.5459650000000 1.0
C      1  0.5366500000000  0.5529630000000  0.4926000000000 1.0
C      1  0.4462320000000  0.4895560000000  0.4701740000000 1.0
C      1  0.4445450000000  0.4980530000000  0.5405860000000 1.0
C      1  0.5542120000000  0.4979460000000  0.4659430000000 1.0
C      1  0.5091840000000  0.5338590000000  0.4524370000000 1.0
C      1  0.5079300000000  0.4692370000000  0.5669360000000 1.0
C      1  0.5040340000000  0.4595360000000  0.4309500000000 1.0
C      1  0.4641370000000  0.5584260000000  0.5132580000000 1.0
C      1  0.4713660000000  0.4394360000000  0.5032460000000 1.0
C      1  0.5283620000000  0.4370940000000  0.4938920000000 1.0
C      1  0.5279010000000  0.4934610000000  0.5537030000000 1.0
C      1  0.5629310000000  0.5405740000000  0.5023860000000 1.0
C      1  0.4964710000000  0.5521610000000  0.5217030000000 1.0
C      1  0.4642380000000  0.4989540000000  0.4477270000000 1.0
C      1  0.5283360000000  0.5063210000000  0.4468600000000 1.0
C      1  0.4686600000000  0.5087620000000  0.5569790000000 1.0
C      1  0.4401250000000  0.5383350000000  0.4997850000000 1.0
C      1  0.5473670000000  0.4630460000000  0.5049060000000 1.0
C      1  0.4533550000000  0.4672120000000  0.4948920000000 1.0
C      1  0.4928740000000  0.5562430000000  0.4722510000000 1.0
C      1  0.4952700000000  0.4501070000000  0.4583100000000 1.0
C      1  0.5100800000000  0.4486440000000  0.5404500000000 1.0
C      1  0.5585580000000  0.4971020000000  0.5802250000000 1.0
C      1  0.4963670000000  0.5827870000000  0.5493570000000 1.0
C      1  0.5864450000000  0.5706370000000  0.4917100000000 1.0
C      1  0.4375940000000  0.4983720000000  0.4183450000000 1.0
C      1  0.4413140000000  0.4984460000000  0.5841440000000 1.0
C      1  0.5648020000000  0.5012500000000  0.4166370000000 1.0
C      1  0.5025120000000  0.5839290000000  0.4451770000000 1.0
C      1  0.5029090000000  0.4152160000000  0.5611040000000 1.0
C      1  0.5034190000000  0.4187770000000  0.4351070000000 1.0
C      1  0.4159630000000  0.5683030000000  0.5103970000000 1.0
C      1  0.4248300000000  0.4414700000000  0.5059590000000 1.0
C      1  0.5788170000000  0.4391840000000  0.4972290000000 1.0
C      1  0.5833340000000  0.4983980000000  0.5613720000000 1.0
C      1  0.5620400000000  0.5814830000000  0.5040090000000 1.0
C      1  0.5006850000000  0.5615370000000  0.5702690000000 1.0
C      1  0.4205470000000  0.5044960000000  0.4434430000000 1.0
C      1  0.5844710000000  0.4981580000000  0.4403770000000 1.0
C      1  0.4179680000000  0.5077690000000  0.5696350000000 1.0
C      1  0.4374020000000  0.5835710000000  0.4974280000000 1.0
C      1  0.5680280000000  0.4153910000000  0.5099140000000 1.0
C      1  0.4378690000000  0.4188120000000  0.4938430000000 1.0
C      1  0.4979430000000  0.5609640000000  0.4255600000000 1.0
C      1  0.4895000000000  0.4284330000000  0.4110740000000 1.0
C      1  0.5015570000000  0.4344530000000  0.5853440000000 1.0
C      1  0.4201450000000  0.5413140000000  0.5257930000000 1.0
C      1  0.5439510000000  0.5206750000000  0.4201360000000 1.0
C      1  0.5237530000000  0.4217650000000  0.5401710000000 1.0
C      1  0.5832710000000  0.5420730000000  0.4770610000000 1.0
C      1  0.5783530000000  0.4612540000000  0.5176630000000 1.0
C      1  0.4209590000000  0.4630450000000  0.4854020000000 1.0
C      1  0.4610420000000  0.5216400000000  0.5875480000000 1.0
C      1  0.4609810000000  0.4788400000000  0.4201840000000 1.0
C      1  0.5422750000000  0.4756170000000  0.5864170000000 1.0
C      1  0.4836170000000  0.4225310000000  0.4591260000000 1.0
C      1  0.4772310000000  0.5980200000000  0.5364040000000 1.0
C      1  0.5234490000000  0.5909150000000  0.4622150000000 1.0
C      1  0.5218250000000  0.5402680000000  0.4233210000000 1.0
C      1  0.4201350000000  0.5196220000000  0.5418610000000 1.0
C      1  0.5406170000000  0.4183550000000  0.5179280000000 1.0
C      1  0.4788670000000  0.5421690000000  0.5758070000000 1.0
C      1  0.5245690000000  0.4532300000000  0.5919030000000 1.0
C      1  0.4747860000000  0.4560340000000  0.4159400000000 1.0
C      1  0.5809720000000  0.5188090000000  0.4634370000000 1.0
C      1  0.4140290000000  0.4814300000000  0.4628860000000 1.0
C      1  0.5810520000000  0.4798500000000  0.5399920000000 1.0
C      1  0.4621140000000  0.4207430000000  0.4763830000000 1.0
C      1  0.5389050000000  0.5823500000000  0.4839420000000 1.0
C      1  0.4600670000000  0.5876530000000  0.5167830000000 1.0
C      1  0.4359240000000  0.4464320000000  0.5320400000000 1.0
C      1  0.4518280000000  0.5262630000000  0.4316980000000 1.0
C      1  0.5298500000000  0.4306980000000  0.4409060000000 1.0
C      1  0.5689080000000  0.4444020000000  0.4706110000000 1.0
C      1  0.5701180000000  0.5447440000000  0.5353550000000 1.0
C      1  0.4319970000000  0.5507870000000  0.4717730000000 1.0
C      1  0.5405450000000  0.5218040000000  0.5676100000000 1.0
C      1  0.5577970000000  0.4720830000000  0.4265150000000 1.0
C      1  0.4514430000000  0.4730440000000  0.5740630000000 1.0
C      1  0.4757640000000  0.4292240000000  0.5555720000000 1.0
C      1  0.4720550000000  0.5716350000000  0.4541010000000 1.0
C      1  0.5233260000000  0.5656740000000  0.5376220000000 1.0
C      1  0.5363940000000  0.4550660000000  0.4237280000000 1.0
C      1  0.4265510000000  0.5332360000000  0.4517560000000 1.0
C      1  0.4607080000000  0.4314790000000  0.5328480000000 1.0
C      1  0.4774470000000  0.4560790000000  0.5749840000000 1.0
C      1  0.5263130000000  0.5473020000000  0.5659270000000 1.0
C      1  0.4691670000000  0.5503620000000  0.4277590000000 1.0
C      1  0.5700140000000  0.5259940000000  0.5553230000000 1.0
C      1  0.4367220000000  0.4683850000000  0.5486990000000 1.0
C      1  0.5720010000000  0.4705870000000  0.4563040000000 1.0
C      1  0.5433700000000  0.4315240000000  0.4659730000000 1.0
C      1  0.4455720000000  0.5761630000000  0.4691100000000 1.0
C      1  0.5533750000000  0.5691260000000  0.5285640000000 1.0
C      1  0.4642760000000  0.5174860000000  0.4994960000000 1.0
C      1  0.5107180000000  0.4857460000000  0.4675240000000 1.0
C      1  0.4968560000000  0.4587960000000  0.5147280000000 1.0
C      1  0.5438640000000  0.4920140000000  0.4933380000000 1.0
C      1  0.4866910000000  0.4848190000000  0.5240610000000 1.0
C      1  0.4903260000000  0.5072410000000  0.4591260000000 1.0
C      1  0.5053240000000  0.5045540000000  0.5349630000000 1.0
C      1  0.4863810000000  0.5258060000000  0.4835970000000 1.0
C      1  0.4597960000000  0.4923050000000  0.5138980000000 1.0
C      1  0.5074180000000  0.4610570000000  0.4840710000000 1.0
C      1  0.5131920000000  0.5345810000000  0.4989700000000 1.0
C      1  0.5246600000000  0.5112090000000  0.5128650000000 1.0
C      1  0.5018510000000  0.5727310000000  0.4951600000000 1.0
C      1  0.5575330000000  0.5128250000000  0.5149760000000 1.0
C      1  0.4990560000000  0.4203700000000  0.4981010000000 1.0
C      1  0.4262770000000  0.5095140000000  0.4882210000000 1.0
C      1  0.4883880000000  0.4942370000000  0.5791490000000 1.0
C      1  0.5143130000000  0.4883040000000  0.4224380000000 1.0
END
