TITL C-2622953-3516-541 0.000458524755693901 125000 -641.495826946528 0 0 122 (C1) n - 1
REM
REM in /nfs/bkarasulu/CARBON/AIRSS/Generating-Clusters/AIREBO/with-SteepDescent/Higher-Symm/SD-CG/HFTN-CG
REM
REM
REM
REM
REM
REM ./C.cell (b20cbc046b6831c77cfcea5457e17084)
REM
REM compiler GCC version 9.2.1 20190827 (Red Hat 9.2.1-1)
REM options -cpp -mtune=generic -march=x86-64 -g -O0 -fpre-include=/usr/include/finclude/math-vector-fortran.h
REM seed 1617125234 -590491946 -339579543 1959743499 -317618274 -1281126149 -1811089031 -1497398477 923023598 954876278 -1828993176 1710303818 397343074 616429989 -2105535619 -1185119537 -558556248 -1426455043 -1563859859 2132969576 1815453826 -1039541496 1575131000 -1173415154 682147820 -1065584733 -1058823881 2035241562 -631317134 -768914699 1089264172 33611109 -52153889
REM
CELL 1.54180   50.00000   50.00000   50.00000   90.00000   90.00000   90.00000
LATT -1
SFAC C  
C      1  0.5374310000000  0.5258580000000  0.5076020000000 1.0
C      1  0.5454830000000  0.5159900000000  0.5307570000000 1.0
C      1  0.5684910000000  0.5042400000000  0.5284540000000 1.0
C      1  0.5641660000000  0.4755190000000  0.5258500000000 1.0
C      1  0.5457260000000  0.4740720000000  0.5016690000000 1.0
C      1  0.5464290000000  0.4927500000000  0.4737770000000 1.0
C      1  0.5449650000000  0.5221140000000  0.4826810000000 1.0
C      1  0.4994720000000  0.4978680000000  0.4032860000000 1.0
C      1  0.5008610000000  0.5698120000000  0.4398460000000 1.0
C      1  0.5080880000000  0.5896440000000  0.5165490000000 1.0
C      1  0.5064610000000  0.5357530000000  0.5885880000000 1.0
C      1  0.5031880000000  0.4599190000000  0.5815020000000 1.0
C      1  0.4975220000000  0.4141700000000  0.5176530000000 1.0
C      1  0.4970280000000  0.4265370000000  0.4389660000000 1.0
C      1  0.5657270000000  0.4881940000000  0.4335860000000 1.0
C      1  0.5689120000000  0.5406750000000  0.4408600000000 1.0
C      1  0.5682830000000  0.5704980000000  0.4990630000000 1.0
C      1  0.5633280000000  0.5401270000000  0.5579330000000 1.0
C      1  0.5751630000000  0.4916820000000  0.5734140000000 1.0
C      1  0.5721850000000  0.4392540000000  0.5392260000000 1.0
C      1  0.5685380000000  0.4417500000000  0.4717990000000 1.0
C      1  0.4791400000000  0.5289440000000  0.5708130000000 1.0
C      1  0.4775300000000  0.4655960000000  0.5644710000000 1.0
C      1  0.4705820000000  0.4315100000000  0.5144630000000 1.0
C      1  0.4723500000000  0.4380850000000  0.4510880000000 1.0
C      1  0.4742540000000  0.5121300000000  0.4211050000000 1.0
C      1  0.4721090000000  0.5622030000000  0.4563270000000 1.0
C      1  0.4817640000000  0.5686070000000  0.5211920000000 1.0
C      1  0.5257120000000  0.5538360000000  0.5176960000000 1.0
C      1  0.5336820000000  0.5117670000000  0.5567960000000 1.0
C      1  0.5401150000000  0.4649890000000  0.5474720000000 1.0
C      1  0.5353250000000  0.4424140000000  0.4994250000000 1.0
C      1  0.5276120000000  0.4656720000000  0.4654510000000 1.0
C      1  0.5265430000000  0.5017830000000  0.4477070000000 1.0
C      1  0.5365370000000  0.5474900000000  0.4633220000000 1.0
C      1  0.5168900000000  0.4828700000000  0.5918980000000 1.0
C      1  0.5124970000000  0.4210230000000  0.5413920000000 1.0
C      1  0.5128310000000  0.4154390000000  0.4596910000000 1.0
C      1  0.5135360000000  0.4708630000000  0.4090940000000 1.0
C      1  0.5132750000000  0.5494710000000  0.4217220000000 1.0
C      1  0.5186250000000  0.5913560000000  0.4841870000000 1.0
C      1  0.5159160000000  0.5639880000000  0.5714350000000 1.0
C      1  0.4433460000000  0.5348850000000  0.5328800000000 1.0
C      1  0.4337120000000  0.4883740000000  0.5532350000000 1.0
C      1  0.4273130000000  0.4562750000000  0.5303580000000 1.0
C      1  0.4208150000000  0.4556480000000  0.4888850000000 1.0
C      1  0.4383710000000  0.4818140000000  0.4554820000000 1.0
C      1  0.4387700000000  0.5234610000000  0.4593780000000 1.0
C      1  0.4352470000000  0.5515380000000  0.4940310000000 1.0
C      1  0.5872760000000  0.5333030000000  0.4858100000000 1.0
C      1  0.5861130000000  0.5369610000000  0.5143090000000 1.0
C      1  0.5991690000000  0.5118810000000  0.5332270000000 1.0
C      1  0.5978270000000  0.4796620000000  0.5223260000000 1.0
C      1  0.5885270000000  0.4667130000000  0.4956820000000 1.0
C      1  0.5793510000000  0.4848000000000  0.4768120000000 1.0
C      1  0.5907600000000  0.5102570000000  0.4685430000000 1.0
C      1  0.5141870000000  0.4869490000000  0.5457790000000 1.0
C      1  0.5086380000000  0.4600430000000  0.5110160000000 1.0
C      1  0.4971320000000  0.4696620000000  0.4804950000000 1.0
C      1  0.4969450000000  0.4997740000000  0.4643290000000 1.0
C      1  0.5077940000000  0.5311700000000  0.4713250000000 1.0
C      1  0.4994030000000  0.5373260000000  0.5037250000000 1.0
C      1  0.5055490000000  0.5150580000000  0.5286830000000 1.0
C      1  0.5833120000000  0.5173640000000  0.5628150000000 1.0
C      1  0.5704230000000  0.4620280000000  0.5629040000000 1.0
C      1  0.5690730000000  0.4415670000000  0.5054000000000 1.0
C      1  0.5580240000000  0.4628620000000  0.4503660000000 1.0
C      1  0.5785150000000  0.5134300000000  0.4420390000000 1.0
C      1  0.5686200000000  0.5548330000000  0.4718580000000 1.0
C      1  0.5586830000000  0.5534600000000  0.5268890000000 1.0
C      1  0.5415740000000  0.5450970000000  0.4309430000000 1.0
C      1  0.5400340000000  0.5828060000000  0.5071200000000 1.0
C      1  0.5345270000000  0.5373030000000  0.5719440000000 1.0
C      1  0.5424000000000  0.4869360000000  0.5758050000000 1.0
C      1  0.5402010000000  0.4346260000000  0.5321610000000 1.0
C      1  0.5370300000000  0.4334570000000  0.4666660000000 1.0
C      1  0.5363550000000  0.4824540000000  0.4231690000000 1.0
C      1  0.4696470000000  0.5238850000000  0.5139000000000 1.0
C      1  0.4607470000000  0.4993040000000  0.5357420000000 1.0
C      1  0.4569370000000  0.4704040000000  0.5261360000000 1.0
C      1  0.4471610000000  0.4686320000000  0.4979560000000 1.0
C      1  0.4648430000000  0.4796720000000  0.4767240000000 1.0
C      1  0.4657840000000  0.5111130000000  0.4718800000000 1.0
C      1  0.4630210000000  0.5385870000000  0.4872650000000 1.0
C      1  0.4150430000000  0.5338520000000  0.5137740000000 1.0
C      1  0.4189420000000  0.5128590000000  0.5374910000000 1.0
C      1  0.4054790000000  0.4820060000000  0.5359750000000 1.0
C      1  0.3980880000000  0.4594480000000  0.5135330000000 1.0
C      1  0.3881440000000  0.4595460000000  0.4829970000000 1.0
C      1  0.4135100000000  0.5007200000000  0.4621210000000 1.0
C      1  0.4146850000000  0.5272760000000  0.4819550000000 1.0
C      1  0.5092810000000  0.5067850000000  0.6042700000000 1.0
C      1  0.5193850000000  0.4436070000000  0.5647670000000 1.0
C      1  0.5129420000000  0.4167850000000  0.4936640000000 1.0
C      1  0.5065160000000  0.4428700000000  0.4162180000000 1.0
C      1  0.5137350000000  0.5183770000000  0.4208960000000 1.0
C      1  0.5192370000000  0.5757790000000  0.4614630000000 1.0
C      1  0.5147630000000  0.5729550000000  0.5446080000000 1.0
C      1  0.4841700000000  0.4981610000000  0.5572620000000 1.0
C      1  0.4847040000000  0.4567000000000  0.5324240000000 1.0
C      1  0.4771490000000  0.4422510000000  0.4828500000000 1.0
C      1  0.4855130000000  0.4858580000000  0.4386840000000 1.0
C      1  0.4857750000000  0.5330130000000  0.4454680000000 1.0
C      1  0.4848340000000  0.5623970000000  0.4878720000000 1.0
C      1  0.4902170000000  0.5425100000000  0.5416660000000 1.0
C      1  0.4667200000000  0.4632530000000  0.4349780000000 1.0
C      1  0.4523710000000  0.5367490000000  0.4148780000000 1.0
C      1  0.4525510000000  0.5824260000000  0.4754370000000 1.0
C      1  0.4636240000000  0.5743420000000  0.5493810000000 1.0
C      1  0.4591260000000  0.5090310000000  0.5897650000000 1.0
C      1  0.4577680000000  0.4381840000000  0.5643180000000 1.0
C      1  0.4470030000000  0.4278430000000  0.4902090000000 1.0
C      1  0.4543490000000  0.5484020000000  0.5580220000000 1.0
C      1  0.4523280000000  0.4845560000000  0.5772070000000 1.0
C      1  0.4468500000000  0.4335950000000  0.5386960000000 1.0
C      1  0.4426270000000  0.4487290000000  0.4637270000000 1.0
C      1  0.4487020000000  0.4890060000000  0.4245820000000 1.0
C      1  0.4461920000000  0.5463100000000  0.4410980000000 1.0
C      1  0.4525180000000  0.5769240000000  0.5059120000000 1.0
C      1  0.5019980000000  0.4929930000000  0.5058650000000 1.0
C      1  0.3891830000000  0.4857550000000  0.4635620000000 1.0
C      1  0.3626820000000  0.4685750000000  0.4621330000000 1.0
END
