TITL C-2622965-4321-104 0.00117947913132786 125000 -785.554964223607 0 0 142 (C1) n - 1
REM
REM in /nfs/bkarasulu/CARBON/AIRSS/Generating-Clusters/AIREBO/with-SteepDescent/Higher-Symm/SD-CG/HFTN-CG
REM
REM
REM
REM
REM
REM ./C.cell (b20cbc046b6831c77cfcea5457e17084)
REM
REM compiler GCC version 9.2.1 20190827 (Red Hat 9.2.1-1)
REM options -cpp -mtune=generic -march=x86-64 -g -O0 -fpre-include=/usr/include/finclude/math-vector-fortran.h
REM seed -1777946044 392200701 638214960 -220456633 1519287687 -1590410297 -922842344 -1508021772 1334024773 -1081972298 1063583554 1371804939 1299174785 -2019243575 -2123893219 1864342524 470236543 604755150 1029029409 1655291708 521632763 -2084067658 1558182618 1194203855 84229911 -673600361 1278840445 -501327177 1714185055 -119718535 -1208766204 -540045675 352534358
REM
CELL 1.54180   50.00000   50.00000   50.00000   90.00000   90.00000   90.00000
LATT -1
SFAC C  
C      1  0.5213700000000  0.4912150000000  0.4647960000000 1.0
C      1  0.5174470000000  0.5312110000000  0.5075260000000 1.0
C      1  0.5146720000000  0.4773860000000  0.5173690000000 1.0
C      1  0.4691100000000  0.4971270000000  0.4615420000000 1.0
C      1  0.4599390000000  0.5471580000000  0.5042610000000 1.0
C      1  0.4861710000000  0.4791310000000  0.5314500000000 1.0
C      1  0.5250190000000  0.5583910000000  0.4211140000000 1.0
C      1  0.5140320000000  0.5329820000000  0.6039730000000 1.0
C      1  0.5344050000000  0.3974170000000  0.4821280000000 1.0
C      1  0.4762540000000  0.5686200000000  0.4221130000000 1.0
C      1  0.4749140000000  0.5404430000000  0.5987340000000 1.0
C      1  0.4781510000000  0.3963920000000  0.4692640000000 1.0
C      1  0.5451220000000  0.4680330000000  0.5705120000000 1.0
C      1  0.5443470000000  0.4590900000000  0.4313760000000 1.0
C      1  0.5414830000000  0.5734500000000  0.5003060000000 1.0
C      1  0.4596600000000  0.4651050000000  0.5743710000000 1.0
C      1  0.4529270000000  0.4622610000000  0.4316110000000 1.0
C      1  0.4519000000000  0.5845220000000  0.4926770000000 1.0
C      1  0.4060680000000  0.5134000000000  0.5523870000000 1.0
C      1  0.4055750000000  0.4468440000000  0.4862370000000 1.0
C      1  0.3976000000000  0.5409520000000  0.4640590000000 1.0
C      1  0.5842960000000  0.5060120000000  0.5587270000000 1.0
C      1  0.5974150000000  0.4402210000000  0.4786910000000 1.0
C      1  0.5964630000000  0.5438220000000  0.4633150000000 1.0
C      1  0.4755630000000  0.4216400000000  0.4493220000000 1.0
C      1  0.4778600000000  0.5829800000000  0.4514610000000 1.0
C      1  0.4813110000000  0.5095410000000  0.5907540000000 1.0
C      1  0.5285300000000  0.4205670000000  0.4582670000000 1.0
C      1  0.5312970000000  0.5734170000000  0.4505860000000 1.0
C      1  0.5132420000000  0.4996430000000  0.5972170000000 1.0
C      1  0.4625970000000  0.4318720000000  0.4790460000000 1.0
C      1  0.4542240000000  0.5586400000000  0.4539060000000 1.0
C      1  0.4594440000000  0.5187880000000  0.5663720000000 1.0
C      1  0.5389920000000  0.4370830000000  0.4833720000000 1.0
C      1  0.5476170000000  0.5446060000000  0.4507820000000 1.0
C      1  0.5387960000000  0.5135120000000  0.5795570000000 1.0
C      1  0.4291100000000  0.5725790000000  0.5027660000000 1.0
C      1  0.4362590000000  0.4625490000000  0.5563980000000 1.0
C      1  0.4291170000000  0.4739600000000  0.4401700000000 1.0
C      1  0.5634490000000  0.5585300000000  0.5083680000000 1.0
C      1  0.5702750000000  0.4612790000000  0.5532190000000 1.0
C      1  0.5684120000000  0.4708530000000  0.4380750000000 1.0
C      1  0.4159920000000  0.5347610000000  0.5340940000000 1.0
C      1  0.4168680000000  0.4518330000000  0.5126250000000 1.0
C      1  0.4090340000000  0.5147900000000  0.4526190000000 1.0
C      1  0.5855660000000  0.5197590000000  0.5339340000000 1.0
C      1  0.5928720000000  0.4479130000000  0.5071080000000 1.0
C      1  0.5924130000000  0.5177180000000  0.4498270000000 1.0
C      1  0.5074310000000  0.5991330000000  0.4926250000000 1.0
C      1  0.5209850000000  0.4379790000000  0.5910900000000 1.0
C      1  0.5161020000000  0.4403700000000  0.4063320000000 1.0
C      1  0.4809540000000  0.6045000000000  0.5114560000000 1.0
C      1  0.4826610000000  0.4444230000000  0.5832170000000 1.0
C      1  0.4893200000000  0.4535820000000  0.4181890000000 1.0
C      1  0.5377620000000  0.5131710000000  0.4286620000000 1.0
C      1  0.5384740000000  0.5536010000000  0.5507930000000 1.0
C      1  0.5380290000000  0.4350370000000  0.5233460000000 1.0
C      1  0.4534570000000  0.5155200000000  0.4250480000000 1.0
C      1  0.4501230000000  0.5661360000000  0.5534380000000 1.0
C      1  0.4622880000000  0.4237490000000  0.5274010000000 1.0
C      1  0.4809650000000  0.5722990000000  0.5054090000000 1.0
C      1  0.4889160000000  0.4649200000000  0.5570160000000 1.0
C      1  0.4819880000000  0.4771660000000  0.4408390000000 1.0
C      1  0.5112660000000  0.5625870000000  0.5082290000000 1.0
C      1  0.5182960000000  0.4549430000000  0.5620900000000 1.0
C      1  0.5158970000000  0.4771220000000  0.4360350000000 1.0
C      1  0.5656260000000  0.5007150000000  0.4436760000000 1.0
C      1  0.5586930000000  0.5379970000000  0.5299220000000 1.0
C      1  0.5641660000000  0.4555000000000  0.5236970000000 1.0
C      1  0.4261710000000  0.5012250000000  0.4350480000000 1.0
C      1  0.4371860000000  0.5564900000000  0.5279440000000 1.0
C      1  0.4429010000000  0.4488690000000  0.5300020000000 1.0
C      1  0.5114820000000  0.5741090000000  0.5537560000000 1.0
C      1  0.5181860000000  0.4097640000000  0.5305200000000 1.0
C      1  0.5149640000000  0.5046600000000  0.4074110000000 1.0
C      1  0.4786370000000  0.5845510000000  0.5557570000000 1.0
C      1  0.4873390000000  0.4131000000000  0.5443730000000 1.0
C      1  0.4811910000000  0.5105490000000  0.4060090000000 1.0
C      1  0.5520820000000  0.4955710000000  0.4744540000000 1.0
C      1  0.5480120000000  0.5056510000000  0.5281960000000 1.0
C      1  0.5539410000000  0.4831530000000  0.5060880000000 1.0
C      1  0.4550550000000  0.5121070000000  0.4859240000000 1.0
C      1  0.4608420000000  0.5171920000000  0.5156070000000 1.0
C      1  0.4634240000000  0.4666130000000  0.5103520000000 1.0
C      1  0.5531710000000  0.4968370000000  0.5597470000000 1.0
C      1  0.5624790000000  0.4586800000000  0.4840620000000 1.0
C      1  0.5613340000000  0.5274260000000  0.4729100000000 1.0
C      1  0.4441810000000  0.5078240000000  0.5421970000000 1.0
C      1  0.4440100000000  0.4572530000000  0.4840390000000 1.0
C      1  0.4361450000000  0.5375560000000  0.4736360000000 1.0
C      1  0.5224300000000  0.4226600000000  0.5607300000000 1.0
C      1  0.5205800000000  0.4726450000000  0.4026530000000 1.0
C      1  0.5160910000000  0.5913490000000  0.5247010000000 1.0
C      1  0.4846580000000  0.4158670000000  0.5719540000000 1.0
C      1  0.4765510000000  0.4781620000000  0.4013020000000 1.0
C      1  0.4760740000000  0.6096150000000  0.5376650000000 1.0
C      1  0.5793400000000  0.5490900000000  0.4878120000000 1.0
C      1  0.5914070000000  0.4774860000000  0.5594650000000 1.0
C      1  0.5821130000000  0.4565670000000  0.4577420000000 1.0
C      1  0.4138030000000  0.5575630000000  0.4843680000000 1.0
C      1  0.4220650000000  0.4869740000000  0.5535610000000 1.0
C      1  0.4185290000000  0.4609330000000  0.4626510000000 1.0
C      1  0.4431530000000  0.5468940000000  0.4269940000000 1.0
C      1  0.4448570000000  0.5467480000000  0.5732670000000 1.0
C      1  0.4523110000000  0.4094660000000  0.4988350000000 1.0
C      1  0.5588540000000  0.5371580000000  0.4224290000000 1.0
C      1  0.5476800000000  0.5411190000000  0.5788330000000 1.0
C      1  0.5601370000000  0.4219130000000  0.5025640000000 1.0
C      1  0.5127390000000  0.5531990000000  0.5805790000000 1.0
C      1  0.5161900000000  0.3953500000000  0.5027620000000 1.0
C      1  0.5099350000000  0.5373210000000  0.4131420000000 1.0
C      1  0.4820350000000  0.5606730000000  0.5768080000000 1.0
C      1  0.4908570000000  0.4010870000000  0.4925820000000 1.0
C      1  0.4813920000000  0.5430570000000  0.4159740000000 1.0
C      1  0.4834370000000  0.5103980000000  0.5355040000000 1.0
C      1  0.4783740000000  0.4771540000000  0.4837160000000 1.0
C      1  0.4808210000000  0.5413220000000  0.4780390000000 1.0
C      1  0.5169420000000  0.5040930000000  0.5367470000000 1.0
C      1  0.5033040000000  0.4684130000000  0.4801240000000 1.0
C      1  0.5064750000000  0.5357030000000  0.4791330000000 1.0
C      1  0.5214250000000  0.5239930000000  0.4565180000000 1.0
C      1  0.5129370000000  0.5370350000000  0.5390100000000 1.0
C      1  0.5135080000000  0.4475060000000  0.5028610000000 1.0
C      1  0.4680310000000  0.5284090000000  0.4519820000000 1.0
C      1  0.4862020000000  0.5360930000000  0.5562860000000 1.0
C      1  0.4860780000000  0.4298330000000  0.5038840000000 1.0
C      1  0.4220840000000  0.5076090000000  0.5163150000000 1.0
C      1  0.4233460000000  0.4808420000000  0.4973950000000 1.0
C      1  0.4169210000000  0.5114150000000  0.4837990000000 1.0
C      1  0.5881820000000  0.5011260000000  0.5140450000000 1.0
C      1  0.5900010000000  0.4775550000000  0.4906970000000 1.0
C      1  0.5886960000000  0.5093700000000  0.4819510000000 1.0
C      1  0.5408800000000  0.4801560000000  0.6009570000000 1.0
C      1  0.5438690000000  0.4320720000000  0.4334900000000 1.0
C      1  0.5434140000000  0.5874140000000  0.4770550000000 1.0
C      1  0.4586330000000  0.4876340000000  0.5952110000000 1.0
C      1  0.4549890000000  0.4351070000000  0.4301440000000 1.0
C      1  0.4547340000000  0.5959400000000  0.4684610000000 1.0
C      1  0.5055160000000  0.5896210000000  0.4649670000000 1.0
C      1  0.5041820000000  0.4282310000000  0.4357920000000 1.0
C      1  0.5039570000000  0.4669000000000  0.5973120000000 1.0
C      1  0.5176580000000  0.5017070000000  0.4969320000000 1.0
END
