TITL C-2622953-3516-310 0.000317123953151291 125000 -173.491625510712 0 0 34 (C1) n - 1
REM
REM in /nfs/bkarasulu/CARBON/AIRSS/Generating-Clusters/AIREBO/with-SteepDescent/Higher-Symm/SD-CG/HFTN-CG
REM
REM
REM
REM
REM
REM ./C.cell (b20cbc046b6831c77cfcea5457e17084)
REM
REM compiler GCC version 9.2.1 20190827 (Red Hat 9.2.1-1)
REM options -cpp -mtune=generic -march=x86-64 -g -O0 -fpre-include=/usr/include/finclude/math-vector-fortran.h
REM seed 1581220494 -1449196420 -1441930170 -1065241952 -108648556 956605851 412187498 -1680639853 1791799757 2110269378 44981937 1543285730 -1107464458 -589943387 105373151 1610146335 344265898 -1098082039 1424262774 1843950566 2058680309 -1081540010 -42048230 -1859789660 -2119425514 -845426643 -241725459 2089908211 -143806468 -1307515682 -1729605409 329337507 -185498545
REM
CELL 1.54180   50.00000   50.00000   50.00000   90.00000   90.00000   90.00000
LATT -1
SFAC C  
C      1  0.4675350000000  0.5073850000000  0.5172500000000 1.0
C      1  0.5210090000000  0.4731680000000  0.5072550000000 1.0
C      1  0.4991850000000  0.5130480000000  0.4646200000000 1.0
C      1  0.4598530000000  0.4846200000000  0.4852830000000 1.0
C      1  0.5403400000000  0.4948620000000  0.5256790000000 1.0
C      1  0.5236560000000  0.5156590000000  0.4778080000000 1.0
C      1  0.5234870000000  0.5352180000000  0.4986760000000 1.0
C      1  0.4848030000000  0.5352230000000  0.5081420000000 1.0
C      1  0.4818620000000  0.4617310000000  0.4830960000000 1.0
C      1  0.5112510000000  0.4834630000000  0.5381570000000 1.0
C      1  0.4764430000000  0.4807430000000  0.4585630000000 1.0
C      1  0.4934580000000  0.5190420000000  0.5363110000000 1.0
C      1  0.5230030000000  0.5144220000000  0.5801100000000 1.0
C      1  0.5924760000000  0.4967100000000  0.5358730000000 1.0
C      1  0.5067940000000  0.5790040000000  0.5205380000000 1.0
C      1  0.5138080000000  0.4842640000000  0.4261680000000 1.0
C      1  0.4774600000000  0.4922780000000  0.5788480000000 1.0
C      1  0.4766070000000  0.5125330000000  0.4201930000000 1.0
C      1  0.5647350000000  0.4917990000000  0.4917640000000 1.0
C      1  0.4237620000000  0.4836010000000  0.5191210000000 1.0
C      1  0.4274610000000  0.5216060000000  0.4915190000000 1.0
C      1  0.5220360000000  0.4361750000000  0.4764150000000 1.0
C      1  0.4983980000000  0.4320140000000  0.5166570000000 1.0
C      1  0.4957190000000  0.5724690000000  0.4752550000000 1.0
C      1  0.5705890000000  0.4940980000000  0.5204430000000 1.0
C      1  0.5020980000000  0.5605920000000  0.4998440000000 1.0
C      1  0.5010310000000  0.5026730000000  0.5627410000000 1.0
C      1  0.4406630000000  0.5000150000000  0.5037820000000 1.0
C      1  0.5061560000000  0.4498280000000  0.4957100000000 1.0
C      1  0.4923490000000  0.4978130000000  0.4382470000000 1.0
C      1  0.5230410000000  0.5216630000000  0.5237220000000 1.0
C      1  0.5370490000000  0.4919180000000  0.4859610000000 1.0
C      1  0.4782380000000  0.5195910000000  0.4806980000000 1.0
C      1  0.4850670000000  0.4827970000000  0.5217810000000 1.0
END
