TITL C-2622958-629-187 0.00175907994079838 125000 -814.043310121962 0 0 145 (C1) n - 1
REM
REM in /nfs/bkarasulu/CARBON/AIRSS/Generating-Clusters/AIREBO/with-SteepDescent/Higher-Symm/SD-CG/HFTN-CG
REM
REM
REM
REM
REM
REM ./C.cell (b20cbc046b6831c77cfcea5457e17084)
REM
REM compiler GCC version 9.2.1 20190827 (Red Hat 9.2.1-1)
REM options -cpp -mtune=generic -march=x86-64 -g -O0 -fpre-include=/usr/include/finclude/math-vector-fortran.h
REM seed -4000906 954804179 647040079 1849925669 -1948366971 777824104 1684091082 -1417618862 690276647 -870943064 -823327392 -693640241 -1735659256 -1287048415 1590216115 1238122676 -1104242924 1559411304 764753591 221078213 -1530829133 -803328046 901033935 -1034306422 -1189378756 -11920487 -526838839 -1901554171 -214077402 901507436 -432747742 1452779719 669684250
REM
CELL 1.54180   50.00000   50.00000   50.00000   90.00000   90.00000   90.00000
LATT -1
SFAC C  
C      1  0.4316500000000  0.5628800000000  0.5107490000000 1.0
C      1  0.4892010000000  0.4150690000000  0.5157170000000 1.0
C      1  0.5876520000000  0.5226930000000  0.5188170000000 1.0
C      1  0.4393740000000  0.5773410000000  0.4840040000000 1.0
C      1  0.4784490000000  0.4136520000000  0.4834170000000 1.0
C      1  0.5842130000000  0.5203220000000  0.4866440000000 1.0
C      1  0.4564040000000  0.4249440000000  0.5146800000000 1.0
C      1  0.4899010000000  0.5876440000000  0.5120180000000 1.0
C      1  0.5842720000000  0.4883910000000  0.5130070000000 1.0
C      1  0.4457380000000  0.4170620000000  0.4841790000000 1.0
C      1  0.4709860000000  0.5904220000000  0.4838790000000 1.0
C      1  0.5898350000000  0.4872500000000  0.4799010000000 1.0
C      1  0.5240750000000  0.4209660000000  0.4455920000000 1.0
C      1  0.5568200000000  0.5515650000000  0.4411100000000 1.0
C      1  0.4150590000000  0.5257850000000  0.4468740000000 1.0
C      1  0.5347400000000  0.4274100000000  0.5589910000000 1.0
C      1  0.5613140000000  0.5515250000000  0.5642710000000 1.0
C      1  0.4147800000000  0.5285110000000  0.5514140000000 1.0
C      1  0.5278770000000  0.5664200000000  0.4300100000000 1.0
C      1  0.5794310000000  0.4488790000000  0.4336770000000 1.0
C      1  0.4251500000000  0.4919070000000  0.4454400000000 1.0
C      1  0.5347350000000  0.5693600000000  0.5757910000000 1.0
C      1  0.5645040000000  0.4314920000000  0.5427780000000 1.0
C      1  0.4150100000000  0.4968670000000  0.5646360000000 1.0
C      1  0.5550820000000  0.5691050000000  0.5186170000000 1.0
C      1  0.4112770000000  0.5182890000000  0.5131790000000 1.0
C      1  0.5388150000000  0.4207950000000  0.5075950000000 1.0
C      1  0.5523010000000  0.5695390000000  0.4864560000000 1.0
C      1  0.4124630000000  0.5027000000000  0.4911040000000 1.0
C      1  0.5316070000000  0.4203090000000  0.4788730000000 1.0
C      1  0.5703010000000  0.4313790000000  0.5093300000000 1.0
C      1  0.4167180000000  0.4614360000000  0.5153930000000 1.0
C      1  0.5363520000000  0.5944260000000  0.5132700000000 1.0
C      1  0.5866270000000  0.4340650000000  0.4860320000000 1.0
C      1  0.4108570000000  0.4746890000000  0.4913220000000 1.0
C      1  0.5305390000000  0.5976840000000  0.4848470000000 1.0
C      1  0.4385710000000  0.5522370000000  0.4288810000000 1.0
C      1  0.4880590000000  0.4277530000000  0.4172250000000 1.0
C      1  0.5711990000000  0.5220840000000  0.4182250000000 1.0
C      1  0.4396130000000  0.5564890000000  0.5651140000000 1.0
C      1  0.4915940000000  0.4252340000000  0.5792200000000 1.0
C      1  0.5714560000000  0.5186800000000  0.5845560000000 1.0
C      1  0.4293820000000  0.4570280000000  0.4124700000000 1.0
C      1  0.4907170000000  0.5663720000000  0.4153580000000 1.0
C      1  0.5554250000000  0.4534620000000  0.4123870000000 1.0
C      1  0.4348010000000  0.4653420000000  0.5783250000000 1.0
C      1  0.4974040000000  0.5722090000000  0.5888430000000 1.0
C      1  0.5531620000000  0.4612930000000  0.5949120000000 1.0
C      1  0.5052910000000  0.4694920000000  0.4738970000000 1.0
C      1  0.5325550000000  0.5212470000000  0.4755320000000 1.0
C      1  0.4663320000000  0.5108990000000  0.4750360000000 1.0
C      1  0.5050620000000  0.4685100000000  0.5216720000000 1.0
C      1  0.5325060000000  0.5238090000000  0.5277630000000 1.0
C      1  0.4610640000000  0.5142320000000  0.5234350000000 1.0
C      1  0.4941220000000  0.5302050000000  0.4734120000000 1.0
C      1  0.5292770000000  0.4887180000000  0.4659190000000 1.0
C      1  0.4763760000000  0.4828110000000  0.4707680000000 1.0
C      1  0.4918930000000  0.5257900000000  0.5288920000000 1.0
C      1  0.5234960000000  0.4913110000000  0.5324560000000 1.0
C      1  0.4786260000000  0.4872160000000  0.5277310000000 1.0
C      1  0.4943730000000  0.5295840000000  0.5602780000000 1.0
C      1  0.4716240000000  0.4911340000000  0.5590730000000 1.0
C      1  0.5219440000000  0.4878270000000  0.5634360000000 1.0
C      1  0.4934850000000  0.5254670000000  0.4402750000000 1.0
C      1  0.4695360000000  0.4831080000000  0.4400650000000 1.0
C      1  0.5218940000000  0.4846590000000  0.4342130000000 1.0
C      1  0.4954720000000  0.4738190000000  0.5711870000000 1.0
C      1  0.4687780000000  0.5172350000000  0.5744500000000 1.0
C      1  0.5185600000000  0.5168600000000  0.5749500000000 1.0
C      1  0.4956080000000  0.4683240000000  0.4280130000000 1.0
C      1  0.4687620000000  0.5108440000000  0.4284320000000 1.0
C      1  0.5182190000000  0.5150870000000  0.4261640000000 1.0
C      1  0.5737670000000  0.4604190000000  0.5261670000000 1.0
C      1  0.5127800000000  0.5940050000000  0.5286230000000 1.0
C      1  0.4251760000000  0.4356490000000  0.5166550000000 1.0
C      1  0.5834620000000  0.4575010000000  0.4689390000000 1.0
C      1  0.5038270000000  0.5914740000000  0.4750070000000 1.0
C      1  0.4268310000000  0.4313430000000  0.4704240000000 1.0
C      1  0.5765220000000  0.5494250000000  0.5338700000000 1.0
C      1  0.5153910000000  0.4041890000000  0.5203910000000 1.0
C      1  0.4114120000000  0.5471330000000  0.5228330000000 1.0
C      1  0.5740110000000  0.5486270000000  0.4706780000000 1.0
C      1  0.5042430000000  0.4043660000000  0.4678890000000 1.0
C      1  0.4266770000000  0.5521300000000  0.4650140000000 1.0
C      1  0.4776520000000  0.5213300000000  0.6059370000000 1.0
C      1  0.4808030000000  0.4736750000000  0.6018620000000 1.0
C      1  0.5200240000000  0.5007230000000  0.6048560000000 1.0
C      1  0.4768030000000  0.5168280000000  0.3959400000000 1.0
C      1  0.4840630000000  0.4696800000000  0.3976980000000 1.0
C      1  0.5211920000000  0.4987820000000  0.3964640000000 1.0
C      1  0.4632320000000  0.4950170000000  0.6071240000000 1.0
C      1  0.5046390000000  0.5257710000000  0.6112650000000 1.0
C      1  0.5101730000000  0.4739470000000  0.6083030000000 1.0
C      1  0.4643670000000  0.4895150000000  0.3950120000000 1.0
C      1  0.5034590000000  0.5230370000000  0.3900590000000 1.0
C      1  0.5143150000000  0.4709070000000  0.3928840000000 1.0
C      1  0.5269760000000  0.4515310000000  0.6006920000000 1.0
C      1  0.5199020000000  0.5522580000000  0.6015880000000 1.0
C      1  0.4366370000000  0.4958720000000  0.5908710000000 1.0
C      1  0.5295270000000  0.4474740000000  0.4030410000000 1.0
C      1  0.5157790000000  0.5500240000000  0.4027130000000 1.0
C      1  0.4381960000000  0.4894220000000  0.4139110000000 1.0
C      1  0.5441530000000  0.5338320000000  0.5876960000000 1.0
C      1  0.5195020000000  0.4299460000000  0.5823730000000 1.0
C      1  0.4385630000000  0.5261730000000  0.5754960000000 1.0
C      1  0.5431250000000  0.5348050000000  0.4148690000000 1.0
C      1  0.5152390000000  0.4275070000000  0.4179190000000 1.0
C      1  0.4388900000000  0.5218590000000  0.4231610000000 1.0
C      1  0.4296480000000  0.4648870000000  0.4656240000000 1.0
C      1  0.5551210000000  0.4589680000000  0.4552140000000 1.0
C      1  0.5097040000000  0.5688480000000  0.4567380000000 1.0
C      1  0.4261210000000  0.4777160000000  0.5388320000000 1.0
C      1  0.5476630000000  0.4618430000000  0.5445590000000 1.0
C      1  0.5152730000000  0.5740130000000  0.5510520000000 1.0
C      1  0.4332950000000  0.5112740000000  0.4708060000000 1.0
C      1  0.5346450000000  0.5506400000000  0.4659410000000 1.0
C      1  0.5300630000000  0.4487790000000  0.4642110000000 1.0
C      1  0.4336960000000  0.5078930000000  0.5320930000000 1.0
C      1  0.5374510000000  0.5517690000000  0.5402050000000 1.0
C      1  0.5245700000000  0.4418570000000  0.5299120000000 1.0
C      1  0.4544240000000  0.4630370000000  0.5506480000000 1.0
C      1  0.5515990000000  0.4779250000000  0.5694380000000 1.0
C      1  0.4884970000000  0.5603920000000  0.5603430000000 1.0
C      1  0.4471650000000  0.4582200000000  0.4372530000000 1.0
C      1  0.5535910000000  0.4791050000000  0.4309880000000 1.0
C      1  0.4862740000000  0.5562010000000  0.4428090000000 1.0
C      1  0.4607740000000  0.5617900000000  0.5481180000000 1.0
C      1  0.5695670000000  0.5007970000000  0.5638250000000 1.0
C      1  0.4778460000000  0.4455590000000  0.5682050000000 1.0
C      1  0.4586500000000  0.5548060000000  0.4537620000000 1.0
C      1  0.5694630000000  0.5028550000000  0.4375150000000 1.0
C      1  0.4761140000000  0.4439420000000  0.4416080000000 1.0
C      1  0.4930160000000  0.5557730000000  0.5151710000000 1.0
C      1  0.4647390000000  0.4577570000000  0.5179530000000 1.0
C      1  0.5503940000000  0.4905610000000  0.5149720000000 1.0
C      1  0.4831060000000  0.5592700000000  0.4850250000000 1.0
C      1  0.4556290000000  0.4677770000000  0.4867310000000 1.0
C      1  0.5562160000000  0.4857550000000  0.4848920000000 1.0
C      1  0.4926480000000  0.4452310000000  0.5030520000000 1.0
C      1  0.4605980000000  0.5478320000000  0.5174820000000 1.0
C      1  0.5629820000000  0.5119470000000  0.5369250000000 1.0
C      1  0.4842960000000  0.4437260000000  0.4705690000000 1.0
C      1  0.4572910000000  0.5401160000000  0.4844140000000 1.0
C      1  0.5620620000000  0.5112780000000  0.4646140000000 1.0
C      1  0.5120070000000  0.5234180000000  0.5015710000000 1.0
END
