TITL C-2622959-7779-160 -0.00102074154299612 125000 -808.003310071127 0 0 165 (C1) n - 1
REM
REM in /nfs/bkarasulu/CARBON/AIRSS/Generating-Clusters/AIREBO/with-SteepDescent/Higher-Symm/SD-CG/HFTN-CG
REM
REM
REM
REM
REM
REM ./C.cell (b20cbc046b6831c77cfcea5457e17084)
REM
REM compiler GCC version 9.2.1 20190827 (Red Hat 9.2.1-1)
REM options -cpp -mtune=generic -march=x86-64 -g -O0 -fpre-include=/usr/include/finclude/math-vector-fortran.h
REM seed -1872450011 172784093 -2144145029 -408053718 -1462092433 1515411995 -1990387409 -584159666 1557361363 1892770613 -1317986357 -753282904 1035425013 821560586 -1522868974 -430910669 1802266071 1833018199 1915823881 -1788519615 -45058420 -145610656 -309334849 -2098960937 636033525 -280130081 1734109419 1779131288 1012855776 329568073 1768572404 -27295076 -211408102
REM
CELL 1.54180   50.00000   50.00000   50.00000   90.00000   90.00000   90.00000
LATT -1
SFAC C  
C      1  0.5283890000000  0.5307150000000  0.5492040000000 1.0
C      1  0.5278160000000  0.4726940000000  0.5487910000000 1.0
C      1  0.5258120000000  0.4257900000000  0.5321410000000 1.0
C      1  0.5179050000000  0.5724690000000  0.5216320000000 1.0
C      1  0.4264010000000  0.4782620000000  0.4848710000000 1.0
C      1  0.4206000000000  0.5176670000000  0.4817410000000 1.0
C      1  0.4382140000000  0.4617190000000  0.4508400000000 1.0
C      1  0.4469350000000  0.5286190000000  0.4499960000000 1.0
C      1  0.4236510000000  0.5458250000000  0.4678620000000 1.0
C      1  0.4139250000000  0.4493470000000  0.4720490000000 1.0
C      1  0.4627580000000  0.4395120000000  0.4586560000000 1.0
C      1  0.4617990000000  0.5577760000000  0.4622830000000 1.0
C      1  0.5240250000000  0.5282310000000  0.5162290000000 1.0
C      1  0.5249180000000  0.4679650000000  0.5157130000000 1.0
C      1  0.5469920000000  0.4528920000000  0.5687080000000 1.0
C      1  0.5546540000000  0.5395560000000  0.5648160000000 1.0
C      1  0.4015340000000  0.5314590000000  0.5322200000000 1.0
C      1  0.4035460000000  0.4692310000000  0.5370690000000 1.0
C      1  0.4712570000000  0.5716110000000  0.5833110000000 1.0
C      1  0.4671670000000  0.4396670000000  0.5774840000000 1.0
C      1  0.4466000000000  0.4192790000000  0.5288540000000 1.0
C      1  0.4497590000000  0.5769020000000  0.5337410000000 1.0
C      1  0.5272850000000  0.4160230000000  0.4471650000000 1.0
C      1  0.5321270000000  0.5855520000000  0.4465860000000 1.0
C      1  0.5476570000000  0.5329990000000  0.4505140000000 1.0
C      1  0.5481520000000  0.4659720000000  0.4523910000000 1.0
C      1  0.4359810000000  0.4270310000000  0.4713130000000 1.0
C      1  0.4344840000000  0.5746810000000  0.4734400000000 1.0
C      1  0.5086020000000  0.5890590000000  0.4705430000000 1.0
C      1  0.5089960000000  0.4105700000000  0.4730080000000 1.0
C      1  0.4376380000000  0.5148210000000  0.5237880000000 1.0
C      1  0.4456450000000  0.4692160000000  0.5250120000000 1.0
C      1  0.5280010000000  0.4731280000000  0.6143300000000 1.0
C      1  0.5238500000000  0.5348650000000  0.6048300000000 1.0
C      1  0.4436200000000  0.5364200000000  0.5493630000000 1.0
C      1  0.4400850000000  0.4516640000000  0.5511110000000 1.0
C      1  0.4772760000000  0.5797740000000  0.5508490000000 1.0
C      1  0.4663380000000  0.4132810000000  0.5560480000000 1.0
C      1  0.4777190000000  0.5360830000000  0.5507300000000 1.0
C      1  0.4737550000000  0.4511260000000  0.5461520000000 1.0
C      1  0.5462620000000  0.3999200000000  0.5009820000000 1.0
C      1  0.5618340000000  0.5830350000000  0.4921560000000 1.0
C      1  0.4861050000000  0.4141060000000  0.5321030000000 1.0
C      1  0.4830980000000  0.5912250000000  0.5191430000000 1.0
C      1  0.5283940000000  0.5544820000000  0.5813520000000 1.0
C      1  0.5283540000000  0.4262880000000  0.5790420000000 1.0
C      1  0.5069770000000  0.4460170000000  0.5519930000000 1.0
C      1  0.5070080000000  0.5532040000000  0.5477430000000 1.0
C      1  0.5204560000000  0.4731680000000  0.4378990000000 1.0
C      1  0.5187270000000  0.5244400000000  0.4428120000000 1.0
C      1  0.5908460000000  0.5411690000000  0.4926810000000 1.0
C      1  0.5924920000000  0.4583520000000  0.4925290000000 1.0
C      1  0.5828100000000  0.4631470000000  0.5247700000000 1.0
C      1  0.5824110000000  0.5306440000000  0.5217930000000 1.0
C      1  0.5157200000000  0.5501790000000  0.4100320000000 1.0
C      1  0.5198610000000  0.4546650000000  0.4093770000000 1.0
C      1  0.5003780000000  0.4727090000000  0.6104130000000 1.0
C      1  0.4999830000000  0.5209320000000  0.6053600000000 1.0
C      1  0.5027920000000  0.5730920000000  0.5726080000000 1.0
C      1  0.4953690000000  0.4213810000000  0.5723480000000 1.0
C      1  0.4759990000000  0.4059850000000  0.4766300000000 1.0
C      1  0.4787940000000  0.5849610000000  0.4859990000000 1.0
C      1  0.4907220000000  0.5265070000000  0.5208030000000 1.0
C      1  0.4913980000000  0.4657880000000  0.5210350000000 1.0
C      1  0.4765680000000  0.5189430000000  0.4917510000000 1.0
C      1  0.4773590000000  0.4730690000000  0.4928510000000 1.0
C      1  0.4974600000000  0.5277400000000  0.4047130000000 1.0
C      1  0.4983830000000  0.4751030000000  0.3973340000000 1.0
C      1  0.4636880000000  0.4249770000000  0.5000060000000 1.0
C      1  0.4583200000000  0.5641220000000  0.5034080000000 1.0
C      1  0.4882520000000  0.5579600000000  0.5137010000000 1.0
C      1  0.4934370000000  0.4336510000000  0.5103160000000 1.0
C      1  0.5498420000000  0.5237250000000  0.5937040000000 1.0
C      1  0.5408100000000  0.4796390000000  0.5859410000000 1.0
C      1  0.5546050000000  0.5410490000000  0.5092840000000 1.0
C      1  0.5563120000000  0.4565960000000  0.5092630000000 1.0
C      1  0.5803730000000  0.5276730000000  0.5525810000000 1.0
C      1  0.5759600000000  0.4656780000000  0.5561460000000 1.0
C      1  0.5543940000000  0.4198540000000  0.4526550000000 1.0
C      1  0.5592450000000  0.5814750000000  0.4480410000000 1.0
C      1  0.5375160000000  0.4048090000000  0.5433650000000 1.0
C      1  0.5325970000000  0.5941650000000  0.5388260000000 1.0
C      1  0.4266280000000  0.5533030000000  0.5251850000000 1.0
C      1  0.4193110000000  0.4395900000000  0.5297710000000 1.0
C      1  0.5427020000000  0.4466830000000  0.4798760000000 1.0
C      1  0.5423370000000  0.5506710000000  0.4790690000000 1.0
C      1  0.5933410000000  0.4683520000000  0.4600400000000 1.0
C      1  0.5907900000000  0.5324930000000  0.4597250000000 1.0
C      1  0.4876860000000  0.4206530000000  0.4486940000000 1.0
C      1  0.4807070000000  0.5831090000000  0.4520270000000 1.0
C      1  0.4873250000000  0.5174460000000  0.5753680000000 1.0
C      1  0.4971340000000  0.4656380000000  0.5779710000000 1.0
C      1  0.5065200000000  0.4295640000000  0.4246220000000 1.0
C      1  0.5060480000000  0.5711590000000  0.4337650000000 1.0
C      1  0.4702680000000  0.4666310000000  0.4100260000000 1.0
C      1  0.4705300000000  0.5288330000000  0.4254620000000 1.0
C      1  0.4235850000000  0.5576500000000  0.5668060000000 1.0
C      1  0.4250440000000  0.4514040000000  0.5775260000000 1.0
C      1  0.4904770000000  0.4584980000000  0.4361390000000 1.0
C      1  0.4950440000000  0.5428100000000  0.4434590000000 1.0
C      1  0.5745400000000  0.4413660000000  0.4691650000000 1.0
C      1  0.5738910000000  0.5601350000000  0.4700990000000 1.0
C      1  0.5630930000000  0.5325760000000  0.4225090000000 1.0
C      1  0.5656590000000  0.4700930000000  0.4248670000000 1.0
C      1  0.4342360000000  0.4080890000000  0.4980630000000 1.0
C      1  0.4288100000000  0.5808990000000  0.5054190000000 1.0
C      1  0.4909590000000  0.4542310000000  0.4698730000000 1.0
C      1  0.4896590000000  0.5421760000000  0.4740630000000 1.0
C      1  0.4377170000000  0.5419900000000  0.4201110000000 1.0
C      1  0.4419140000000  0.4556270000000  0.4209500000000 1.0
C      1  0.5455450000000  0.5502150000000  0.4073640000000 1.0
C      1  0.5524180000000  0.4534210000000  0.4054520000000 1.0
C      1  0.5184750000000  0.4698090000000  0.4823790000000 1.0
C      1  0.5186700000000  0.5265070000000  0.4826970000000 1.0
C      1  0.4079660000000  0.5415150000000  0.4993070000000 1.0
C      1  0.4097450000000  0.4583110000000  0.5054660000000 1.0
C      1  0.5288600000000  0.5774720000000  0.4915980000000 1.0
C      1  0.5239940000000  0.4249590000000  0.4981860000000 1.0
C      1  0.4546890000000  0.5536030000000  0.5950940000000 1.0
C      1  0.4592540000000  0.4617580000000  0.5945640000000 1.0
C      1  0.5645440000000  0.5186460000000  0.4862680000000 1.0
C      1  0.5650840000000  0.4791120000000  0.4860400000000 1.0
C      1  0.5745150000000  0.6028130000000  0.5031290000000 1.0
C      1  0.5646850000000  0.3825600000000  0.5042240000000 1.0
C      1  0.4592350000000  0.4956900000000  0.5971670000000 1.0
C      1  0.4475410000000  0.5271990000000  0.5934120000000 1.0
C      1  0.4486420000000  0.4553090000000  0.4968470000000 1.0
C      1  0.4467180000000  0.5326620000000  0.4976420000000 1.0
C      1  0.6162970000000  0.5008040000000  0.5061240000000 1.0
C      1  0.5896620000000  0.4962030000000  0.5622080000000 1.0
C      1  0.5064830000000  0.5023950000000  0.3937770000000 1.0
C      1  0.5116600000000  0.4938600000000  0.5785300000000 1.0
C      1  0.5641860000000  0.4979250000000  0.3950830000000 1.0
C      1  0.5391110000000  0.5010140000000  0.4178380000000 1.0
C      1  0.4857680000000  0.4969730000000  0.6144060000000 1.0
C      1  0.5780180000000  0.5019010000000  0.4259830000000 1.0
C      1  0.4887260000000  0.4961050000000  0.5319900000000 1.0
C      1  0.4529250000000  0.4954180000000  0.4851350000000 1.0
C      1  0.4735420000000  0.4879780000000  0.5679540000000 1.0
C      1  0.4589660000000  0.4985660000000  0.4151100000000 1.0
C      1  0.4463840000000  0.4947030000000  0.4528440000000 1.0
C      1  0.4899290000000  0.4959490000000  0.4710410000000 1.0
C      1  0.4014160000000  0.4958270000000  0.4363680000000 1.0
C      1  0.5578360000000  0.5003240000000  0.5707660000000 1.0
C      1  0.5133530000000  0.5030440000000  0.5490050000000 1.0
C      1  0.4190330000000  0.5005230000000  0.5975100000000 1.0
C      1  0.5350440000000  0.5041700000000  0.3845260000000 1.0
C      1  0.4770430000000  0.4891140000000  0.4423450000000 1.0
C      1  0.4576680000000  0.4940180000000  0.5384860000000 1.0
C      1  0.5139100000000  0.4981710000000  0.4549140000000 1.0
C      1  0.5587860000000  0.4980000000000  0.5368570000000 1.0
C      1  0.5863500000000  0.4968740000000  0.5224980000000 1.0
C      1  0.4081290000000  0.5010830000000  0.5482710000000 1.0
C      1  0.4269240000000  0.4970490000000  0.4263820000000 1.0
C      1  0.5529690000000  0.4994510000000  0.4488530000000 1.0
C      1  0.4066280000000  0.5030870000000  0.5161510000000 1.0
C      1  0.5365440000000  0.4985760000000  0.5132530000000 1.0
C      1  0.5915850000000  0.5002270000000  0.4831610000000 1.0
C      1  0.5990270000000  0.5006570000000  0.4510230000000 1.0
C      1  0.4029190000000  0.4951440000000  0.4669750000000 1.0
C      1  0.4283280000000  0.5132810000000  0.5690470000000 1.0
C      1  0.3909190000000  0.4924430000000  0.4965110000000 1.0
C      1  0.6150330000000  0.5017940000000  0.5400940000000 1.0
C      1  0.5376830000000  0.4980960000000  0.4792610000000 1.0
C      1  0.4527010000000  0.5067430000000  0.3842140000000 1.0
END
