TITL C-2622964-2985-279 -0.00179378262489243 125000 -661.571300274901 0 0 124 (C1) n - 1
REM
REM in /nfs/bkarasulu/CARBON/AIRSS/Generating-Clusters/AIREBO/with-SteepDescent/Higher-Symm/SD-CG/HFTN-CG
REM
REM
REM
REM
REM
REM ./C.cell (b20cbc046b6831c77cfcea5457e17084)
REM
REM compiler GCC version 9.2.1 20190827 (Red Hat 9.2.1-1)
REM options -cpp -mtune=generic -march=x86-64 -g -O0 -fpre-include=/usr/include/finclude/math-vector-fortran.h
REM seed 1824269046 727558054 -1355128447 1932484043 -1161983519 184630888 -1070654251 -905303309 1737239696 -474805601 1612743287 284092560 487693112 -1584480885 66027580 -151827187 -467656927 1347035601 2141899640 1907017826 460373615 300447483 830068672 1195713078 -1644394344 -87040090 -1239505023 -851992254 -265400923 -564582747 -684932357 -256188921 960738997
REM
CELL 1.54180   50.00000   50.00000   50.00000   90.00000   90.00000   90.00000
LATT -1
SFAC C  
C      1  0.5034550000000  0.5902480000000  0.5328810000000 1.0
C      1  0.5004390000000  0.4391510000000  0.5741720000000 1.0
C      1  0.4882750000000  0.4831160000000  0.3934530000000 1.0
C      1  0.5026580000000  0.5875790000000  0.4650820000000 1.0
C      1  0.5046060000000  0.4171140000000  0.4390000000000 1.0
C      1  0.5040270000000  0.4676440000000  0.5937910000000 1.0
C      1  0.5508710000000  0.5564450000000  0.5577680000000 1.0
C      1  0.5537470000000  0.4190110000000  0.5151520000000 1.0
C      1  0.5486200000000  0.5285230000000  0.4240120000000 1.0
C      1  0.5450660000000  0.5581090000000  0.4403860000000 1.0
C      1  0.5404610000000  0.4268140000000  0.4848440000000 1.0
C      1  0.5500680000000  0.5277030000000  0.5747200000000 1.0
C      1  0.4541960000000  0.4812650000000  0.5562170000000 1.0
C      1  0.4555570000000  0.4621380000000  0.4517260000000 1.0
C      1  0.4450840000000  0.5568350000000  0.4843120000000 1.0
C      1  0.4533220000000  0.4860100000000  0.4276170000000 1.0
C      1  0.4446270000000  0.4496030000000  0.5547060000000 1.0
C      1  0.4458620000000  0.5731790000000  0.5127550000000 1.0
C      1  0.4590490000000  0.5757590000000  0.5419190000000 1.0
C      1  0.4524680000000  0.4200640000000  0.5439390000000 1.0
C      1  0.4396650000000  0.5127310000000  0.4159480000000 1.0
C      1  0.4566550000000  0.5805090000000  0.4671870000000 1.0
C      1  0.4540050000000  0.4295860000000  0.4536100000000 1.0
C      1  0.4560020000000  0.4935570000000  0.5878700000000 1.0
C      1  0.5107990000000  0.4988610000000  0.4708170000000 1.0
C      1  0.4930660000000  0.5240660000000  0.5117820000000 1.0
C      1  0.4912480000000  0.4735940000000  0.5139540000000 1.0
C      1  0.5020220000000  0.4987400000000  0.5272880000000 1.0
C      1  0.4954960000000  0.5200800000000  0.4803760000000 1.0
C      1  0.5045270000000  0.4730790000000  0.4851810000000 1.0
C      1  0.5055890000000  0.5838280000000  0.5643930000000 1.0
C      1  0.4998570000000  0.4150960000000  0.5497430000000 1.0
C      1  0.4981900000000  0.5091990000000  0.3990500000000 1.0
C      1  0.5060230000000  0.5759830000000  0.4380020000000 1.0
C      1  0.5005140000000  0.4032640000000  0.4697960000000 1.0
C      1  0.4990290000000  0.5013260000000  0.5937660000000 1.0
C      1  0.4859340000000  0.5620800000000  0.5823700000000 1.0
C      1  0.4883740000000  0.4011850000000  0.5209130000000 1.0
C      1  0.4863020000000  0.5338110000000  0.4122510000000 1.0
C      1  0.4931860000000  0.5622240000000  0.4114900000000 1.0
C      1  0.4945820000000  0.3888210000000  0.4958800000000 1.0
C      1  0.4825160000000  0.5313670000000  0.5928760000000 1.0
C      1  0.4422720000000  0.5364920000000  0.4319070000000 1.0
C      1  0.4565060000000  0.5490030000000  0.5594580000000 1.0
C      1  0.4525910000000  0.4169810000000  0.5129660000000 1.0
C      1  0.4477730000000  0.5241250000000  0.5753440000000 1.0
C      1  0.4562990000000  0.5575790000000  0.4462100000000 1.0
C      1  0.4529870000000  0.4229860000000  0.4830570000000 1.0
C      1  0.5474400000000  0.4392040000000  0.4564060000000 1.0
C      1  0.5502250000000  0.5677440000000  0.4695110000000 1.0
C      1  0.5501880000000  0.4985870000000  0.5686010000000 1.0
C      1  0.5541740000000  0.4376370000000  0.5417050000000 1.0
C      1  0.5540030000000  0.5680090000000  0.5294550000000 1.0
C      1  0.5702020000000  0.5094150000000  0.4185170000000 1.0
C      1  0.5713610000000  0.4917140000000  0.5514680000000 1.0
C      1  0.5640610000000  0.4653260000000  0.4658310000000 1.0
C      1  0.5673980000000  0.5485680000000  0.4850520000000 1.0
C      1  0.5703250000000  0.4894490000000  0.4426680000000 1.0
C      1  0.5687910000000  0.4629630000000  0.5381370000000 1.0
C      1  0.5756980000000  0.5575870000000  0.5150920000000 1.0
C      1  0.5215040000000  0.4481350000000  0.4415800000000 1.0
C      1  0.5245830000000  0.5752140000000  0.4834280000000 1.0
C      1  0.5183950000000  0.4882240000000  0.5620290000000 1.0
C      1  0.5256250000000  0.4432460000000  0.5516970000000 1.0
C      1  0.5230140000000  0.5685800000000  0.5154130000000 1.0
C      1  0.5196540000000  0.4815860000000  0.4355920000000 1.0
C      1  0.5901760000000  0.5073240000000  0.5300690000000 1.0
C      1  0.5860160000000  0.4753520000000  0.4893790000000 1.0
C      1  0.5887090000000  0.5228530000000  0.4820450000000 1.0
C      1  0.5860030000000  0.4983100000000  0.4705450000000 1.0
C      1  0.5860360000000  0.4798980000000  0.5163830000000 1.0
C      1  0.5893220000000  0.5296880000000  0.5123440000000 1.0
C      1  0.4227020000000  0.4568630000000  0.4588280000000 1.0
C      1  0.4113530000000  0.5571630000000  0.4797910000000 1.0
C      1  0.4218970000000  0.4926720000000  0.5561710000000 1.0
C      1  0.4215720000000  0.4642340000000  0.5405790000000 1.0
C      1  0.4172410000000  0.5575740000000  0.5123350000000 1.0
C      1  0.4248980000000  0.4859600000000  0.4443910000000 1.0
C      1  0.4936080000000  0.4409820000000  0.4588480000000 1.0
C      1  0.4984050000000  0.5535770000000  0.4854730000000 1.0
C      1  0.4876590000000  0.4737920000000  0.5588380000000 1.0
C      1  0.4970840000000  0.4528770000000  0.5369040000000 1.0
C      1  0.4922800000000  0.5547060000000  0.5197950000000 1.0
C      1  0.4867370000000  0.4896280000000  0.4327740000000 1.0
C      1  0.5210550000000  0.4234210000000  0.5244530000000 1.0
C      1  0.5192860000000  0.5132590000000  0.4230570000000 1.0
C      1  0.5197580000000  0.5529050000000  0.5649680000000 1.0
C      1  0.5090150000000  0.4258480000000  0.4927440000000 1.0
C      1  0.5112820000000  0.5205160000000  0.5684940000000 1.0
C      1  0.5146070000000  0.5430810000000  0.4388250000000 1.0
C      1  0.4276610000000  0.4748830000000  0.5101070000000 1.0
C      1  0.4275750000000  0.5055470000000  0.4701010000000 1.0
C      1  0.4270340000000  0.5256300000000  0.5164170000000 1.0
C      1  0.4183210000000  0.4766970000000  0.4821140000000 1.0
C      1  0.4164100000000  0.5005890000000  0.5273870000000 1.0
C      1  0.4173280000000  0.5277040000000  0.4863100000000 1.0
C      1  0.4775930000000  0.4368250000000  0.4301290000000 1.0
C      1  0.4788330000000  0.5916700000000  0.4808770000000 1.0
C      1  0.4717460000000  0.4634220000000  0.5870450000000 1.0
C      1  0.4670210000000  0.4332270000000  0.5720470000000 1.0
C      1  0.4743910000000  0.5915420000000  0.5151330000000 1.0
C      1  0.4819560000000  0.4620360000000  0.4134890000000 1.0
C      1  0.5344140000000  0.4660660000000  0.4824790000000 1.0
C      1  0.5444420000000  0.5261460000000  0.4910600000000 1.0
C      1  0.5318550000000  0.4996170000000  0.5333510000000 1.0
C      1  0.5446540000000  0.4772370000000  0.5189020000000 1.0
C      1  0.5263670000000  0.5347680000000  0.5139370000000 1.0
C      1  0.5406830000000  0.4966070000000  0.4577110000000 1.0
C      1  0.4584070000000  0.4777650000000  0.5110820000000 1.0
C      1  0.4607030000000  0.5047690000000  0.4680930000000 1.0
C      1  0.4582040000000  0.5243550000000  0.5147940000000 1.0
C      1  0.4710010000000  0.4740670000000  0.4795700000000 1.0
C      1  0.4689590000000  0.5009980000000  0.5337390000000 1.0
C      1  0.4641010000000  0.5321200000000  0.4854390000000 1.0
C      1  0.4811180000000  0.4340210000000  0.5201710000000 1.0
C      1  0.4720000000000  0.5195110000000  0.4395960000000 1.0
C      1  0.4891460000000  0.5514190000000  0.5502250000000 1.0
C      1  0.4796190000000  0.4420260000000  0.4871160000000 1.0
C      1  0.4780770000000  0.5155280000000  0.5631040000000 1.0
C      1  0.4851620000000  0.5469220000000  0.4548320000000 1.0
C      1  0.5405200000000  0.5283430000000  0.5416650000000 1.0
C      1  0.5465200000000  0.5284090000000  0.4576680000000 1.0
C      1  0.5574450000000  0.4505120000000  0.5022170000000 1.0
C      1  0.5506780000000  0.4940650000000  0.4902100000000 1.0
END
