TITL C-2622954-8726-43 -0.00193178926507518 125000 -670.062829538183 0 0 124 (C1) n - 1
REM
REM in /nfs/bkarasulu/CARBON/AIRSS/Generating-Clusters/AIREBO/with-SteepDescent/Higher-Symm/SD-CG/HFTN-CG
REM
REM
REM
REM
REM
REM ./C.cell (b20cbc046b6831c77cfcea5457e17084)
REM
REM compiler GCC version 9.2.1 20190827 (Red Hat 9.2.1-1)
REM options -cpp -mtune=generic -march=x86-64 -g -O0 -fpre-include=/usr/include/finclude/math-vector-fortran.h
REM seed 1797734807 175706756 -1602681953 -1810458359 -1204343455 604518762 -2073916549 -346914815 -1664665225 -75294046 -1668691162 -397646419 -2144900710 1134916344 -261402900 1015542602 -504357676 -228247285 -627461913 -66572224 -1153318686 -341161422 -994255542 -1850820421 -591338307 238845488 -557334003 714877970 161316549 1589984717 -1199358777 62494287 -1920370704
REM
CELL 1.54180   50.00000   50.00000   50.00000   90.00000   90.00000   90.00000
LATT -1
SFAC C  
C      1  0.4914210000000  0.5640660000000  0.4415660000000 1.0
C      1  0.4950670000000  0.4642380000000  0.4179900000000 1.0
C      1  0.4928560000000  0.4149220000000  0.5079400000000 1.0
C      1  0.4931030000000  0.4819590000000  0.5845860000000 1.0
C      1  0.4920800000000  0.5768360000000  0.5438520000000 1.0
C      1  0.5124240000000  0.4908320000000  0.4246600000000 1.0
C      1  0.5124870000000  0.4252080000000  0.4842120000000 1.0
C      1  0.5122800000000  0.4573510000000  0.5716380000000 1.0
C      1  0.5108070000000  0.5561980000000  0.5614460000000 1.0
C      1  0.5089010000000  0.5718720000000  0.4677740000000 1.0
C      1  0.5517690000000  0.5041820000000  0.4655850000000 1.0
C      1  0.5534750000000  0.4686320000000  0.4826210000000 1.0
C      1  0.5517070000000  0.4737750000000  0.5217640000000 1.0
C      1  0.5492390000000  0.5125090000000  0.5288090000000 1.0
C      1  0.5491400000000  0.5312840000000  0.4942230000000 1.0
C      1  0.3985270000000  0.5238760000000  0.4777920000000 1.0
C      1  0.4046790000000  0.4848620000000  0.4754400000000 1.0
C      1  0.3989350000000  0.4688060000000  0.5111670000000 1.0
C      1  0.4071260000000  0.5001770000000  0.5359090000000 1.0
C      1  0.3983920000000  0.5334870000000  0.5161830000000 1.0
C      1  0.5353120000000  0.4464370000000  0.4305010000000 1.0
C      1  0.5335350000000  0.4159620000000  0.5292020000000 1.0
C      1  0.5342400000000  0.5020040000000  0.5852030000000 1.0
C      1  0.5327590000000  0.5813350000000  0.5231360000000 1.0
C      1  0.5320810000000  0.5471670000000  0.4300890000000 1.0
C      1  0.5528570000000  0.5262880000000  0.4412990000000 1.0
C      1  0.5556090000000  0.4496940000000  0.4546480000000 1.0
C      1  0.5500250000000  0.4420740000000  0.5331740000000 1.0
C      1  0.5536360000000  0.5115060000000  0.5616560000000 1.0
C      1  0.5528850000000  0.5623190000000  0.5068930000000 1.0
C      1  0.4616950000000  0.4321870000000  0.4559720000000 1.0
C      1  0.4634850000000  0.4413630000000  0.5484720000000 1.0
C      1  0.4630020000000  0.5287680000000  0.5717300000000 1.0
C      1  0.4620870000000  0.5758820000000  0.4954520000000 1.0
C      1  0.4634910000000  0.5143910000000  0.4290290000000 1.0
C      1  0.4693280000000  0.4675190000000  0.4097120000000 1.0
C      1  0.4674030000000  0.4098970000000  0.5010860000000 1.0
C      1  0.4672350000000  0.4753100000000  0.5882040000000 1.0
C      1  0.4663760000000  0.5779400000000  0.5519870000000 1.0
C      1  0.4658130000000  0.5722300000000  0.4425500000000 1.0
C      1  0.4108300000000  0.5159640000000  0.4512210000000 1.0
C      1  0.4158740000000  0.4569950000000  0.4622900000000 1.0
C      1  0.4154060000000  0.4510790000000  0.5328250000000 1.0
C      1  0.4127670000000  0.5209780000000  0.5578390000000 1.0
C      1  0.4133010000000  0.5550900000000  0.5006000000000 1.0
C      1  0.5411880000000  0.4752180000000  0.5729550000000 1.0
C      1  0.5393090000000  0.5617270000000  0.5451680000000 1.0
C      1  0.5390750000000  0.5623720000000  0.4552550000000 1.0
C      1  0.5427670000000  0.4754340000000  0.4256600000000 1.0
C      1  0.5423490000000  0.4211840000000  0.5000230000000 1.0
C      1  0.5228030000000  0.4608550000000  0.5267250000000 1.0
C      1  0.5229640000000  0.5077710000000  0.5473260000000 1.0
C      1  0.5240200000000  0.5444810000000  0.5105330000000 1.0
C      1  0.5253480000000  0.5230980000000  0.4612940000000 1.0
C      1  0.5262210000000  0.4625670000000  0.4659340000000 1.0
C      1  0.5821340000000  0.4661130000000  0.4970970000000 1.0
C      1  0.5800120000000  0.4870780000000  0.5305800000000 1.0
C      1  0.5781900000000  0.5252980000000  0.5210520000000 1.0
C      1  0.5791800000000  0.5282670000000  0.4816460000000 1.0
C      1  0.5818050000000  0.4916280000000  0.4666720000000 1.0
C      1  0.5836980000000  0.5587170000000  0.5193400000000 1.0
C      1  0.5838940000000  0.5359680000000  0.4488660000000 1.0
C      1  0.5863810000000  0.4615140000000  0.4520690000000 1.0
C      1  0.5813190000000  0.4472230000000  0.5247390000000 1.0
C      1  0.5847220000000  0.5001680000000  0.5616060000000 1.0
C      1  0.4505670000000  0.4717270000000  0.4873260000000 1.0
C      1  0.4575290000000  0.4777040000000  0.5257430000000 1.0
C      1  0.4539310000000  0.5171130000000  0.5308730000000 1.0
C      1  0.4563300000000  0.5345180000000  0.4949430000000 1.0
C      1  0.4583550000000  0.5054990000000  0.4676190000000 1.0
C      1  0.5671530000000  0.4347250000000  0.4978350000000 1.0
C      1  0.5658240000000  0.4736080000000  0.5589940000000 1.0
C      1  0.5629860000000  0.5473500000000  0.5423800000000 1.0
C      1  0.5640890000000  0.5551600000000  0.4664360000000 1.0
C      1  0.5677330000000  0.4830180000000  0.4362240000000 1.0
C      1  0.5115460000000  0.4570440000000  0.4961110000000 1.0
C      1  0.5099790000000  0.4803300000000  0.5475990000000 1.0
C      1  0.5108940000000  0.5350740000000  0.5361800000000 1.0
C      1  0.5134670000000  0.5423780000000  0.4799900000000 1.0
C      1  0.5119900000000  0.4923330000000  0.4577180000000 1.0
C      1  0.4807580000000  0.4827320000000  0.5452280000000 1.0
C      1  0.4812410000000  0.5339370000000  0.5317830000000 1.0
C      1  0.4828700000000  0.5419550000000  0.4787750000000 1.0
C      1  0.4807880000000  0.4878120000000  0.4586460000000 1.0
C      1  0.4806050000000  0.4575390000000  0.4974870000000 1.0
C      1  0.5050860000000  0.5846940000000  0.5194580000000 1.0
C      1  0.5045750000000  0.5435410000000  0.4263520000000 1.0
C      1  0.5075160000000  0.4423030000000  0.4322430000000 1.0
C      1  0.5055710000000  0.4187350000000  0.5332810000000 1.0
C      1  0.5065750000000  0.5072210000000  0.5857190000000 1.0
C      1  0.4322380000000  0.4928910000000  0.4568860000000 1.0
C      1  0.4241750000000  0.4554480000000  0.4941100000000 1.0
C      1  0.4280350000000  0.4790560000000  0.5388740000000 1.0
C      1  0.4265740000000  0.5349420000000  0.5323830000000 1.0
C      1  0.4285050000000  0.5399190000000  0.4777540000000 1.0
C      1  0.4610420000000  0.5346580000000  0.4552370000000 1.0
C      1  0.4722500000000  0.4599970000000  0.4669250000000 1.0
C      1  0.4574040000000  0.4453130000000  0.5164390000000 1.0
C      1  0.4561670000000  0.4999400000000  0.5588180000000 1.0
C      1  0.4586450000000  0.5552460000000  0.5200720000000 1.0
C      1  0.4936320000000  0.5308450000000  0.5762220000000 1.0
C      1  0.4921500000000  0.5835150000000  0.4938640000000 1.0
C      1  0.4936300000000  0.5176490000000  0.4204810000000 1.0
C      1  0.4955970000000  0.4297820000000  0.4550460000000 1.0
C      1  0.4937450000000  0.4360340000000  0.5526980000000 1.0
C      1  0.4389510000000  0.4552070000000  0.4455350000000 1.0
C      1  0.4312540000000  0.4317480000000  0.5434350000000 1.0
C      1  0.4301940000000  0.5234870000000  0.5790400000000 1.0
C      1  0.4293540000000  0.5776520000000  0.5046320000000 1.0
C      1  0.4304510000000  0.5224850000000  0.4301560000000 1.0
C      1  0.4494170000000  0.4832700000000  0.4294410000000 1.0
C      1  0.4473160000000  0.4315210000000  0.4870320000000 1.0
C      1  0.4486180000000  0.4670730000000  0.5631640000000 1.0
C      1  0.4493440000000  0.5506160000000  0.5521880000000 1.0
C      1  0.4495850000000  0.5637240000000  0.4685270000000 1.0
C      1  0.4598690000000  0.5012970000000  0.5013430000000 1.0
C      1  0.5853130000000  0.4999280000000  0.4994970000000 1.0
C      1  0.6187930000000  0.5015580000000  0.5007950000000 1.0
C      1  0.3962960000000  0.5019030000000  0.5036810000000 1.0
C      1  0.6442550000000  0.5028120000000  0.5018010000000 1.0
C      1  0.4283210000000  0.5021760000000  0.5023500000000 1.0
C      1  0.5455030000000  0.4977120000000  0.4983940000000 1.0
C      1  0.4912960000000  0.5012510000000  0.5029350000000 1.0
C      1  0.5141180000000  0.4904330000000  0.4918830000000 1.0
END
