TITL C-2622966-9038-485 -0.000744892003086733 125000 -1045.21774600327 0 0 191 (C1) n - 1
REM
REM in /nfs/bkarasulu/CARBON/AIRSS/Generating-Clusters/AIREBO/with-SteepDescent/Higher-Symm/SD-CG/HFTN-CG
REM
REM
REM
REM
REM
REM ./C.cell (b20cbc046b6831c77cfcea5457e17084)
REM
REM compiler GCC version 9.2.1 20190827 (Red Hat 9.2.1-1)
REM options -cpp -mtune=generic -march=x86-64 -g -O0 -fpre-include=/usr/include/finclude/math-vector-fortran.h
REM seed 397693925 -965206752 -1213600282 -185725819 1833215986 1006333565 479521177 -1583395251 -1296030347 -1504627053 400596314 777831611 1111581963 -455321578 544796337 711832495 1810797255 -1401901757 -623487743 836006199 -1761853715 -333565210 -2012577087 -2139914462 -1914444960 27431219 1547242933 1814015742 838881743 1757950890 218428583 1849776196 -1947846863
REM
CELL 1.54180   50.00000   50.00000   50.00000   90.00000   90.00000   90.00000
LATT -1
SFAC C  
C      1  0.4786190000000  0.4709070000000  0.5148540000000 1.0
C      1  0.5009620000000  0.4913860000000  0.5214850000000 1.0
C      1  0.5232110000000  0.4880180000000  0.4988220000000 1.0
C      1  0.5081430000000  0.4956190000000  0.4691230000000 1.0
C      1  0.4675410000000  0.4743110000000  0.4871940000000 1.0
C      1  0.5534660000000  0.3965420000000  0.4974420000000 1.0
C      1  0.4975410000000  0.3991510000000  0.4523920000000 1.0
C      1  0.4442800000000  0.3871470000000  0.4842090000000 1.0
C      1  0.4624870000000  0.3939500000000  0.5507250000000 1.0
C      1  0.5239220000000  0.3888720000000  0.5550790000000 1.0
C      1  0.4379140000000  0.4876620000000  0.4872280000000 1.0
C      1  0.4679170000000  0.4825270000000  0.5443480000000 1.0
C      1  0.5272170000000  0.4807280000000  0.5402780000000 1.0
C      1  0.5590220000000  0.4899110000000  0.4732700000000 1.0
C      1  0.4882040000000  0.4854370000000  0.4434960000000 1.0
C      1  0.5402820000000  0.5363980000000  0.5365590000000 1.0
C      1  0.5457440000000  0.5362390000000  0.4647100000000 1.0
C      1  0.4890730000000  0.5459580000000  0.4296080000000 1.0
C      1  0.4475830000000  0.5369240000000  0.4860840000000 1.0
C      1  0.4751350000000  0.5339290000000  0.5594230000000 1.0
C      1  0.5690390000000  0.4509510000000  0.4391650000000 1.0
C      1  0.4570990000000  0.4286470000000  0.4240750000000 1.0
C      1  0.3958470000000  0.4385240000000  0.5177290000000 1.0
C      1  0.4779330000000  0.4384550000000  0.5894590000000 1.0
C      1  0.5822260000000  0.4410060000000  0.5437380000000 1.0
C      1  0.3991360000000  0.4457980000000  0.4677790000000 1.0
C      1  0.4305680000000  0.4496930000000  0.5839320000000 1.0
C      1  0.5637970000000  0.4419660000000  0.5791820000000 1.0
C      1  0.5987610000000  0.4584370000000  0.4699410000000 1.0
C      1  0.5091300000000  0.4508720000000  0.4099270000000 1.0
C      1  0.5184790000000  0.6047950000000  0.5164990000000 1.0
C      1  0.5187050000000  0.5958700000000  0.4858740000000 1.0
C      1  0.4910640000000  0.6079310000000  0.4740650000000 1.0
C      1  0.4727280000000  0.5973050000000  0.4991540000000 1.0
C      1  0.4915500000000  0.6065460000000  0.5250040000000 1.0
C      1  0.4399330000000  0.5228570000000  0.5812280000000 1.0
C      1  0.5614570000000  0.5199270000000  0.5777330000000 1.0
C      1  0.6081830000000  0.5394160000000  0.4636450000000 1.0
C      1  0.5109960000000  0.5212520000000  0.3869810000000 1.0
C      1  0.4072870000000  0.5225060000000  0.4585230000000 1.0
C      1  0.5175340000000  0.5269720000000  0.5600090000000 1.0
C      1  0.5562280000000  0.5277890000000  0.4896900000000 1.0
C      1  0.5199120000000  0.5398180000000  0.4340140000000 1.0
C      1  0.4521470000000  0.5422850000000  0.4534010000000 1.0
C      1  0.4585200000000  0.5286750000000  0.5338140000000 1.0
C      1  0.4394800000000  0.5535630000000  0.4314020000000 1.0
C      1  0.4356460000000  0.5497980000000  0.5341240000000 1.0
C      1  0.5135230000000  0.5492980000000  0.5853530000000 1.0
C      1  0.5777830000000  0.5441540000000  0.5063570000000 1.0
C      1  0.5411100000000  0.5553510000000  0.4159200000000 1.0
C      1  0.5300220000000  0.5078320000000  0.4365050000000 1.0
C      1  0.4595580000000  0.5124140000000  0.4569090000000 1.0
C      1  0.4489930000000  0.4974520000000  0.5238510000000 1.0
C      1  0.5051540000000  0.4953230000000  0.5608340000000 1.0
C      1  0.5618250000000  0.4928020000000  0.5076040000000 1.0
C      1  0.5745490000000  0.5617040000000  0.5341740000000 1.0
C      1  0.5534290000000  0.5663080000000  0.4395460000000 1.0
C      1  0.4536470000000  0.5746060000000  0.4220210000000 1.0
C      1  0.4102490000000  0.5704930000000  0.5369720000000 1.0
C      1  0.5090240000000  0.5694710000000  0.6079470000000 1.0
C      1  0.5180970000000  0.5669240000000  0.5038390000000 1.0
C      1  0.5034600000000  0.5604620000000  0.4755140000000 1.0
C      1  0.4746590000000  0.5716700000000  0.4759170000000 1.0
C      1  0.4697380000000  0.5695320000000  0.5280430000000 1.0
C      1  0.4987610000000  0.5554690000000  0.5255390000000 1.0
C      1  0.5436440000000  0.5961850000000  0.4639080000000 1.0
C      1  0.4689960000000  0.6059010000000  0.4530740000000 1.0
C      1  0.4488190000000  0.6029950000000  0.5217420000000 1.0
C      1  0.4885830000000  0.5985920000000  0.5514410000000 1.0
C      1  0.5410850000000  0.5943890000000  0.5301040000000 1.0
C      1  0.5081120000000  0.3966810000000  0.5302180000000 1.0
C      1  0.5233920000000  0.4050580000000  0.5010150000000 1.0
C      1  0.4951050000000  0.4006520000000  0.4828390000000 1.0
C      1  0.4693660000000  0.3938380000000  0.5009430000000 1.0
C      1  0.4789780000000  0.3873760000000  0.5290190000000 1.0
C      1  0.5236480000000  0.5065810000000  0.6104660000000 1.0
C      1  0.6117610000000  0.5141040000000  0.5131630000000 1.0
C      1  0.5634560000000  0.5145170000000  0.3948600000000 1.0
C      1  0.4262980000000  0.5161100000000  0.4208560000000 1.0
C      1  0.4044130000000  0.5133200000000  0.5483620000000 1.0
C      1  0.5591340000000  0.4242690000000  0.5426460000000 1.0
C      1  0.5770870000000  0.4260450000000  0.4534990000000 1.0
C      1  0.4765800000000  0.4145120000000  0.4382070000000 1.0
C      1  0.4131920000000  0.4230220000000  0.5013870000000 1.0
C      1  0.4692850000000  0.4164170000000  0.5689140000000 1.0
C      1  0.5074000000000  0.5758190000000  0.4225520000000 1.0
C      1  0.4409540000000  0.5697250000000  0.4800420000000 1.0
C      1  0.4649620000000  0.5760900000000  0.5610620000000 1.0
C      1  0.5389290000000  0.5673180000000  0.5507080000000 1.0
C      1  0.5719370000000  0.5861180000000  0.4799450000000 1.0
C      1  0.4028570000000  0.5161800000000  0.5174060000000 1.0
C      1  0.4932030000000  0.5091390000000  0.6081270000000 1.0
C      1  0.5953570000000  0.5129490000000  0.5397340000000 1.0
C      1  0.5762760000000  0.5229810000000  0.4188380000000 1.0
C      1  0.4522090000000  0.5104400000000  0.4095400000000 1.0
C      1  0.5327850000000  0.5650620000000  0.4640100000000 1.0
C      1  0.4799340000000  0.5760240000000  0.4426040000000 1.0
C      1  0.4408210000000  0.5736570000000  0.5114240000000 1.0
C      1  0.4948740000000  0.5598210000000  0.5590350000000 1.0
C      1  0.5480310000000  0.5593600000000  0.5126940000000 1.0
C      1  0.5007170000000  0.5220260000000  0.5313840000000 1.0
C      1  0.5327290000000  0.5196180000000  0.5079510000000 1.0
C      1  0.5124950000000  0.5291610000000  0.4654430000000 1.0
C      1  0.4767760000000  0.5035150000000  0.4796120000000 1.0
C      1  0.4715620000000  0.5235510000000  0.5038890000000 1.0
C      1  0.5064060000000  0.5073130000000  0.4156570000000 1.0
C      1  0.4317610000000  0.5012000000000  0.4612140000000 1.0
C      1  0.4599300000000  0.4985070000000  0.5692590000000 1.0
C      1  0.5490540000000  0.4947670000000  0.5585100000000 1.0
C      1  0.5825480000000  0.5074670000000  0.4872790000000 1.0
C      1  0.5105000000000  0.4869010000000  0.3912580000000 1.0
C      1  0.3930140000000  0.4917290000000  0.4608230000000 1.0
C      1  0.4352710000000  0.4892040000000  0.5878150000000 1.0
C      1  0.5745110000000  0.4881340000000  0.5800710000000 1.0
C      1  0.6070040000000  0.5095230000000  0.4558700000000 1.0
C      1  0.5870840000000  0.4818550000000  0.4569080000000 1.0
C      1  0.4878850000000  0.4722810000000  0.4120670000000 1.0
C      1  0.3899430000000  0.4693960000000  0.4776710000000 1.0
C      1  0.4553590000000  0.4630050000000  0.5961060000000 1.0
C      1  0.5850160000000  0.4620480000000  0.5703000000000 1.0
C      1  0.5809400000000  0.4759530000000  0.4239460000000 1.0
C      1  0.4581230000000  0.4590660000000  0.4093050000000 1.0
C      1  0.3889750000000  0.4701510000000  0.5104220000000 1.0
C      1  0.4848160000000  0.4610870000000  0.6136360000000 1.0
C      1  0.6052540000000  0.4644980000000  0.5430440000000 1.0
C      1  0.5433010000000  0.4651680000000  0.5146700000000 1.0
C      1  0.5357910000000  0.4846170000000  0.4555190000000 1.0
C      1  0.4721460000000  0.4620360000000  0.4582580000000 1.0
C      1  0.4381840000000  0.4668060000000  0.5130640000000 1.0
C      1  0.4893720000000  0.4661170000000  0.5631310000000 1.0
C      1  0.4286090000000  0.4665510000000  0.4245440000000 1.0
C      1  0.4000800000000  0.4802570000000  0.5414650000000 1.0
C      1  0.5135910000000  0.4749180000000  0.6016370000000 1.0
C      1  0.5998580000000  0.4822690000000  0.5145640000000 1.0
C      1  0.5620260000000  0.4860520000000  0.3974760000000 1.0
C      1  0.4543270000000  0.4879750000000  0.3939670000000 1.0
C      1  0.3816310000000  0.5012720000000  0.5073200000000 1.0
C      1  0.4796950000000  0.4910710000000  0.6236670000000 1.0
C      1  0.6062930000000  0.4938800000000  0.5565510000000 1.0
C      1  0.5969000000000  0.5050510000000  0.4264270000000 1.0
C      1  0.4341450000000  0.4401480000000  0.5540890000000 1.0
C      1  0.5334230000000  0.4364860000000  0.5706590000000 1.0
C      1  0.5814220000000  0.4416730000000  0.4899140000000 1.0
C      1  0.5186440000000  0.4406350000000  0.4371050000000 1.0
C      1  0.4281980000000  0.4354460000000  0.4665430000000 1.0
C      1  0.5631920000000  0.5894360000000  0.5079800000000 1.0
C      1  0.5262070000000  0.5949070000000  0.4347150000000 1.0
C      1  0.4431200000000  0.5998520000000  0.4644010000000 1.0
C      1  0.4489910000000  0.6038200000000  0.5495540000000 1.0
C      1  0.5145590000000  0.5874230000000  0.5617040000000 1.0
C      1  0.5093060000000  0.4289540000000  0.5267250000000 1.0
C      1  0.5307950000000  0.4390540000000  0.4968080000000 1.0
C      1  0.4995610000000  0.4337310000000  0.4870810000000 1.0
C      1  0.4691320000000  0.4258600000000  0.5000600000000 1.0
C      1  0.4825590000000  0.4413530000000  0.5237250000000 1.0
C      1  0.5416360000000  0.5350930000000  0.3891390000000 1.0
C      1  0.4099740000000  0.5427850000000  0.4313650000000 1.0
C      1  0.4192850000000  0.5362660000000  0.5599300000000 1.0
C      1  0.5370330000000  0.5295010000000  0.5960900000000 1.0
C      1  0.6065570000000  0.5418820000000  0.4961410000000 1.0
C      1  0.5429410000000  0.4868910000000  0.5923330000000 1.0
C      1  0.6123870000000  0.4941170000000  0.4852580000000 1.0
C      1  0.5391830000000  0.4749430000000  0.3876010000000 1.0
C      1  0.4156330000000  0.4906210000000  0.4353650000000 1.0
C      1  0.4076990000000  0.4894990000000  0.5724030000000 1.0
C      1  0.4769140000000  0.5141660000000  0.4291850000000 1.0
C      1  0.4302960000000  0.5162030000000  0.5035290000000 1.0
C      1  0.4858900000000  0.5128940000000  0.5798950000000 1.0
C      1  0.5646710000000  0.5127680000000  0.5345960000000 1.0
C      1  0.5572410000000  0.5265350000000  0.4383950000000 1.0
C      1  0.4308600000000  0.4036860000000  0.4712350000000 1.0
C      1  0.4353580000000  0.4077940000000  0.5497080000000 1.0
C      1  0.5306800000000  0.4051160000000  0.5728410000000 1.0
C      1  0.5735160000000  0.4102640000000  0.4920290000000 1.0
C      1  0.5212980000000  0.4088700000000  0.4419110000000 1.0
C      1  0.5517810000000  0.5516200000000  0.5745220000000 1.0
C      1  0.5913550000000  0.5662230000000  0.4760720000000 1.0
C      1  0.5133520000000  0.5538890000000  0.3971560000000 1.0
C      1  0.4152950000000  0.5552490000000  0.4629970000000 1.0
C      1  0.4443390000000  0.5555230000000  0.5728390000000 1.0
C      1  0.5401100000000  0.4561490000000  0.4490750000000 1.0
C      1  0.4453470000000  0.4493530000000  0.4458480000000 1.0
C      1  0.4183260000000  0.4560010000000  0.5335790000000 1.0
C      1  0.5088870000000  0.4502370000000  0.5824150000000 1.0
C      1  0.5763650000000  0.4572020000000  0.5161750000000 1.0
C      1  0.4676540000000  0.4433230000000  0.5511760000000 1.0
C      1  0.5343610000000  0.4415460000000  0.5374590000000 1.0
C      1  0.5525070000000  0.4387090000000  0.4734290000000 1.0
C      1  0.4930380000000  0.4385980000000  0.4568930000000 1.0
C      1  0.4423570000000  0.4385360000000  0.4960080000000 1.0
C      1  0.5030870000000  0.5273910000000  0.4978920000000 1.0
END
