TITL C-2622962-9663-236 0.00598486789785252 125000 -633.528008663708 0 0 118 (C1) n - 1
REM
REM in /nfs/bkarasulu/CARBON/AIRSS/Generating-Clusters/AIREBO/with-SteepDescent/Higher-Symm/SD-CG/HFTN-CG
REM
REM
REM
REM
REM
REM ./C.cell (b20cbc046b6831c77cfcea5457e17084)
REM
REM compiler GCC version 9.2.1 20190827 (Red Hat 9.2.1-1)
REM options -cpp -mtune=generic -march=x86-64 -g -O0 -fpre-include=/usr/include/finclude/math-vector-fortran.h
REM seed -675369049 478510311 -802822190 115287190 -1674652591 1509021423 -917120961 441076191 -1614865254 -1260559493 468569155 1974211822 -1787102584 1841951524 -34546711 709508359 -1309974512 -579492529 1178092367 -185651738 349690548 153785543 -1358471241 -94321854 990840335 -847368340 1898739814 -619174120 -2054001618 1025156547 1585702760 211541150 -1417602126
REM
CELL 1.54180   50.00000   50.00000   50.00000   90.00000   90.00000   90.00000
LATT -1
SFAC C  
C      1  0.4649900000000  0.4162490000000  0.4698330000000 1.0
C      1  0.5424820000000  0.3967150000000  0.5228930000000 1.0
C      1  0.4610550000000  0.4244450000000  0.5394410000000 1.0
C      1  0.5527980000000  0.4237880000000  0.4198070000000 1.0
C      1  0.5989200000000  0.4899810000000  0.5039680000000 1.0
C      1  0.4217780000000  0.4770820000000  0.5292790000000 1.0
C      1  0.5825750000000  0.4812050000000  0.5243370000000 1.0
C      1  0.4107190000000  0.4565760000000  0.5122720000000 1.0
C      1  0.4168930000000  0.5248110000000  0.4615050000000 1.0
C      1  0.5655350000000  0.5168640000000  0.5327410000000 1.0
C      1  0.4238910000000  0.5267470000000  0.5162520000000 1.0
C      1  0.5753300000000  0.5274160000000  0.4820000000000 1.0
C      1  0.5192550000000  0.4299840000000  0.5523620000000 1.0
C      1  0.4856460000000  0.4378940000000  0.4437610000000 1.0
C      1  0.5076570000000  0.4395630000000  0.4281540000000 1.0
C      1  0.4909700000000  0.4397340000000  0.5600770000000 1.0
C      1  0.5307250000000  0.5733560000000  0.4572270000000 1.0
C      1  0.4788030000000  0.5775320000000  0.5487520000000 1.0
C      1  0.5140060000000  0.5854160000000  0.5209590000000 1.0
C      1  0.4712660000000  0.5633900000000  0.4418440000000 1.0
C      1  0.5180150000000  0.5440530000000  0.5333610000000 1.0
C      1  0.4788090000000  0.5298490000000  0.4620830000000 1.0
C      1  0.5099500000000  0.5396780000000  0.4600730000000 1.0
C      1  0.4873280000000  0.5346150000000  0.5348020000000 1.0
C      1  0.5282820000000  0.5491410000000  0.5616750000000 1.0
C      1  0.4595010000000  0.5496120000000  0.4212930000000 1.0
C      1  0.5524280000000  0.5570080000000  0.4420670000000 1.0
C      1  0.4618190000000  0.5605150000000  0.5623010000000 1.0
C      1  0.4834160000000  0.5120410000000  0.5558550000000 1.0
C      1  0.5278850000000  0.5040960000000  0.4246160000000 1.0
C      1  0.4722990000000  0.5034140000000  0.4408920000000 1.0
C      1  0.5093580000000  0.5045480000000  0.5722640000000 1.0
C      1  0.4951590000000  0.4309340000000  0.4756660000000 1.0
C      1  0.5250440000000  0.4184900000000  0.5241430000000 1.0
C      1  0.4887080000000  0.4343140000000  0.5269770000000 1.0
C      1  0.5355160000000  0.4422280000000  0.4306740000000 1.0
C      1  0.4569660000000  0.5475950000000  0.5244950000000 1.0
C      1  0.5368000000000  0.5482390000000  0.4793310000000 1.0
C      1  0.4569080000000  0.5549540000000  0.4689120000000 1.0
C      1  0.5388940000000  0.5626900000000  0.5164380000000 1.0
C      1  0.5509030000000  0.4863050000000  0.5357220000000 1.0
C      1  0.4419790000000  0.4838560000000  0.4864280000000 1.0
C      1  0.5884840000000  0.4988180000000  0.4808860000000 1.0
C      1  0.4353670000000  0.4974990000000  0.5125650000000 1.0
C      1  0.4534410000000  0.4764360000000  0.4331560000000 1.0
C      1  0.5369400000000  0.4656260000000  0.5821320000000 1.0
C      1  0.4752750000000  0.4837520000000  0.5883260000000 1.0
C      1  0.5525170000000  0.4833900000000  0.4120890000000 1.0
C      1  0.5759720000000  0.4826940000000  0.4586180000000 1.0
C      1  0.4395310000000  0.4683390000000  0.5533490000000 1.0
C      1  0.5631190000000  0.4595060000000  0.5526980000000 1.0
C      1  0.4308930000000  0.4655240000000  0.4636630000000 1.0
C      1  0.5202550000000  0.4902620000000  0.5433860000000 1.0
C      1  0.4703010000000  0.4923550000000  0.4729870000000 1.0
C      1  0.5235770000000  0.4886210000000  0.4546020000000 1.0
C      1  0.4753160000000  0.4871230000000  0.5383320000000 1.0
C      1  0.5403970000000  0.4405810000000  0.5663620000000 1.0
C      1  0.4581450000000  0.4490610000000  0.4459320000000 1.0
C      1  0.5487460000000  0.4694840000000  0.4430890000000 1.0
C      1  0.4721090000000  0.4642680000000  0.5621880000000 1.0
C      1  0.5345520000000  0.5249310000000  0.5729850000000 1.0
C      1  0.4489720000000  0.5237830000000  0.4268560000000 1.0
C      1  0.5516020000000  0.5284660000000  0.4241610000000 1.0
C      1  0.4575540000000  0.5288360000000  0.5642260000000 1.0
C      1  0.5608610000000  0.4557060000000  0.4727390000000 1.0
C      1  0.4415210000000  0.4425440000000  0.5328880000000 1.0
C      1  0.5692470000000  0.4540020000000  0.5209380000000 1.0
C      1  0.4403310000000  0.4344860000000  0.4709630000000 1.0
C      1  0.5650010000000  0.5283540000000  0.4548720000000 1.0
C      1  0.4320780000000  0.5163450000000  0.5475780000000 1.0
C      1  0.5577870000000  0.5118050000000  0.5654580000000 1.0
C      1  0.4232840000000  0.5133470000000  0.4368100000000 1.0
C      1  0.5601890000000  0.5724550000000  0.4841010000000 1.0
C      1  0.4344900000000  0.5571010000000  0.5481760000000 1.0
C      1  0.5648510000000  0.5796180000000  0.5229490000000 1.0
C      1  0.4477090000000  0.5843530000000  0.4795360000000 1.0
C      1  0.5701350000000  0.5020200000000  0.4340330000000 1.0
C      1  0.4495230000000  0.4962520000000  0.5697120000000 1.0
C      1  0.5592900000000  0.4854730000000  0.5747550000000 1.0
C      1  0.4243310000000  0.4845440000000  0.4367190000000 1.0
C      1  0.4635950000000  0.5143860000000  0.5212050000000 1.0
C      1  0.5139670000000  0.5105890000000  0.4737560000000 1.0
C      1  0.4767880000000  0.5166860000000  0.4919230000000 1.0
C      1  0.5188510000000  0.5134990000000  0.5222470000000 1.0
C      1  0.4580100000000  0.5934690000000  0.5006940000000 1.0
C      1  0.5533300000000  0.5993410000000  0.4940150000000 1.0
C      1  0.5055150000000  0.5879420000000  0.5497270000000 1.0
C      1  0.4988280000000  0.5788930000000  0.4468320000000 1.0
C      1  0.4994560000000  0.5159840000000  0.6023150000000 1.0
C      1  0.5137590000000  0.5324330000000  0.4121960000000 1.0
C      1  0.4122080000000  0.5354640000000  0.4854980000000 1.0
C      1  0.5900420000000  0.5279570000000  0.5126490000000 1.0
C      1  0.4898650000000  0.4717050000000  0.6142580000000 1.0
C      1  0.4878620000000  0.4900210000000  0.3945890000000 1.0
C      1  0.5517750000000  0.5330490000000  0.5058720000000 1.0
C      1  0.4402400000000  0.5488500000000  0.4962420000000 1.0
C      1  0.5281890000000  0.4422450000000  0.5035130000000 1.0
C      1  0.4691450000000  0.4642420000000  0.4921930000000 1.0
C      1  0.4950160000000  0.4977020000000  0.4187060000000 1.0
C      1  0.5080500000000  0.4743390000000  0.5856480000000 1.0
C      1  0.4757320000000  0.5745880000000  0.5170150000000 1.0
C      1  0.5227170000000  0.5857890000000  0.4880820000000 1.0
C      1  0.4993130000000  0.4662800000000  0.5318290000000 1.0
C      1  0.5098390000000  0.4599410000000  0.4655830000000 1.0
C      1  0.5098050000000  0.5514490000000  0.4311450000000 1.0
C      1  0.5230850000000  0.5758990000000  0.5682620000000 1.0
C      1  0.5540420000000  0.4499630000000  0.4982950000000 1.0
C      1  0.4411100000000  0.4466710000000  0.5006770000000 1.0
C      1  0.4968410000000  0.6291400000000  0.4665550000000 1.0
C      1  0.5031730000000  0.5318650000000  0.4983090000000 1.0
C      1  0.4684290000000  0.3389990000000  0.4983890000000 1.0
C      1  0.5129780000000  0.4933420000000  0.4991390000000 1.0
C      1  0.5035330000000  0.6043100000000  0.4669860000000 1.0
C      1  0.5016880000000  0.5615340000000  0.4993260000000 1.0
C      1  0.5021710000000  0.4634310000000  0.4985260000000 1.0
C      1  0.4773840000000  0.3634620000000  0.5012530000000 1.0
C      1  0.4981140000000  0.4163490000000  0.5034770000000 1.0
C      1  0.4882840000000  0.3874680000000  0.5024980000000 1.0
END
