TITL C-2622953-3516-755 -0.00275622838545406 125000 -1078.85708891866 0 0 194 (C1) n - 1
REM
REM in /nfs/bkarasulu/CARBON/AIRSS/Generating-Clusters/AIREBO/with-SteepDescent/Higher-Symm/SD-CG/HFTN-CG
REM
REM
REM
REM
REM
REM ./C.cell (b20cbc046b6831c77cfcea5457e17084)
REM
REM compiler GCC version 9.2.1 20190827 (Red Hat 9.2.1-1)
REM options -cpp -mtune=generic -march=x86-64 -g -O0 -fpre-include=/usr/include/finclude/math-vector-fortran.h
REM seed -875607949 -1682184953 1585574225 -1613649624 -1247878689 1562694277 -1042298489 2075834108 -70454959 574694075 1869306102 -735295020 1948965262 1087774425 2017358624 -1391048924 -1284763737 1850999489 1844829231 1736482871 -1816239136 -373633589 -1413435693 -2032197572 797766774 18210358 146247397 -1884638197 -1460494286 1395524050 -371470230 -821735388 311372057
REM
CELL 1.54180   50.00000   50.00000   50.00000   90.00000   90.00000   90.00000
LATT -1
SFAC C  
C      1  0.4786220000000  0.3980310000000  0.5143720000000 1.0
C      1  0.4980860000000  0.3914350000000  0.4712740000000 1.0
C      1  0.5257120000000  0.3985270000000  0.5121710000000 1.0
C      1  0.4785620000000  0.6064710000000  0.5172120000000 1.0
C      1  0.4949210000000  0.6102900000000  0.4736560000000 1.0
C      1  0.5237970000000  0.6044740000000  0.5090250000000 1.0
C      1  0.5823830000000  0.4928630000000  0.4721450000000 1.0
C      1  0.4876210000000  0.4886360000000  0.5879240000000 1.0
C      1  0.4353400000000  0.4926760000000  0.4437460000000 1.0
C      1  0.5892220000000  0.5176580000000  0.4499040000000 1.0
C      1  0.5015840000000  0.5171230000000  0.5810160000000 1.0
C      1  0.4287900000000  0.5179710000000  0.4623440000000 1.0
C      1  0.4593550000000  0.5847130000000  0.4467210000000 1.0
C      1  0.5644300000000  0.5766700000000  0.4882000000000 1.0
C      1  0.4714200000000  0.5807520000000  0.5649030000000 1.0
C      1  0.4616130000000  0.4185560000000  0.4387300000000 1.0
C      1  0.5753830000000  0.4176690000000  0.4981300000000 1.0
C      1  0.4649460000000  0.4194040000000  0.5666990000000 1.0
C      1  0.5366050000000  0.4334600000000  0.4059740000000 1.0
C      1  0.5773610000000  0.4415740000000  0.5729470000000 1.0
C      1  0.4002300000000  0.4404760000000  0.5330420000000 1.0
C      1  0.5194100000000  0.5572910000000  0.4043330000000 1.0
C      1  0.5750370000000  0.5551050000000  0.5615190000000 1.0
C      1  0.3999630000000  0.5536900000000  0.5371380000000 1.0
C      1  0.4054270000000  0.5585760000000  0.4824970000000 1.0
C      1  0.5550690000000  0.5503810000000  0.4449800000000 1.0
C      1  0.5168930000000  0.5532030000000  0.5742450000000 1.0
C      1  0.4093020000000  0.4436030000000  0.4742320000000 1.0
C      1  0.5613270000000  0.4429740000000  0.4497560000000 1.0
C      1  0.5137000000000  0.4418780000000  0.5777070000000 1.0
C      1  0.4622650000000  0.4887940000000  0.6065200000000 1.0
C      1  0.4324920000000  0.4908370000000  0.4119940000000 1.0
C      1  0.6147060000000  0.4847810000000  0.4789290000000 1.0
C      1  0.4576070000000  0.5184760000000  0.6104570000000 1.0
C      1  0.4224830000000  0.5180860000000  0.4031150000000 1.0
C      1  0.6126810000000  0.5184870000000  0.4741910000000 1.0
C      1  0.4075300000000  0.5279740000000  0.4947410000000 1.0
C      1  0.5539790000000  0.5272960000000  0.4199940000000 1.0
C      1  0.5394960000000  0.5278460000000  0.5763470000000 1.0
C      1  0.4169450000000  0.4710410000000  0.4927450000000 1.0
C      1  0.5514980000000  0.4686350000000  0.4347180000000 1.0
C      1  0.5295270000000  0.4689730000000  0.5736120000000 1.0
C      1  0.4359430000000  0.4208410000000  0.5590120000000 1.0
C      1  0.4812890000000  0.4137580000000  0.4156290000000 1.0
C      1  0.5830350000000  0.4184360000000  0.5273540000000 1.0
C      1  0.4419340000000  0.5822580000000  0.5583090000000 1.0
C      1  0.4790510000000  0.5839220000000  0.4230810000000 1.0
C      1  0.5726600000000  0.5816370000000  0.5170540000000 1.0
C      1  0.5144650000000  0.4227530000000  0.5332100000000 1.0
C      1  0.4628180000000  0.4154440000000  0.4917200000000 1.0
C      1  0.5284340000000  0.4055910000000  0.4729510000000 1.0
C      1  0.5149690000000  0.5834240000000  0.5330450000000 1.0
C      1  0.4621270000000  0.5835890000000  0.4992120000000 1.0
C      1  0.5169800000000  0.5889500000000  0.4654220000000 1.0
C      1  0.4814120000000  0.4485800000000  0.5689450000000 1.0
C      1  0.4610470000000  0.4505650000000  0.4393520000000 1.0
C      1  0.5687410000000  0.4474180000000  0.4827970000000 1.0
C      1  0.4838160000000  0.5490570000000  0.5648830000000 1.0
C      1  0.4625200000000  0.5523050000000  0.4566220000000 1.0
C      1  0.5463120000000  0.5489230000000  0.4780210000000 1.0
C      1  0.4108990000000  0.4319970000000  0.4507450000000 1.0
C      1  0.5874410000000  0.4227720000000  0.4497330000000 1.0
C      1  0.5005860000000  0.4227220000000  0.6007090000000 1.0
C      1  0.4158300000000  0.5659340000000  0.4580590000000 1.0
C      1  0.5842550000000  0.5588020000000  0.4467180000000 1.0
C      1  0.4975070000000  0.5619370000000  0.6001480000000 1.0
C      1  0.4442640000000  0.4769410000000  0.5283480000000 1.0
C      1  0.5076330000000  0.4760190000000  0.4375560000000 1.0
C      1  0.5479870000000  0.4789190000000  0.5325880000000 1.0
C      1  0.4370240000000  0.5098990000000  0.5325460000000 1.0
C      1  0.5043760000000  0.5098640000000  0.4372350000000 1.0
C      1  0.5545940000000  0.5112800000000  0.5358840000000 1.0
C      1  0.5594820000000  0.4138500000000  0.5424780000000 1.0
C      1  0.4350700000000  0.4150770000000  0.5315640000000 1.0
C      1  0.5079260000000  0.4090110000000  0.4309840000000 1.0
C      1  0.5622230000000  0.6002550000000  0.5340850000000 1.0
C      1  0.4346290000000  0.5999560000000  0.5385170000000 1.0
C      1  0.5001970000000  0.6017410000000  0.4216130000000 1.0
C      1  0.4286540000000  0.5560950000000  0.5543900000000 1.0
C      1  0.4872760000000  0.5557920000000  0.4153440000000 1.0
C      1  0.5767480000000  0.5556760000000  0.5295890000000 1.0
C      1  0.4160920000000  0.4414510000000  0.5583640000000 1.0
C      1  0.5056830000000  0.4288920000000  0.3974020000000 1.0
C      1  0.5889640000000  0.4407340000000  0.5452150000000 1.0
C      1  0.6030960000000  0.5191750000000  0.4188670000000 1.0
C      1  0.5117380000000  0.5301010000000  0.6107630000000 1.0
C      1  0.3974820000000  0.5296610000000  0.4560740000000 1.0
C      1  0.5950330000000  0.4784920000000  0.4450570000000 1.0
C      1  0.5082890000000  0.4746490000000  0.6069040000000 1.0
C      1  0.4080330000000  0.4774140000000  0.4468990000000 1.0
C      1  0.4863340000000  0.5107690000000  0.4016640000000 1.0
C      1  0.6022740000000  0.5128930000000  0.5212620000000 1.0
C      1  0.4240330000000  0.5140530000000  0.5809180000000 1.0
C      1  0.4790370000000  0.4832890000000  0.3925640000000 1.0
C      1  0.6023160000000  0.4861710000000  0.5284780000000 1.0
C      1  0.4206730000000  0.4865700000000  0.5777570000000 1.0
C      1  0.5051560000000  0.4428170000000  0.4284720000000 1.0
C      1  0.5456560000000  0.4419360000000  0.5490170000000 1.0
C      1  0.4414260000000  0.4445670000000  0.5170650000000 1.0
C      1  0.5124320000000  0.5422760000000  0.4340290000000 1.0
C      1  0.5463190000000  0.5432660000000  0.5364780000000 1.0
C      1  0.4359820000000  0.5429200000000  0.5242640000000 1.0
C      1  0.4766650000000  0.5220780000000  0.4632700000000 1.0
C      1  0.5483340000000  0.5211950000000  0.4977830000000 1.0
C      1  0.4720170000000  0.5232010000000  0.5461560000000 1.0
C      1  0.4600450000000  0.4931540000000  0.4646310000000 1.0
C      1  0.5539710000000  0.4924400000000  0.4835180000000 1.0
C      1  0.4853760000000  0.4929920000000  0.5542710000000 1.0
C      1  0.5318250000000  0.4041020000000  0.4431390000000 1.0
C      1  0.5314600000000  0.4091330000000  0.5593350000000 1.0
C      1  0.4350040000000  0.4084520000000  0.5015800000000 1.0
C      1  0.5244870000000  0.5947040000000  0.4356240000000 1.0
C      1  0.5409990000000  0.5925990000000  0.5497590000000 1.0
C      1  0.4333910000000  0.5900380000000  0.5128680000000 1.0
C      1  0.4135040000000  0.4326560000000  0.5029860000000 1.0
C      1  0.5493320000000  0.4210810000000  0.4299100000000 1.0
C      1  0.5458800000000  0.4313300000000  0.5807660000000 1.0
C      1  0.4160860000000  0.5654200000000  0.5103230000000 1.0
C      1  0.5379310000000  0.5718560000000  0.4257350000000 1.0
C      1  0.5430530000000  0.5646330000000  0.5612710000000 1.0
C      1  0.5350930000000  0.5129860000000  0.6023870000000 1.0
C      1  0.3900760000000  0.5084330000000  0.4763880000000 1.0
C      1  0.5770010000000  0.5068990000000  0.4135340000000 1.0
C      1  0.5343390000000  0.4857170000000  0.6020170000000 1.0
C      1  0.3981830000000  0.4827170000000  0.4715500000000 1.0
C      1  0.5760850000000  0.4822140000000  0.4255050000000 1.0
C      1  0.5076800000000  0.4891890000000  0.5140630000000 1.0
C      1  0.4816760000000  0.4771970000000  0.4957160000000 1.0
C      1  0.5089050000000  0.4921560000000  0.4802130000000 1.0
C      1  0.5195640000000  0.5209370000000  0.5168970000000 1.0
C      1  0.4681780000000  0.5237950000000  0.5117630000000 1.0
C      1  0.4936410000000  0.5198040000000  0.4928160000000 1.0
C      1  0.5184920000000  0.5187890000000  0.5511060000000 1.0
C      1  0.4400020000000  0.5175040000000  0.4937070000000 1.0
C      1  0.5558950000000  0.5106200000000  0.4481130000000 1.0
C      1  0.5175880000000  0.4854560000000  0.5463750000000 1.0
C      1  0.4484770000000  0.4846200000000  0.4954670000000 1.0
C      1  0.5333660000000  0.4867560000000  0.4570650000000 1.0
C      1  0.6213060000000  0.5218110000000  0.5041740000000 1.0
C      1  0.4311140000000  0.5238600000000  0.6063920000000 1.0
C      1  0.4250980000000  0.5389170000000  0.4167130000000 1.0
C      1  0.6147020000000  0.4704520000000  0.5093960000000 1.0
C      1  0.4360830000000  0.4717460000000  0.5953730000000 1.0
C      1  0.4535910000000  0.4742090000000  0.3929810000000 1.0
C      1  0.5681140000000  0.5291740000000  0.5711590000000 1.0
C      1  0.3961420000000  0.5276100000000  0.5234880000000 1.0
C      1  0.5323760000000  0.5302770000000  0.4010310000000 1.0
C      1  0.5609450000000  0.4680570000000  0.5772340000000 1.0
C      1  0.4008970000000  0.4674440000000  0.5180640000000 1.0
C      1  0.5354800000000  0.4616230000000  0.4104130000000 1.0
C      1  0.4394320000000  0.4579020000000  0.4173170000000 1.0
C      1  0.6021080000000  0.4536400000000  0.4849500000000 1.0
C      1  0.4648060000000  0.4561370000000  0.5969940000000 1.0
C      1  0.4333390000000  0.5442570000000  0.4463490000000 1.0
C      1  0.6098880000000  0.5487850000000  0.4633480000000 1.0
C      1  0.4772080000000  0.5354090000000  0.5953250000000 1.0
C      1  0.5786250000000  0.5051760000000  0.5591490000000 1.0
C      1  0.4050930000000  0.5047960000000  0.5380630000000 1.0
C      1  0.5155050000000  0.5103970000000  0.3949320000000 1.0
C      1  0.5779550000000  0.4729910000000  0.5482030000000 1.0
C      1  0.4161170000000  0.4741150000000  0.5477290000000 1.0
C      1  0.5109620000000  0.4795140000000  0.4038950000000 1.0
C      1  0.4777960000000  0.4720260000000  0.4533670000000 1.0
C      1  0.5516670000000  0.4670360000000  0.5009350000000 1.0
C      1  0.4716410000000  0.4680000000000  0.5464410000000 1.0
C      1  0.4764150000000  0.5266710000000  0.4295180000000 1.0
C      1  0.5761550000000  0.5261160000000  0.5167440000000 1.0
C      1  0.4412120000000  0.5269690000000  0.5601510000000 1.0
C      1  0.4989910000000  0.5630420000000  0.4527070000000 1.0
C      1  0.5231750000000  0.5547530000000  0.5166890000000 1.0
C      1  0.4662420000000  0.5557340000000  0.5180820000000 1.0
C      1  0.4955180000000  0.4439930000000  0.4581890000000 1.0
C      1  0.5321310000000  0.4499610000000  0.5229310000000 1.0
C      1  0.4720560000000  0.4490300000000  0.5223150000000 1.0
C      1  0.4724940000000  0.4239340000000  0.5987570000000 1.0
C      1  0.4296230000000  0.4287610000000  0.4314850000000 1.0
C      1  0.5989240000000  0.4226290000000  0.4753660000000 1.0
C      1  0.4825110000000  0.5857990000000  0.5943150000000 1.0
C      1  0.4277210000000  0.5885030000000  0.4470260000000 1.0
C      1  0.5903540000000  0.5733110000000  0.4729770000000 1.0
C      1  0.4958620000000  0.4334530000000  0.5076290000000 1.0
C      1  0.4753050000000  0.4460520000000  0.4836440000000 1.0
C      1  0.5120590000000  0.4310050000000  0.4807390000000 1.0
C      1  0.4900660000000  0.5603330000000  0.5348770000000 1.0
C      1  0.4825500000000  0.5623590000000  0.4822020000000 1.0
C      1  0.5162480000000  0.5622390000000  0.4868070000000 1.0
C      1  0.4840980000000  0.4098530000000  0.5414670000000 1.0
C      1  0.4727130000000  0.4041590000000  0.4639130000000 1.0
C      1  0.5504920000000  0.4001080000000  0.4948540000000 1.0
C      1  0.4867880000000  0.5987660000000  0.5443090000000 1.0
C      1  0.4687490000000  0.6002880000000  0.4706680000000 1.0
C      1  0.5409520000000  0.5969420000000  0.4868050000000 1.0
C      1  0.5017090000000  0.3879770000000  0.5007860000000 1.0
C      1  0.4996320000000  0.6167900000000  0.5009070000000 1.0
END
