TITL C-2622955-8511-155 -0.0383589657134063 125000 -452.292261268768 0 0 84 (C1) n - 1
REM
REM in /nfs/bkarasulu/CARBON/AIRSS/Generating-Clusters/AIREBO/with-SteepDescent/Higher-Symm/SD-CG/HFTN-CG
REM
REM
REM
REM
REM
REM ./C.cell (b20cbc046b6831c77cfcea5457e17084)
REM
REM compiler GCC version 9.2.1 20190827 (Red Hat 9.2.1-1)
REM options -cpp -mtune=generic -march=x86-64 -g -O0 -fpre-include=/usr/include/finclude/math-vector-fortran.h
REM seed 1457755885 46309024 -783578414 -1834605856 -699915780 -1883816497 -1010090471 659165314 -2108595194 814569123 885607604 -1697327929 1491831131 928487453 1307415956 -2130896141 -754882243 1920518821 -1730948628 1269713283 -1478190205 1765303689 -207166658 883146901 1481843478 -1370061520 -774069661 1767543457 1186264420 -1242036462 -1967192851 -2025374959 1276895951
REM
CELL 1.54180   50.00000   50.00000   50.00000   90.00000   90.00000   90.00000
LATT -1
SFAC C  
C      1  0.5598070000000  0.4585290000000  0.4861330000000 1.0
C      1  0.5580880000000  0.5390170000000  0.4798380000000 1.0
C      1  0.4767700000000  0.5634190000000  0.4810770000000 1.0
C      1  0.4225170000000  0.5007210000000  0.4812720000000 1.0
C      1  0.4747640000000  0.4243040000000  0.4859820000000 1.0
C      1  0.5098170000000  0.4761770000000  0.4646250000000 1.0
C      1  0.5225660000000  0.4947030000000  0.4837960000000 1.0
C      1  0.5139290000000  0.5242330000000  0.4819060000000 1.0
C      1  0.4943590000000  0.5128980000000  0.4622650000000 1.0
C      1  0.4837100000000  0.4898030000000  0.4760730000000 1.0
C      1  0.4731340000000  0.4445270000000  0.5331800000000 1.0
C      1  0.5533340000000  0.4513300000000  0.5417490000000 1.0
C      1  0.5531180000000  0.5216580000000  0.5362320000000 1.0
C      1  0.4930360000000  0.5574220000000  0.5352240000000 1.0
C      1  0.4364200000000  0.5068840000000  0.5313810000000 1.0
C      1  0.4784590000000  0.5511340000000  0.5655110000000 1.0
C      1  0.4494840000000  0.4947080000000  0.5588810000000 1.0
C      1  0.4897640000000  0.4594760000000  0.5563140000000 1.0
C      1  0.5497250000000  0.4765280000000  0.5610710000000 1.0
C      1  0.5405200000000  0.5385070000000  0.5629600000000 1.0
C      1  0.5428340000000  0.4764210000000  0.4382740000000 1.0
C      1  0.5344780000000  0.5361790000000  0.4328390000000 1.0
C      1  0.4725610000000  0.5495950000000  0.4312670000000 1.0
C      1  0.4494390000000  0.4964660000000  0.4321050000000 1.0
C      1  0.4894780000000  0.4529290000000  0.4358030000000 1.0
C      1  0.5234050000000  0.5716080000000  0.5295000000000 1.0
C      1  0.4360330000000  0.5375650000000  0.5302390000000 1.0
C      1  0.4434540000000  0.4510580000000  0.5301790000000 1.0
C      1  0.5293580000000  0.4302480000000  0.5341110000000 1.0
C      1  0.5806890000000  0.5026750000000  0.5338900000000 1.0
C      1  0.4907620000000  0.5488940000000  0.5023790000000 1.0
C      1  0.4462650000000  0.4929790000000  0.5043490000000 1.0
C      1  0.4920020000000  0.4466330000000  0.5049650000000 1.0
C      1  0.5440990000000  0.4632300000000  0.5118350000000 1.0
C      1  0.5508230000000  0.5215290000000  0.5022990000000 1.0
C      1  0.4631310000000  0.5627210000000  0.4552300000000 1.0
C      1  0.4296710000000  0.4925350000000  0.4525220000000 1.0
C      1  0.4838700000000  0.4306470000000  0.4538170000000 1.0
C      1  0.5640480000000  0.4704140000000  0.4581630000000 1.0
C      1  0.5477520000000  0.5500960000000  0.4545470000000 1.0
C      1  0.4340800000000  0.4352650000000  0.5071870000000 1.0
C      1  0.5354210000000  0.4204770000000  0.5079260000000 1.0
C      1  0.5989700000000  0.5092220000000  0.5116530000000 1.0
C      1  0.5264150000000  0.5928760000000  0.5100270000000 1.0
C      1  0.4162920000000  0.5497230000000  0.5120400000000 1.0
C      1  0.5237490000000  0.4851160000000  0.5125830000000 1.0
C      1  0.5194070000000  0.5190900000000  0.5150730000000 1.0
C      1  0.4859750000000  0.5193130000000  0.5184610000000 1.0
C      1  0.4749660000000  0.4942670000000  0.5037180000000 1.0
C      1  0.4943680000000  0.4749910000000  0.5186700000000 1.0
C      1  0.5888870000000  0.4864350000000  0.4619620000000 1.0
C      1  0.5435390000000  0.5786770000000  0.4602610000000 1.0
C      1  0.4345140000000  0.5663040000000  0.4618070000000 1.0
C      1  0.4268410000000  0.4649410000000  0.4639440000000 1.0
C      1  0.5077890000000  0.4166080000000  0.4650440000000 1.0
C      1  0.5832360000000  0.4670690000000  0.5039950000000 1.0
C      1  0.5582030000000  0.5607850000000  0.5008870000000 1.0
C      1  0.4562000000000  0.5689730000000  0.5023660000000 1.0
C      1  0.4077690000000  0.4855700000000  0.5081920000000 1.0
C      1  0.4838960000000  0.4094370000000  0.5148760000000 1.0
C      1  0.4562440000000  0.5246010000000  0.4242850000000 1.0
C      1  0.4672750000000  0.4719440000000  0.4275420000000 1.0
C      1  0.5188170000000  0.4596680000000  0.4295880000000 1.0
C      1  0.5429680000000  0.5060470000000  0.4283190000000 1.0
C      1  0.5039840000000  0.5491180000000  0.4250500000000 1.0
C      1  0.4795290000000  0.4962990000000  0.5679030000000 1.0
C      1  0.5052370000000  0.4878230000000  0.5478450000000 1.0
C      1  0.5341020000000  0.4966880000000  0.5494420000000 1.0
C      1  0.5161770000000  0.5343470000000  0.5446370000000 1.0
C      1  0.4858320000000  0.5223110000000  0.5524730000000 1.0
C      1  0.5461230000000  0.5534340000000  0.5262860000000 1.0
C      1  0.4600780000000  0.5545960000000  0.5272700000000 1.0
C      1  0.4272450000000  0.4742200000000  0.5337760000000 1.0
C      1  0.5012790000000  0.4259980000000  0.5378020000000 1.0
C      1  0.5766380000000  0.4739990000000  0.5316740000000 1.0
C      1  0.5445720000000  0.5844160000000  0.4887930000000 1.0
C      1  0.4293700000000  0.5648520000000  0.4906250000000 1.0
C      1  0.4306300000000  0.4643200000000  0.4947040000000 1.0
C      1  0.5143310000000  0.4254500000000  0.4905130000000 1.0
C      1  0.5969960000000  0.4892780000000  0.4899290000000 1.0
C      1  0.5040830000000  0.5108110000000  0.4360790000000 1.0
C      1  0.4884200000000  0.4836050000000  0.6213180000000 1.0
C      1  0.4845470000000  0.4907440000000  0.5971250000000 1.0
C      1  0.4989620000000  0.4987440000000  0.4126730000000 1.0
END
