TITL C-2622963-3633-118 0.00775531000991252 125000 -935.639228957993 0 0 172 (C1) n - 1
REM
REM in /nfs/bkarasulu/CARBON/AIRSS/Generating-Clusters/AIREBO/with-SteepDescent/Higher-Symm/SD-CG/HFTN-CG
REM
REM
REM
REM
REM
REM ./C.cell (b20cbc046b6831c77cfcea5457e17084)
REM
REM compiler GCC version 9.2.1 20190827 (Red Hat 9.2.1-1)
REM options -cpp -mtune=generic -march=x86-64 -g -O0 -fpre-include=/usr/include/finclude/math-vector-fortran.h
REM seed 1894229458 -747780411 -1296357331 -1747542940 1566673730 975665654 -1453957782 -1623146615 169525378 -1122184090 -478805665 1863496367 618391508 -1815722654 2144391527 -545561085 683808033 -351683693 -1562406548 1401685659 -1875277854 319431419 -770656232 -245470810 -315493743 1286497252 976558968 1864772335 1633130308 945944259 783429141 1627068641 913046355
REM
CELL 1.54180   50.00000   50.00000   50.00000   90.00000   90.00000   90.00000
LATT -1
SFAC C  
C      1  0.4502920000000  0.4652670000000  0.4720410000000 1.0
C      1  0.4514450000000  0.5339970000000  0.4748550000000 1.0
C      1  0.5203170000000  0.5617520000000  0.4685570000000 1.0
C      1  0.5623210000000  0.4961950000000  0.4765240000000 1.0
C      1  0.5167430000000  0.4374730000000  0.4690840000000 1.0
C      1  0.5111220000000  0.4465700000000  0.3963540000000 1.0
C      1  0.4608940000000  0.4832110000000  0.3989230000000 1.0
C      1  0.4699810000000  0.5451880000000  0.3967810000000 1.0
C      1  0.5313990000000  0.5420300000000  0.3961440000000 1.0
C      1  0.5486920000000  0.4893460000000  0.3969830000000 1.0
C      1  0.4532210000000  0.5847080000000  0.4702320000000 1.0
C      1  0.5651650000000  0.5611450000000  0.4700790000000 1.0
C      1  0.5949460000000  0.4591870000000  0.4754570000000 1.0
C      1  0.4838410000000  0.4116630000000  0.4680470000000 1.0
C      1  0.4103130000000  0.4847160000000  0.4721100000000 1.0
C      1  0.4695250000000  0.5859530000000  0.5361350000000 1.0
C      1  0.5671770000000  0.5623980000000  0.5256610000000 1.0
C      1  0.5763360000000  0.4524760000000  0.5421240000000 1.0
C      1  0.4775810000000  0.4069650000000  0.5398460000000 1.0
C      1  0.4104050000000  0.4905830000000  0.5386960000000 1.0
C      1  0.5618550000000  0.4730110000000  0.5209940000000 1.0
C      1  0.4949280000000  0.4318390000000  0.5244660000000 1.0
C      1  0.4410250000000  0.4799080000000  0.5284530000000 1.0
C      1  0.4683100000000  0.5587460000000  0.5172090000000 1.0
C      1  0.5401250000000  0.5460810000000  0.5241770000000 1.0
C      1  0.6033090000000  0.5439300000000  0.4966190000000 1.0
C      1  0.5779170000000  0.4130890000000  0.5010700000000 1.0
C      1  0.4397880000000  0.4003220000000  0.4889250000000 1.0
C      1  0.3904010000000  0.5262800000000  0.4980070000000 1.0
C      1  0.4901590000000  0.6172590000000  0.4904460000000 1.0
C      1  0.5788460000000  0.5048300000000  0.4354560000000 1.0
C      1  0.5300310000000  0.4368720000000  0.4242130000000 1.0
C      1  0.4343650000000  0.4487230000000  0.4297450000000 1.0
C      1  0.4260290000000  0.5436810000000  0.4333630000000 1.0
C      1  0.5125810000000  0.5798030000000  0.4255940000000 1.0
C      1  0.4247870000000  0.5677810000000  0.4782080000000 1.0
C      1  0.5370640000000  0.5970510000000  0.4612110000000 1.0
C      1  0.6068500000000  0.4910450000000  0.4758340000000 1.0
C      1  0.5170230000000  0.4038560000000  0.4690080000000 1.0
C      1  0.4128160000000  0.4516980000000  0.4748160000000 1.0
C      1  0.4517690000000  0.4164080000000  0.4655150000000 1.0
C      1  0.4034920000000  0.5180140000000  0.4709540000000 1.0
C      1  0.4838480000000  0.5988460000000  0.4656390000000 1.0
C      1  0.5850720000000  0.5372030000000  0.4718910000000 1.0
C      1  0.5891200000000  0.4275210000000  0.4817820000000 1.0
C      1  0.4706510000000  0.5116480000000  0.4023350000000 1.0
C      1  0.4995550000000  0.5293730000000  0.4050000000000 1.0
C      1  0.5235450000000  0.5089050000000  0.3925460000000 1.0
C      1  0.5184560000000  0.4780450000000  0.4069340000000 1.0
C      1  0.4833150000000  0.4661130000000  0.3978180000000 1.0
C      1  0.5532240000000  0.4622650000000  0.6092100000000 1.0
C      1  0.4934900000000  0.4636410000000  0.6049840000000 1.0
C      1  0.4406300000000  0.4822140000000  0.6063050000000 1.0
C      1  0.4829270000000  0.5294400000000  0.5985670000000 1.0
C      1  0.5392490000000  0.5351300000000  0.5966040000000 1.0
C      1  0.4826640000000  0.4635450000000  0.4945890000000 1.0
C      1  0.4694850000000  0.5089520000000  0.4999200000000 1.0
C      1  0.5007200000000  0.5376970000000  0.4929300000000 1.0
C      1  0.5357450000000  0.5182610000000  0.4959380000000 1.0
C      1  0.5222420000000  0.4690370000000  0.4930070000000 1.0
C      1  0.5562070000000  0.4135770000000  0.5191960000000 1.0
C      1  0.4341560000000  0.4143340000000  0.5114210000000 1.0
C      1  0.4052510000000  0.5358360000000  0.5186690000000 1.0
C      1  0.5086090000000  0.6096960000000  0.5093840000000 1.0
C      1  0.6021030000000  0.5283370000000  0.5199500000000 1.0
C      1  0.5996880000000  0.4772880000000  0.5347230000000 1.0
C      1  0.5091930000000  0.3955090000000  0.5314080000000 1.0
C      1  0.4070560000000  0.4588550000000  0.5268460000000 1.0
C      1  0.4369430000000  0.5762750000000  0.5337910000000 1.0
C      1  0.5585680000000  0.5936580000000  0.5167880000000 1.0
C      1  0.5003940000000  0.5996980000000  0.5353140000000 1.0
C      1  0.5815720000000  0.5373830000000  0.5436390000000 1.0
C      1  0.5594180000000  0.4263680000000  0.5448810000000 1.0
C      1  0.4455480000000  0.4107690000000  0.5371550000000 1.0
C      1  0.4095770000000  0.5211770000000  0.5422370000000 1.0
C      1  0.5335750000000  0.5918970000000  0.4946670000000 1.0
C      1  0.5977330000000  0.4963830000000  0.5091860000000 1.0
C      1  0.5255210000000  0.4089770000000  0.5058520000000 1.0
C      1  0.4205580000000  0.4441610000000  0.5041120000000 1.0
C      1  0.4268920000000  0.5585080000000  0.5096890000000 1.0
C      1  0.4320410000000  0.4815210000000  0.4956890000000 1.0
C      1  0.4619600000000  0.5604630000000  0.4889970000000 1.0
C      1  0.5438420000000  0.5595130000000  0.4931120000000 1.0
C      1  0.5760310000000  0.4746520000000  0.4945990000000 1.0
C      1  0.4979540000000  0.4248650000000  0.4944630000000 1.0
C      1  0.4353590000000  0.4298520000000  0.5550930000000 1.0
C      1  0.4269440000000  0.5331120000000  0.5614210000000 1.0
C      1  0.5220840000000  0.5903450000000  0.5523680000000 1.0
C      1  0.5764830000000  0.5124980000000  0.5625610000000 1.0
C      1  0.5367580000000  0.4273710000000  0.5632810000000 1.0
C      1  0.5306150000000  0.5026110000000  0.6021730000000 1.0
C      1  0.5229510000000  0.4723240000000  0.6105530000000 1.0
C      1  0.4710790000000  0.4767460000000  0.6142290000000 1.0
C      1  0.4628270000000  0.5057570000000  0.6011120000000 1.0
C      1  0.5092870000000  0.5274800000000  0.6066290000000 1.0
C      1  0.4433490000000  0.4622620000000  0.5574370000000 1.0
C      1  0.4522860000000  0.5209430000000  0.5744940000000 1.0
C      1  0.5203130000000  0.5666090000000  0.5678130000000 1.0
C      1  0.5477860000000  0.4975050000000  0.5732750000000 1.0
C      1  0.5247450000000  0.4524610000000  0.5829190000000 1.0
C      1  0.4665040000000  0.4435190000000  0.5291140000000 1.0
C      1  0.4471340000000  0.5116610000000  0.5328690000000 1.0
C      1  0.4984030000000  0.5609960000000  0.5252560000000 1.0
C      1  0.5466120000000  0.5146110000000  0.5332540000000 1.0
C      1  0.5375220000000  0.4578350000000  0.5342890000000 1.0
C      1  0.4050870000000  0.4705870000000  0.5647150000000 1.0
C      1  0.4611850000000  0.5685930000000  0.5637220000000 1.0
C      1  0.5682740000000  0.5648800000000  0.5595600000000 1.0
C      1  0.5860020000000  0.4658250000000  0.5700280000000 1.0
C      1  0.4885780000000  0.4244870000000  0.5666450000000 1.0
C      1  0.5555640000000  0.5236390000000  0.4617390000000 1.0
C      1  0.5418530000000  0.4501110000000  0.4637690000000 1.0
C      1  0.4665280000000  0.4443970000000  0.4530270000000 1.0
C      1  0.4351030000000  0.5133310000000  0.4593430000000 1.0
C      1  0.4895540000000  0.5669190000000  0.4554290000000 1.0
C      1  0.4722070000000  0.5049610000000  0.5544370000000 1.0
C      1  0.5045720000000  0.5433640000000  0.5547480000000 1.0
C      1  0.5285330000000  0.5199820000000  0.5588020000000 1.0
C      1  0.5270170000000  0.4743000000000  0.5595340000000 1.0
C      1  0.4741610000000  0.4733370000000  0.5597210000000 1.0
C      1  0.5577300000000  0.5290680000000  0.4296520000000 1.0
C      1  0.5545330000000  0.4567560000000  0.4334610000000 1.0
C      1  0.4643060000000  0.4439010000000  0.4191140000000 1.0
C      1  0.4297020000000  0.5127370000000  0.4257800000000 1.0
C      1  0.4839340000000  0.5701850000000  0.4220520000000 1.0
C      1  0.5120300000000  0.5287100000000  0.4365070000000 1.0
C      1  0.5246410000000  0.4976940000000  0.4426160000000 1.0
C      1  0.5003220000000  0.4750020000000  0.4355510000000 1.0
C      1  0.4711920000000  0.4911740000000  0.4371500000000 1.0
C      1  0.4725930000000  0.5239630000000  0.4339740000000 1.0
C      1  0.4938330000000  0.4575650000000  0.4640420000000 1.0
C      1  0.4626990000000  0.4960770000000  0.4691900000000 1.0
C      1  0.4820630000000  0.5363890000000  0.4641780000000 1.0
C      1  0.5225450000000  0.5278260000000  0.4687770000000 1.0
C      1  0.5379240000000  0.4817830000000  0.4670210000000 1.0
C      1  0.5439490000000  0.5563090000000  0.5793850000000 1.0
C      1  0.5654500000000  0.4720560000000  0.5872910000000 1.0
C      1  0.4916980000000  0.4540140000000  0.5750450000000 1.0
C      1  0.4268450000000  0.4739590000000  0.5847710000000 1.0
C      1  0.4777480000000  0.5431220000000  0.5701990000000 1.0
C      1  0.4553510000000  0.5523520000000  0.4266950000000 1.0
C      1  0.5339540000000  0.5533360000000  0.4281190000000 1.0
C      1  0.5533090000000  0.4865810000000  0.4279870000000 1.0
C      1  0.4964690000000  0.4417920000000  0.4266600000000 1.0
C      1  0.4410010000000  0.4806580000000  0.4255480000000 1.0
C      1  0.4112730000000  0.4878080000000  0.4404420000000 1.0
C      1  0.4573910000000  0.5839310000000  0.4391480000000 1.0
C      1  0.5522960000000  0.5744670000000  0.4484730000000 1.0
C      1  0.5729870000000  0.4411640000000  0.4565180000000 1.0
C      1  0.4936790000000  0.4138000000000  0.4396100000000 1.0
C      1  0.5674760000000  0.5117890000000  0.5063010000000 1.0
C      1  0.5312670000000  0.4424600000000  0.5072420000000 1.0
C      1  0.4524840000000  0.4486130000000  0.5016070000000 1.0
C      1  0.4429110000000  0.5299950000000  0.5065560000000 1.0
C      1  0.5063280000000  0.5717350000000  0.4974060000000 1.0
C      1  0.5503190000000  0.5917080000000  0.5463670000000 1.0
C      1  0.5974460000000  0.4926000000000  0.5610440000000 1.0
C      1  0.5136380000000  0.4111730000000  0.5569410000000 1.0
C      1  0.4079920000000  0.4425830000000  0.5524250000000 1.0
C      1  0.4311860000000  0.5616520000000  0.5604340000000 1.0
C      1  0.5050540000000  0.4621870000000  0.5359930000000 1.0
C      1  0.4751400000000  0.4748800000000  0.5257640000000 1.0
C      1  0.4767850000000  0.5274230000000  0.5275210000000 1.0
C      1  0.5105740000000  0.5292600000000  0.5243630000000 1.0
C      1  0.5342120000000  0.4911480000000  0.5130120000000 1.0
C      1  0.4274130000000  0.4373750000000  0.4548010000000 1.0
C      1  0.4152500000000  0.5478270000000  0.4595720000000 1.0
C      1  0.5126520000000  0.5984690000000  0.4475490000000 1.0
C      1  0.5947340000000  0.5100230000000  0.4577860000000 1.0
C      1  0.5333660000000  0.4123670000000  0.4427690000000 1.0
C      1  0.4964600000000  0.5060050000000  0.4692400000000 1.0
C      1  0.4976180000000  0.4911310000000  0.4970400000000 1.0
END
