TITL C-2622958-629-15 0.000105979637109671 125000 -285.689118085214 0 0 51 (C1) n - 1
REM
REM in /nfs/bkarasulu/CARBON/AIRSS/Generating-Clusters/AIREBO/with-SteepDescent/Higher-Symm/SD-CG/HFTN-CG
REM
REM
REM
REM
REM
REM ./C.cell (b20cbc046b6831c77cfcea5457e17084)
REM
REM compiler GCC version 9.2.1 20190827 (Red Hat 9.2.1-1)
REM options -cpp -mtune=generic -march=x86-64 -g -O0 -fpre-include=/usr/include/finclude/math-vector-fortran.h
REM seed 2026589604 -1645111363 -2126054438 1644029063 -1856937899 -770009980 -2043413658 -2037414581 -400800383 -1870936076 2128475896 828136374 1017602713 1450506748 1995472500 -2100112063 79241626 229104947 1204788259 1766348082 1092439168 -79961631 -306009187 -1928001815 2118683150 1012136953 -665308363 -1825152304 -1083745787 -1660035979 136993219 403030707 -965468725
REM
CELL 1.54180   50.00000   50.00000   50.00000   90.00000   90.00000   90.00000
LATT -1
SFAC C  
C      1  0.5340360000000  0.5013980000000  0.5293950000000 1.0
C      1  0.4835410000000  0.4702630000000  0.5309820000000 1.0
C      1  0.4821440000000  0.5276550000000  0.5302100000000 1.0
C      1  0.4673620000000  0.5005170000000  0.5315330000000 1.0
C      1  0.5145090000000  0.4705560000000  0.5332470000000 1.0
C      1  0.5186660000000  0.5278300000000  0.5273540000000 1.0
C      1  0.4693020000000  0.4600140000000  0.5601100000000 1.0
C      1  0.4844250000000  0.5421350000000  0.5589910000000 1.0
C      1  0.5457120000000  0.4964720000000  0.5591550000000 1.0
C      1  0.5289240000000  0.4749990000000  0.5594340000000 1.0
C      1  0.5112930000000  0.5405370000000  0.5543090000000 1.0
C      1  0.4600850000000  0.4859080000000  0.5592240000000 1.0
C      1  0.5369340000000  0.4543960000000  0.4597580000000 1.0
C      1  0.4400050000000  0.4890760000000  0.4577600000000 1.0
C      1  0.5132330000000  0.5580230000000  0.4604970000000 1.0
C      1  0.4582160000000  0.4639350000000  0.4606340000000 1.0
C      1  0.5541950000000  0.4803470000000  0.4620400000000 1.0
C      1  0.4839910000000  0.5551990000000  0.4599310000000 1.0
C      1  0.4740900000000  0.5263450000000  0.4570950000000 1.0
C      1  0.5330400000000  0.5044370000000  0.4568180000000 1.0
C      1  0.4888200000000  0.4747870000000  0.4550300000000 1.0
C      1  0.5285000000000  0.5342660000000  0.4532450000000 1.0
C      1  0.4674600000000  0.5007330000000  0.4489200000000 1.0
C      1  0.5175120000000  0.4760270000000  0.4475820000000 1.0
C      1  0.5161420000000  0.4735230000000  0.4938610000000 1.0
C      1  0.4723420000000  0.4995540000000  0.4926030000000 1.0
C      1  0.5170890000000  0.5271220000000  0.4855630000000 1.0
C      1  0.4864860000000  0.4736980000000  0.4871220000000 1.0
C      1  0.5314820000000  0.4982210000000  0.4895940000000 1.0
C      1  0.4863180000000  0.5265770000000  0.4876040000000 1.0
C      1  0.5682950000000  0.4804830000000  0.4860750000000 1.0
C      1  0.4521550000000  0.4505720000000  0.4843240000000 1.0
C      1  0.4773800000000  0.5678190000000  0.4857790000000 1.0
C      1  0.4302100000000  0.4839380000000  0.4858800000000 1.0
C      1  0.5462020000000  0.4472100000000  0.4877720000000 1.0
C      1  0.5202560000000  0.5697950000000  0.4857180000000 1.0
C      1  0.4268320000000  0.5262290000000  0.5129560000000 1.0
C      1  0.5618520000000  0.5488070000000  0.5088070000000 1.0
C      1  0.5113320000000  0.4218320000000  0.5147810000000 1.0
C      1  0.5742620000000  0.5268140000000  0.5090950000000 1.0
C      1  0.4391430000000  0.5482250000000  0.5123700000000 1.0
C      1  0.4863930000000  0.4226400000000  0.5107640000000 1.0
C      1  0.5311930000000  0.5486400000000  0.5061800000000 1.0
C      1  0.5264510000000  0.4483460000000  0.5119770000000 1.0
C      1  0.4433470000000  0.5006100000000  0.5083280000000 1.0
C      1  0.4695630000000  0.5473810000000  0.5078320000000 1.0
C      1  0.4739160000000  0.4503590000000  0.5064480000000 1.0
C      1  0.5582600000000  0.5006730000000  0.5075890000000 1.0
C      1  0.4981290000000  0.5871920000000  0.4944530000000 1.0
C      1  0.4237140000000  0.4551530000000  0.4927760000000 1.0
C      1  0.5752590000000  0.4527350000000  0.4946550000000 1.0
END
