TITL C-2622959-7779-534 -0.000828665519943632 125000 -697.791924001503 0 0 128 (C1) n - 1
REM
REM in /nfs/bkarasulu/CARBON/AIRSS/Generating-Clusters/AIREBO/with-SteepDescent/Higher-Symm/SD-CG/HFTN-CG
REM
REM
REM
REM
REM
REM ./C.cell (b20cbc046b6831c77cfcea5457e17084)
REM
REM compiler GCC version 9.2.1 20190827 (Red Hat 9.2.1-1)
REM options -cpp -mtune=generic -march=x86-64 -g -O0 -fpre-include=/usr/include/finclude/math-vector-fortran.h
REM seed 686855104 1593148383 869888803 1937894641 1991510110 -161891462 -1955696146 1764350719 -1941699990 704828048 1506930760 -1798653435 2031087428 1812688256 -1601706763 1663304840 732308824 -1098723751 1756321291 -438193807 -645146102 -1984375730 -20932812 -796951307 -2080190312 1802178274 -358340706 -1823883031 1487778527 -1154348649 484238141 25783170 558519695
REM
CELL 1.54180   50.00000   50.00000   50.00000   90.00000   90.00000   90.00000
LATT -1
SFAC C  
C      1  0.5183190000000  0.5340840000000  0.4038100000000 1.0
C      1  0.5109330000000  0.5962170000000  0.4981770000000 1.0
C      1  0.5092810000000  0.5530890000000  0.5879810000000 1.0
C      1  0.5096550000000  0.4503500000000  0.5864240000000 1.0
C      1  0.5177590000000  0.4010780000000  0.5182230000000 1.0
C      1  0.5062450000000  0.4449490000000  0.4148630000000 1.0
C      1  0.4853130000000  0.5354350000000  0.4054930000000 1.0
C      1  0.4835930000000  0.5903260000000  0.4946040000000 1.0
C      1  0.4820480000000  0.5572900000000  0.5805210000000 1.0
C      1  0.4878910000000  0.4391940000000  0.5975690000000 1.0
C      1  0.4846390000000  0.4015970000000  0.5180870000000 1.0
C      1  0.4785290000000  0.4405550000000  0.4198300000000 1.0
C      1  0.4356610000000  0.5139320000000  0.5422410000000 1.0
C      1  0.4258610000000  0.4548270000000  0.5306440000000 1.0
C      1  0.4433260000000  0.4567290000000  0.4820140000000 1.0
C      1  0.4259730000000  0.4973530000000  0.4457810000000 1.0
C      1  0.4426920000000  0.5435680000000  0.4957480000000 1.0
C      1  0.4362770000000  0.5453290000000  0.5291090000000 1.0
C      1  0.5508350000000  0.4918130000000  0.5252300000000 1.0
C      1  0.5611270000000  0.4676750000000  0.5059920000000 1.0
C      1  0.5586480000000  0.4743350000000  0.4727100000000 1.0
C      1  0.5651430000000  0.5027270000000  0.4605190000000 1.0
C      1  0.5682280000000  0.5518720000000  0.4883140000000 1.0
C      1  0.5724810000000  0.5332100000000  0.5434720000000 1.0
C      1  0.6038310000000  0.4886360000000  0.4826570000000 1.0
C      1  0.5893590000000  0.5118920000000  0.4750090000000 1.0
C      1  0.5857530000000  0.5318720000000  0.4949320000000 1.0
C      1  0.5898230000000  0.5247130000000  0.5227870000000 1.0
C      1  0.5994590000000  0.4977630000000  0.5271240000000 1.0
C      1  0.5934360000000  0.4784060000000  0.5070170000000 1.0
C      1  0.4229870000000  0.4764940000000  0.4891210000000 1.0
C      1  0.4195900000000  0.4983920000000  0.4726360000000 1.0
C      1  0.4202610000000  0.5230570000000  0.4851290000000 1.0
C      1  0.4113690000000  0.5264460000000  0.5131240000000 1.0
C      1  0.4088830000000  0.5003560000000  0.5268910000000 1.0
C      1  0.4144550000000  0.4755100000000  0.5154130000000 1.0
C      1  0.5157810000000  0.5429560000000  0.5203270000000 1.0
C      1  0.5103560000000  0.5104450000000  0.5429520000000 1.0
C      1  0.5099790000000  0.4662650000000  0.5246220000000 1.0
C      1  0.5153270000000  0.4570990000000  0.4800840000000 1.0
C      1  0.5148110000000  0.4910700000000  0.4504690000000 1.0
C      1  0.5219700000000  0.5310350000000  0.4727970000000 1.0
C      1  0.4889960000000  0.5465080000000  0.5182090000000 1.0
C      1  0.4828100000000  0.5198760000000  0.5474000000000 1.0
C      1  0.4829210000000  0.4710580000000  0.5234540000000 1.0
C      1  0.4899540000000  0.4561950000000  0.4820820000000 1.0
C      1  0.4890240000000  0.4885010000000  0.4525750000000 1.0
C      1  0.4958200000000  0.5276810000000  0.4708180000000 1.0
C      1  0.4440550000000  0.4754250000000  0.4359340000000 1.0
C      1  0.4557180000000  0.5369730000000  0.4373870000000 1.0
C      1  0.4380980000000  0.5769760000000  0.5167430000000 1.0
C      1  0.4386630000000  0.5209810000000  0.5763720000000 1.0
C      1  0.4423040000000  0.4635540000000  0.5556190000000 1.0
C      1  0.4533930000000  0.4176860000000  0.4992960000000 1.0
C      1  0.5489630000000  0.4715110000000  0.4237840000000 1.0
C      1  0.5398160000000  0.5477350000000  0.4341340000000 1.0
C      1  0.5469460000000  0.5739710000000  0.5193230000000 1.0
C      1  0.5341360000000  0.5171380000000  0.5743150000000 1.0
C      1  0.5471110000000  0.4545120000000  0.5555020000000 1.0
C      1  0.5344240000000  0.4223120000000  0.4850220000000 1.0
C      1  0.5750800000000  0.5871620000000  0.5333600000000 1.0
C      1  0.5497060000000  0.4888700000000  0.5793770000000 1.0
C      1  0.5528610000000  0.4206270000000  0.5610990000000 1.0
C      1  0.5454430000000  0.4280790000000  0.4596210000000 1.0
C      1  0.5471650000000  0.4845720000000  0.3917840000000 1.0
C      1  0.5586620000000  0.5650980000000  0.4423200000000 1.0
C      1  0.4540200000000  0.5935000000000  0.5420170000000 1.0
C      1  0.4615880000000  0.5028170000000  0.5935770000000 1.0
C      1  0.4590420000000  0.4372380000000  0.5576530000000 1.0
C      1  0.4558110000000  0.4129590000000  0.4656280000000 1.0
C      1  0.4582880000000  0.4877430000000  0.4093470000000 1.0
C      1  0.4568520000000  0.5668420000000  0.4525780000000 1.0
C      1  0.4799630000000  0.5676760000000  0.4735830000000 1.0
C      1  0.4793580000000  0.5764240000000  0.5556300000000 1.0
C      1  0.4677560000000  0.4837130000000  0.5661340000000 1.0
C      1  0.4748890000000  0.4295280000000  0.5328500000000 1.0
C      1  0.4742100000000  0.4313450000000  0.4495200000000 1.0
C      1  0.4769380000000  0.5082270000000  0.4181540000000 1.0
C      1  0.5273820000000  0.5801590000000  0.4773630000000 1.0
C      1  0.5294980000000  0.5638750000000  0.5641600000000 1.0
C      1  0.5171300000000  0.4790490000000  0.5797300000000 1.0
C      1  0.5388030000000  0.4251380000000  0.5298360000000 1.0
C      1  0.5223880000000  0.4360520000000  0.4395350000000 1.0
C      1  0.5386370000000  0.5090150000000  0.4145700000000 1.0
C      1  0.5124810000000  0.5246270000000  0.5939610000000 1.0
C      1  0.5227980000000  0.4342710000000  0.5652600000000 1.0
C      1  0.5076590000000  0.4035360000000  0.4858480000000 1.0
C      1  0.5195610000000  0.4714790000000  0.4067050000000 1.0
C      1  0.5096070000000  0.5580870000000  0.4268420000000 1.0
C      1  0.5215990000000  0.5909720000000  0.5236610000000 1.0
C      1  0.4701390000000  0.5304470000000  0.5756240000000 1.0
C      1  0.4670370000000  0.4297330000000  0.5823200000000 1.0
C      1  0.4746850000000  0.3949280000000  0.4870210000000 1.0
C      1  0.4575770000000  0.4562500000000  0.4113130000000 1.0
C      1  0.4757880000000  0.5612260000000  0.4245410000000 1.0
C      1  0.4706880000000  0.5819040000000  0.5170130000000 1.0
C      1  0.5677030000000  0.4982640000000  0.4293920000000 1.0
C      1  0.5574320000000  0.5722340000000  0.4693870000000 1.0
C      1  0.5594100000000  0.5609070000000  0.5481330000000 1.0
C      1  0.5574310000000  0.5085520000000  0.5524950000000 1.0
C      1  0.5676260000000  0.4455670000000  0.5304940000000 1.0
C      1  0.5663750000000  0.4456500000000  0.4594830000000 1.0
C      1  0.4293330000000  0.5215820000000  0.4331070000000 1.0
C      1  0.4393670000000  0.5717080000000  0.4801860000000 1.0
C      1  0.4163270000000  0.5565480000000  0.5515780000000 1.0
C      1  0.4284990000000  0.4903460000000  0.5656770000000 1.0
C      1  0.4320380000000  0.4313450000000  0.5187690000000 1.0
C      1  0.4303900000000  0.4299200000000  0.4691690000000 1.0
C      1  0.4667560000000  0.4633540000000  0.4582780000000 1.0
C      1  0.4750420000000  0.5154870000000  0.4502030000000 1.0
C      1  0.4750410000000  0.5392650000000  0.4916190000000 1.0
C      1  0.4681690000000  0.5489960000000  0.5404260000000 1.0
C      1  0.4643440000000  0.4971140000000  0.5350650000000 1.0
C      1  0.4667710000000  0.4482950000000  0.5056670000000 1.0
C      1  0.5324020000000  0.4656500000000  0.4529040000000 1.0
C      1  0.5369510000000  0.5167330000000  0.4476530000000 1.0
C      1  0.5350730000000  0.5524200000000  0.4958380000000 1.0
C      1  0.5283370000000  0.5362410000000  0.5480060000000 1.0
C      1  0.5273990000000  0.4810110000000  0.5473710000000 1.0
C      1  0.5327890000000  0.4488560000000  0.5062190000000 1.0
C      1  0.5094870000000  0.5837500000000  0.5483290000000 1.0
C      1  0.4933810000000  0.4982870000000  0.5840900000000 1.0
C      1  0.5058010000000  0.5014220000000  0.4100470000000 1.0
C      1  0.5062910000000  0.5699930000000  0.4572650000000 1.0
C      1  0.5062520000000  0.4267290000000  0.5395630000000 1.0
C      1  0.5021880000000  0.4212170000000  0.4582000000000 1.0
C      1  0.5246000000000  0.5041710000000  0.5150340000000 1.0
C      1  0.4688870000000  0.5078680000000  0.5031290000000 1.0
END
