TITL C-2622959-7779-708 -1820.69396571507 125000 -390.536087049151 0 0 79 (C1) n - 1
REM
REM in /nfs/bkarasulu/CARBON/AIRSS/Generating-Clusters/AIREBO/with-SteepDescent/Higher-Symm/SD-CG/HFTN-CG
REM
REM
REM
REM
REM
REM ./C.cell (b20cbc046b6831c77cfcea5457e17084)
REM
REM compiler GCC version 9.2.1 20190827 (Red Hat 9.2.1-1)
REM options -cpp -mtune=generic -march=x86-64 -g -O0 -fpre-include=/usr/include/finclude/math-vector-fortran.h
REM seed 1508002916 1462445511 91019945 1161507333 75894845 227033061 1785170415 -1996740319 702176367 -326421711 -680358874 959923662 1491594823 1995265999 893442900 -861168065 -1747770111 -456098886 -487881981 23228969 -518770980 385554126 -307300671 1390582933 390843393 -1542440226 -588293099 -489682830 1319272436 1230684895 1681642700 -1468133464 177530708
REM
CELL 1.54180   50.00000   50.00000   50.00000   90.00000   90.00000   90.00000
LATT -1
SFAC C  
C      1  0.5497710000000  0.4394950000000  0.5285160000000 1.0
C      1  0.4821420000000  0.4233100000000  0.5297410000000 1.0
C      1  0.4315810000000  0.4699130000000  0.5303710000000 1.0
C      1  0.4335510000000  0.5323350000000  0.5280990000000 1.0
C      1  0.4834040000000  0.5719190000000  0.5342180000000 1.0
C      1  0.5468810000000  0.5616240000000  0.5261510000000 1.0
C      1  0.5765110000000  0.5013150000000  0.5286770000000 1.0
C      1  0.4534250000000  0.5513530000000  0.4847640000000 1.0
C      1  0.5057320000000  0.5741480000000  0.4852100000000 1.0
C      1  0.5598730000000  0.5401100000000  0.4842870000000 1.0
C      1  0.5668130000000  0.4790010000000  0.4881820000000 1.0
C      1  0.5238730000000  0.4345530000000  0.4862640000000 1.0
C      1  0.4626690000000  0.4410990000000  0.4865170000000 1.0
C      1  0.4224860000000  0.4837940000000  0.4815260000000 1.0
C      1  0.5858590000000  0.5254850000000  0.4720520000000 1.0
C      1  0.5725560000000  0.4487080000000  0.4759780000000 1.0
C      1  0.5059690000000  0.4133980000000  0.4716950000000 1.0
C      1  0.4351500000000  0.4332990000000  0.4685620000000 1.0
C      1  0.4154150000000  0.5140100000000  0.4803560000000 1.0
C      1  0.4552830000000  0.5784930000000  0.4687280000000 1.0
C      1  0.5332720000000  0.5835820000000  0.4677790000000 1.0
C      1  0.4968220000000  0.4665840000000  0.4852370000000 1.0
C      1  0.4719560000000  0.4798580000000  0.4798110000000 1.0
C      1  0.4720300000000  0.5108800000000  0.4770640000000 1.0
C      1  0.4995790000000  0.5122680000000  0.4907310000000 1.0
C      1  0.5196240000000  0.5321130000000  0.4748560000000 1.0
C      1  0.5297690000000  0.5036290000000  0.4865800000000 1.0
C      1  0.5241030000000  0.4758170000000  0.4788090000000 1.0
C      1  0.5001890000000  0.5523080000000  0.5449340000000 1.0
C      1  0.5440120000000  0.5401450000000  0.5439320000000 1.0
C      1  0.5586950000000  0.4861220000000  0.5443650000000 1.0
C      1  0.5273910000000  0.4451310000000  0.5452290000000 1.0
C      1  0.4745810000000  0.4435890000000  0.5503580000000 1.0
C      1  0.4481540000000  0.4918500000000  0.5486490000000 1.0
C      1  0.4429440000000  0.5313190000000  0.5518840000000 1.0
C      1  0.5577900000000  0.5244540000000  0.4477600000000 1.0
C      1  0.5612960000000  0.4688810000000  0.4499610000000 1.0
C      1  0.5121600000000  0.4454870000000  0.4487660000000 1.0
C      1  0.4579670000000  0.4474060000000  0.4470930000000 1.0
C      1  0.4356230000000  0.4968510000000  0.4511500000000 1.0
C      1  0.4614790000000  0.5462790000000  0.4460750000000 1.0
C      1  0.5144800000000  0.5634010000000  0.4478710000000 1.0
C      1  0.4468500000000  0.4682780000000  0.4995240000000 1.0
C      1  0.4523000000000  0.5222480000000  0.5023240000000 1.0
C      1  0.4784500000000  0.5681120000000  0.5014470000000 1.0
C      1  0.5319870000000  0.5555280000000  0.4961880000000 1.0
C      1  0.5599560000000  0.5100380000000  0.5002840000000 1.0
C      1  0.5430040000000  0.4584520000000  0.5011110000000 1.0
C      1  0.4932870000000  0.4374140000000  0.5008710000000 1.0
C      1  0.5313970000000  0.4795080000000  0.5251940000000 1.0
C      1  0.5047950000000  0.4583000000000  0.5251170000000 1.0
C      1  0.4717740000000  0.4614540000000  0.5242690000000 1.0
C      1  0.4613520000000  0.4931400000000  0.5176560000000 1.0
C      1  0.4799780000000  0.5375780000000  0.5141190000000 1.0
C      1  0.5137110000000  0.5375570000000  0.5184100000000 1.0
C      1  0.5364570000000  0.5131550000000  0.5246770000000 1.0
C      1  0.4294010000000  0.4637310000000  0.4556680000000 1.0
C      1  0.4387890000000  0.5285120000000  0.4642410000000 1.0
C      1  0.4840080000000  0.5677240000000  0.4598540000000 1.0
C      1  0.5468620000000  0.5550320000000  0.4566320000000 1.0
C      1  0.5725630000000  0.4978970000000  0.4621970000000 1.0
C      1  0.5439580000000  0.4415270000000  0.4603250000000 1.0
C      1  0.4834970000000  0.4321550000000  0.4611190000000 1.0
C      1  0.5330710000000  0.4940780000000  0.5624060000000 1.0
C      1  0.5129580000000  0.4684220000000  0.5628050000000 1.0
C      1  0.4839580000000  0.4619120000000  0.5699620000000 1.0
C      1  0.4677080000000  0.4847010000000  0.5733670000000 1.0
C      1  0.4668690000000  0.5176260000000  0.5673550000000 1.0
C      1  0.4946320000000  0.5320780000000  0.5667920000000 1.0
C      1  0.5240480000000  0.5245270000000  0.5609470000000 1.0
C      1  0.4711950000000  0.5140920000000  0.4454160000000 1.0
C      1  0.4905600000000  0.5357630000000  0.4317170000000 1.0
C      1  0.5184360000000  0.5302980000000  0.4439110000000 1.0
C      1  0.5345480000000  0.5058080000000  0.4341600000000 1.0
C      1  0.5280990000000  0.4754620000000  0.4466290000000 1.0
C      1  0.4961010000000  0.4732650000000  0.4353150000000 1.0
C      1  0.4653340000000  0.4806620000000  0.4477600000000 1.0
C      1  0.5058230000000  0.4944380000000  0.5420700000000 1.0
C      1  0.4900690000000  0.5057710000000  0.5206570000000 1.0
END
