TITL C-2622955-8511-418 -0.00282848585567542 125000 -888.426932807514 0 0 162 (C1) n - 1
REM
REM in /nfs/bkarasulu/CARBON/AIRSS/Generating-Clusters/AIREBO/with-SteepDescent/Higher-Symm/SD-CG/HFTN-CG
REM
REM
REM
REM
REM
REM ./C.cell (b20cbc046b6831c77cfcea5457e17084)
REM
REM compiler GCC version 9.2.1 20190827 (Red Hat 9.2.1-1)
REM options -cpp -mtune=generic -march=x86-64 -g -O0 -fpre-include=/usr/include/finclude/math-vector-fortran.h
REM seed -1032787231 -1145824707 -2372987 586445452 -1138973429 357098039 -1901874853 -1884811986 269481783 332405773 1546351382 196515860 -1532783053 -1379837956 1360650650 601840013 -916317275 -1454595420 -853234332 190955538 -1008594087 649351962 -98840282 -512166253 1185712768 1908423078 1141321277 2127135768 -319829881 -499457238 -2093374416 -190470342 1375414126
REM
CELL 1.54180   50.00000   50.00000   50.00000   90.00000   90.00000   90.00000
LATT -1
SFAC C  
C      1  0.4604790000000  0.4827720000000  0.5721560000000 1.0
C      1  0.5528900000000  0.4566830000000  0.4782610000000 1.0
C      1  0.4859050000000  0.5659420000000  0.4703740000000 1.0
C      1  0.4599360000000  0.5257850000000  0.4382930000000 1.0
C      1  0.5360840000000  0.5166670000000  0.5584180000000 1.0
C      1  0.5291040000000  0.4689710000000  0.4301130000000 1.0
C      1  0.5537340000000  0.5440780000000  0.5204830000000 1.0
C      1  0.4369620000000  0.5390430000000  0.4863000000000 1.0
C      1  0.4365820000000  0.4651770000000  0.5166210000000 1.0
C      1  0.4888390000000  0.4361200000000  0.5377150000000 1.0
C      1  0.5092380000000  0.4343430000000  0.4658540000000 1.0
C      1  0.5063940000000  0.5630410000000  0.5352980000000 1.0
C      1  0.4577550000000  0.5580990000000  0.4696530000000 1.0
C      1  0.5468380000000  0.4785860000000  0.4561270000000 1.0
C      1  0.4783560000000  0.4562570000000  0.5630320000000 1.0
C      1  0.4581940000000  0.4410610000000  0.5238190000000 1.0
C      1  0.5361320000000  0.5673030000000  0.5233540000000 1.0
C      1  0.5330520000000  0.4324640000000  0.4817150000000 1.0
C      1  0.5611860000000  0.5144850000000  0.5354820000000 1.0
C      1  0.4450630000000  0.4829400000000  0.5418490000000 1.0
C      1  0.4377240000000  0.5153720000000  0.4618760000000 1.0
C      1  0.4898050000000  0.5255260000000  0.4331020000000 1.0
C      1  0.5007570000000  0.4623680000000  0.4262040000000 1.0
C      1  0.5094460000000  0.5239250000000  0.5673110000000 1.0
C      1  0.5827410000000  0.4446940000000  0.4730930000000 1.0
C      1  0.4669390000000  0.5825080000000  0.4393740000000 1.0
C      1  0.4273300000000  0.4775570000000  0.5776330000000 1.0
C      1  0.5842140000000  0.5489430000000  0.5306120000000 1.0
C      1  0.4154270000000  0.5611830000000  0.4408940000000 1.0
C      1  0.4066910000000  0.4514580000000  0.5256420000000 1.0
C      1  0.4683340000000  0.4053070000000  0.5525950000000 1.0
C      1  0.5415020000000  0.4220830000000  0.4440910000000 1.0
C      1  0.5433580000000  0.5857690000000  0.5580090000000 1.0
C      1  0.4484630000000  0.5423080000000  0.4111570000000 1.0
C      1  0.5591140000000  0.5337530000000  0.5740440000000 1.0
C      1  0.5607640000000  0.4729500000000  0.4184040000000 1.0
C      1  0.5798710000000  0.4727520000000  0.4537910000000 1.0
C      1  0.4737320000000  0.4264530000000  0.5748760000000 1.0
C      1  0.4382730000000  0.5792770000000  0.4552410000000 1.0
C      1  0.5873660000000  0.5360760000000  0.5563010000000 1.0
C      1  0.4125670000000  0.4775380000000  0.5466530000000 1.0
C      1  0.4217820000000  0.5344110000000  0.4306640000000 1.0
C      1  0.4728380000000  0.5599380000000  0.4219760000000 1.0
C      1  0.5491160000000  0.4432530000000  0.4274490000000 1.0
C      1  0.5403470000000  0.5604680000000  0.5761880000000 1.0
C      1  0.4523720000000  0.4112470000000  0.5288940000000 1.0
C      1  0.5536600000000  0.5935480000000  0.5306760000000 1.0
C      1  0.5611660000000  0.4185190000000  0.4700040000000 1.0
C      1  0.4666060000000  0.5837950000000  0.5003430000000 1.0
C      1  0.5095590000000  0.4835140000000  0.5828780000000 1.0
C      1  0.6182220000000  0.4750740000000  0.5001140000000 1.0
C      1  0.4735940000000  0.4108240000000  0.4939180000000 1.0
C      1  0.5259850000000  0.4141560000000  0.5056250000000 1.0
C      1  0.5143830000000  0.5763680000000  0.4988410000000 1.0
C      1  0.5029460000000  0.5179370000000  0.4051190000000 1.0
C      1  0.4980530000000  0.5190750000000  0.5964330000000 1.0
C      1  0.4885670000000  0.4742140000000  0.4014680000000 1.0
C      1  0.5880570000000  0.5096510000000  0.5169820000000 1.0
C      1  0.4091680000000  0.5028570000000  0.4750840000000 1.0
C      1  0.4110860000000  0.5115920000000  0.5212650000000 1.0
C      1  0.4809790000000  0.4896680000000  0.5966400000000 1.0
C      1  0.4925780000000  0.5969020000000  0.4827450000000 1.0
C      1  0.5918900000000  0.4808400000000  0.5063180000000 1.0
C      1  0.4615680000000  0.4940320000000  0.4073300000000 1.0
C      1  0.5290900000000  0.5051560000000  0.3973400000000 1.0
C      1  0.5334430000000  0.4902620000000  0.5995900000000 1.0
C      1  0.4942280000000  0.4113840000000  0.5150130000000 1.0
C      1  0.4926160000000  0.5892110000000  0.5216430000000 1.0
C      1  0.4924340000000  0.3915300000000  0.4752560000000 1.0
C      1  0.5831300000000  0.5261900000000  0.4913360000000 1.0
C      1  0.4128950000000  0.4850400000000  0.5024560000000 1.0
C      1  0.4057960000000  0.5343410000000  0.4990560000000 1.0
C      1  0.5460150000000  0.5860810000000  0.4765940000000 1.0
C      1  0.4738300000000  0.5566950000000  0.5849040000000 1.0
C      1  0.5846770000000  0.4692190000000  0.5559420000000 1.0
C      1  0.5565590000000  0.4150330000000  0.5305930000000 1.0
C      1  0.4487780000000  0.4081870000000  0.4726170000000 1.0
C      1  0.4608750000000  0.5745000000000  0.5432610000000 1.0
C      1  0.4611270000000  0.4310470000000  0.4300400000000 1.0
C      1  0.5340410000000  0.4490450000000  0.5670910000000 1.0
C      1  0.5306460000000  0.5572590000000  0.4339000000000 1.0
C      1  0.5830710000000  0.5354490000000  0.4457050000000 1.0
C      1  0.4277750000000  0.5383930000000  0.5552060000000 1.0
C      1  0.4206700000000  0.4672050000000  0.4446700000000 1.0
C      1  0.5572490000000  0.4722160000000  0.5721110000000 1.0
C      1  0.4784260000000  0.5770710000000  0.5639260000000 1.0
C      1  0.5829420000000  0.5488640000000  0.4704680000000 1.0
C      1  0.5561650000000  0.5354020000000  0.4277340000000 1.0
C      1  0.4440780000000  0.4527780000000  0.4309090000000 1.0
C      1  0.4535520000000  0.5390870000000  0.5767590000000 1.0
C      1  0.4770530000000  0.4131540000000  0.4541730000000 1.0
C      1  0.5287420000000  0.5843970000000  0.4511310000000 1.0
C      1  0.5347930000000  0.4198550000000  0.5527620000000 1.0
C      1  0.5830710000000  0.4529970000000  0.5331520000000 1.0
C      1  0.4340820000000  0.5634080000000  0.5346780000000 1.0
C      1  0.4173460000000  0.4531080000000  0.4703010000000 1.0
C      1  0.4359850000000  0.5106970000000  0.4101130000000 1.0
C      1  0.4146890000000  0.4372720000000  0.4983650000000 1.0
C      1  0.5089040000000  0.4124070000000  0.4421030000000 1.0
C      1  0.4106910000000  0.4997840000000  0.5898630000000 1.0
C      1  0.5537790000000  0.5050040000000  0.4141630000000 1.0
C      1  0.5592870000000  0.5024190000000  0.5876120000000 1.0
C      1  0.4307470000000  0.5655190000000  0.5067230000000 1.0
C      1  0.5816580000000  0.5646950000000  0.5005690000000 1.0
C      1  0.5939130000000  0.4409280000000  0.5052050000000 1.0
C      1  0.5107640000000  0.5831040000000  0.5619450000000 1.0
C      1  0.4989720000000  0.5838260000000  0.4459330000000 1.0
C      1  0.5024850000000  0.4094940000000  0.5539030000000 1.0
C      1  0.4349550000000  0.4171770000000  0.5018060000000 1.0
C      1  0.4200430000000  0.5003620000000  0.4369890000000 1.0
C      1  0.4916970000000  0.4334620000000  0.4238490000000 1.0
C      1  0.4382570000000  0.5879060000000  0.4871700000000 1.0
C      1  0.5696190000000  0.4216260000000  0.5028120000000 1.0
C      1  0.5626130000000  0.5870120000000  0.5008270000000 1.0
C      1  0.4110430000000  0.5092770000000  0.5605570000000 1.0
C      1  0.5803920000000  0.5027140000000  0.5609490000000 1.0
C      1  0.5748530000000  0.5028130000000  0.4408050000000 1.0
C      1  0.5070820000000  0.5535710000000  0.5785300000000 1.0
C      1  0.5069620000000  0.4328320000000  0.5782620000000 1.0
C      1  0.5027450000000  0.5539460000000  0.4196440000000 1.0
C      1  0.5088530000000  0.4677820000000  0.5533810000000 1.0
C      1  0.5405790000000  0.5046880000000  0.4676950000000 1.0
C      1  0.4696330000000  0.5567110000000  0.5177920000000 1.0
C      1  0.5043440000000  0.5184740000000  0.4582790000000 1.0
C      1  0.4897770000000  0.5163350000000  0.5458340000000 1.0
C      1  0.4855080000000  0.4732090000000  0.4501540000000 1.0
C      1  0.5448320000000  0.4904450000000  0.5185360000000 1.0
C      1  0.4546470000000  0.4873820000000  0.4711760000000 1.0
C      1  0.4400700000000  0.5151230000000  0.5336810000000 1.0
C      1  0.4633630000000  0.4386020000000  0.4817630000000 1.0
C      1  0.5392140000000  0.4420770000000  0.5198510000000 1.0
C      1  0.5335320000000  0.5563030000000  0.4791510000000 1.0
C      1  0.5053530000000  0.5446230000000  0.4763120000000 1.0
C      1  0.5621030000000  0.4646660000000  0.5090440000000 1.0
C      1  0.4627740000000  0.5143050000000  0.5589790000000 1.0
C      1  0.5112600000000  0.4544500000000  0.5218520000000 1.0
C      1  0.4937440000000  0.5367250000000  0.5244540000000 1.0
C      1  0.4884290000000  0.4536950000000  0.4748380000000 1.0
C      1  0.5517780000000  0.5349650000000  0.4912110000000 1.0
C      1  0.4440720000000  0.4610180000000  0.4851990000000 1.0
C      1  0.4565940000000  0.5269910000000  0.5101800000000 1.0
C      1  0.4577260000000  0.4806250000000  0.4379120000000 1.0
C      1  0.5334330000000  0.5286690000000  0.4502790000000 1.0
C      1  0.5374040000000  0.4859310000000  0.5499900000000 1.0
C      1  0.6155280000000  0.5196580000000  0.4993200000000 1.0
C      1  0.5148250000000  0.3865080000000  0.4914530000000 1.0
C      1  0.4972310000000  0.6265740000000  0.4926210000000 1.0
C      1  0.4895090000000  0.4838380000000  0.6293060000000 1.0
C      1  0.4816230000000  0.5088360000000  0.3853370000000 1.0
C      1  0.6323050000000  0.4986360000000  0.4946150000000 1.0
C      1  0.3829120000000  0.5023340000000  0.5041990000000 1.0
C      1  0.3837410000000  0.5228640000000  0.4786860000000 1.0
C      1  0.4972130000000  0.6207420000000  0.5189230000000 1.0
C      1  0.5083920000000  0.4865560000000  0.3814780000000 1.0
C      1  0.5091850000000  0.3813760000000  0.5212920000000 1.0
C      1  0.5121790000000  0.5021330000000  0.6181040000000 1.0
C      1  0.4959200000000  0.4738170000000  0.5010130000000 1.0
C      1  0.5023220000000  0.5224030000000  0.4986120000000 1.0
C      1  0.4726800000000  0.5086780000000  0.4906050000000 1.0
C      1  0.4953350000000  0.4928270000000  0.4727420000000 1.0
C      1  0.5323910000000  0.5097910000000  0.4971010000000 1.0
C      1  0.4968510000000  0.4902370000000  0.5308380000000 1.0
END
