TITL C-2622967-6265-168 0.00450785892146243 125000 -254.032667025379 0 0 51 (C1) n - 1
REM
REM in /nfs/bkarasulu/CARBON/AIRSS/Generating-Clusters/AIREBO/with-SteepDescent/Higher-Symm/SD-CG/HFTN-CG
REM
REM
REM
REM
REM
REM ./C.cell (b20cbc046b6831c77cfcea5457e17084)
REM
REM compiler GCC version 9.2.1 20190827 (Red Hat 9.2.1-1)
REM options -cpp -mtune=generic -march=x86-64 -g -O0 -fpre-include=/usr/include/finclude/math-vector-fortran.h
REM seed -169358029 1668541401 -468544676 -973053359 -1894726294 -855192819 301217026 847706962 972419813 577869905 -1705848399 1306964730 1036605667 -1626472147 -1692910837 849814908 971559643 -1068821970 -74765376 -787657455 1270186634 -834789112 1898463671 711613754 1209603168 138337765 -744376650 1076799744 -1299124030 -998523100 -1481129652 1959082494 2045063500
REM
CELL 1.54180   50.00000   50.00000   50.00000   90.00000   90.00000   90.00000
LATT -1
SFAC C  
C      1  0.5584410000000  0.4931280000000  0.5004870000000 1.0
C      1  0.4775590000000  0.5559280000000  0.5023210000000 1.0
C      1  0.4656860000000  0.4534960000000  0.5010980000000 1.0
C      1  0.4462760000000  0.4919460000000  0.4992050000000 1.0
C      1  0.5236550000000  0.5566540000000  0.4995990000000 1.0
C      1  0.5326170000000  0.4561690000000  0.5024460000000 1.0
C      1  0.5281630000000  0.4909750000000  0.4338100000000 1.0
C      1  0.4959230000000  0.5291980000000  0.4277250000000 1.0
C      1  0.4702130000000  0.4744930000000  0.4229020000000 1.0
C      1  0.4662390000000  0.4904680000000  0.5595170000000 1.0
C      1  0.5104350000000  0.5222340000000  0.5699230000000 1.0
C      1  0.5278910000000  0.4780910000000  0.5594380000000 1.0
C      1  0.4747800000000  0.4921340000000  0.5297760000000 1.0
C      1  0.5223100000000  0.4836620000000  0.5294990000000 1.0
C      1  0.5046860000000  0.5280640000000  0.5411010000000 1.0
C      1  0.5234550000000  0.4888370000000  0.4639700000000 1.0
C      1  0.4745410000000  0.4769980000000  0.4509570000000 1.0
C      1  0.4952400000000  0.5289640000000  0.4564920000000 1.0
C      1  0.5473010000000  0.5040810000000  0.5360940000000 1.0
C      1  0.4754520000000  0.5411640000000  0.5392630000000 1.0
C      1  0.4796850000000  0.4602510000000  0.5372370000000 1.0
C      1  0.4524970000000  0.4999550000000  0.4610460000000 1.0
C      1  0.5254430000000  0.5398010000000  0.4641230000000 1.0
C      1  0.5194080000000  0.4571900000000  0.4660820000000 1.0
C      1  0.4698510000000  0.5557790000000  0.4701190000000 1.0
C      1  0.4648470000000  0.4439610000000  0.4707060000000 1.0
C      1  0.5621980000000  0.4953290000000  0.4699490000000 1.0
C      1  0.5301050000000  0.5569830000000  0.5311450000000 1.0
C      1  0.5391650000000  0.4478200000000  0.5315070000000 1.0
C      1  0.4353720000000  0.4955080000000  0.5279260000000 1.0
C      1  0.5285080000000  0.5022810000000  0.4948130000000 1.0
C      1  0.4910900000000  0.5287410000000  0.4903740000000 1.0
C      1  0.4813940000000  0.4774000000000  0.4844120000000 1.0
C      1  0.4752600000000  0.5050980000000  0.4986900000000 1.0
C      1  0.5167320000000  0.5263480000000  0.5093070000000 1.0
C      1  0.5085660000000  0.4769730000000  0.4991100000000 1.0
C      1  0.4971830000000  0.5649900000000  0.5282880000000 1.0
C      1  0.4474050000000  0.4633390000000  0.5269380000000 1.0
C      1  0.5609310000000  0.4739760000000  0.5279740000000 1.0
C      1  0.5033880000000  0.5640450000000  0.4733160000000 1.0
C      1  0.5517010000000  0.4630030000000  0.4751480000000 1.0
C      1  0.4424610000000  0.4699580000000  0.4735540000000 1.0
C      1  0.4571430000000  0.5202700000000  0.5344920000000 1.0
C      1  0.5067840000000  0.4545970000000  0.5350080000000 1.0
C      1  0.5384710000000  0.5298100000000  0.5426550000000 1.0
C      1  0.5420910000000  0.5170480000000  0.4603590000000 1.0
C      1  0.4934390000000  0.4497430000000  0.4584530000000 1.0
C      1  0.4625900000000  0.5252750000000  0.4629770000000 1.0
C      1  0.5722900000000  0.4561560000000  0.5013320000000 1.0
C      1  0.4263240000000  0.4577130000000  0.5008600000000 1.0
C      1  0.4968130000000  0.5839740000000  0.5000810000000 1.0
END
