TITL C-2622961-1971-15 -0.000713122494182211 125000 -844.1407086634 0 0 156 (C1) n - 1
REM
REM in /nfs/bkarasulu/CARBON/AIRSS/Generating-Clusters/AIREBO/with-SteepDescent/Higher-Symm/SD-CG/HFTN-CG
REM
REM
REM
REM
REM
REM ./C.cell (b20cbc046b6831c77cfcea5457e17084)
REM
REM compiler GCC version 9.2.1 20190827 (Red Hat 9.2.1-1)
REM options -cpp -mtune=generic -march=x86-64 -g -O0 -fpre-include=/usr/include/finclude/math-vector-fortran.h
REM seed 493318971 1037063234 -1657822291 875780584 -2102110107 -443050058 -732106139 33166666 1657638979 -1733255116 -1764142510 1082428782 -330537713 -2018846206 1355506950 -2057195802 -620202474 -248523169 958703663 -1675964953 1217293076 -1774274080 447391179 -2129668708 -1921137577 1060049523 929824666 -233467694 -421082383 -1457308468 -1638173373 1017785613 -1503290864
REM
CELL 1.54180   50.00000   50.00000   50.00000   90.00000   90.00000   90.00000
LATT -1
SFAC C  
C      1  0.5186370000000  0.5397100000000  0.5515020000000 1.0
C      1  0.5227680000000  0.4508060000000  0.4453050000000 1.0
C      1  0.4790020000000  0.4587940000000  0.5522120000000 1.0
C      1  0.4742020000000  0.5439730000000  0.4490470000000 1.0
C      1  0.5222320000000  0.4776750000000  0.5128880000000 1.0
C      1  0.5160190000000  0.5333270000000  0.4828250000000 1.0
C      1  0.4797190000000  0.5260010000000  0.5158040000000 1.0
C      1  0.4776550000000  0.4681240000000  0.4851600000000 1.0
C      1  0.5797240000000  0.5415250000000  0.4928360000000 1.0
C      1  0.5920570000000  0.4541260000000  0.5104850000000 1.0
C      1  0.4077420000000  0.4494440000000  0.4940090000000 1.0
C      1  0.3979670000000  0.5479450000000  0.5193950000000 1.0
C      1  0.4897400000000  0.4280770000000  0.5154380000000 1.0
C      1  0.4908060000000  0.5627800000000  0.4914730000000 1.0
C      1  0.5147000000000  0.5736010000000  0.5215850000000 1.0
C      1  0.5155520000000  0.4406510000000  0.4874280000000 1.0
C      1  0.4937240000000  0.4291650000000  0.5601430000000 1.0
C      1  0.4894550000000  0.5719470000000  0.4393140000000 1.0
C      1  0.5120670000000  0.5716030000000  0.5613280000000 1.0
C      1  0.5089920000000  0.4219540000000  0.4379110000000 1.0
C      1  0.4434010000000  0.4859110000000  0.5155980000000 1.0
C      1  0.4439500000000  0.5086160000000  0.4899870000000 1.0
C      1  0.5519090000000  0.5265790000000  0.5215900000000 1.0
C      1  0.5615540000000  0.4794250000000  0.4723040000000 1.0
C      1  0.4889300000000  0.5110950000000  0.5562340000000 1.0
C      1  0.4879880000000  0.4894130000000  0.4511390000000 1.0
C      1  0.5111550000000  0.4852320000000  0.5573130000000 1.0
C      1  0.5183120000000  0.5037950000000  0.4455440000000 1.0
C      1  0.6078270000000  0.4955850000000  0.4826280000000 1.0
C      1  0.5974000000000  0.4962340000000  0.5143290000000 1.0
C      1  0.4029990000000  0.5130520000000  0.4770780000000 1.0
C      1  0.4036420000000  0.5058180000000  0.5089840000000 1.0
C      1  0.5546620000000  0.5123420000000  0.5893300000000 1.0
C      1  0.5473970000000  0.4752220000000  0.4087020000000 1.0
C      1  0.4462900000000  0.4851170000000  0.5876760000000 1.0
C      1  0.4490680000000  0.5261380000000  0.4077820000000 1.0
C      1  0.4601180000000  0.4166280000000  0.5275840000000 1.0
C      1  0.4485640000000  0.5824040000000  0.4749260000000 1.0
C      1  0.5487330000000  0.5964420000000  0.5274570000000 1.0
C      1  0.5507410000000  0.4092260000000  0.4738540000000 1.0
C      1  0.5697440000000  0.4898750000000  0.5330650000000 1.0
C      1  0.5713010000000  0.5112090000000  0.4794510000000 1.0
C      1  0.4308010000000  0.5154010000000  0.5270120000000 1.0
C      1  0.4297790000000  0.4983160000000  0.4621460000000 1.0
C      1  0.5388880000000  0.4522420000000  0.5862730000000 1.0
C      1  0.5388630000000  0.5497640000000  0.4167190000000 1.0
C      1  0.4640110000000  0.5453800000000  0.5851670000000 1.0
C      1  0.4606780000000  0.4468440000000  0.4172460000000 1.0
C      1  0.4353440000000  0.5815270000000  0.5383060000000 1.0
C      1  0.4388150000000  0.4189980000000  0.4651750000000 1.0
C      1  0.5630620000000  0.4182820000000  0.5359020000000 1.0
C      1  0.5606080000000  0.5808980000000  0.4633280000000 1.0
C      1  0.5048500000000  0.4514870000000  0.5833050000000 1.0
C      1  0.5058010000000  0.5484220000000  0.4202360000000 1.0
C      1  0.4979720000000  0.5502690000000  0.5840020000000 1.0
C      1  0.4930130000000  0.4461630000000  0.4192890000000 1.0
C      1  0.4669150000000  0.4951090000000  0.4250460000000 1.0
C      1  0.4610190000000  0.4991270000000  0.5604290000000 1.0
C      1  0.5468690000000  0.5023560000000  0.4271160000000 1.0
C      1  0.5378130000000  0.4991870000000  0.5631210000000 1.0
C      1  0.4913080000000  0.4054850000000  0.4563350000000 1.0
C      1  0.4867740000000  0.5888190000000  0.5512550000000 1.0
C      1  0.5067700000000  0.5916310000000  0.4550750000000 1.0
C      1  0.5099610000000  0.4092830000000  0.5438020000000 1.0
C      1  0.4434820000000  0.5185890000000  0.5796580000000 1.0
C      1  0.4405460000000  0.4738020000000  0.4219270000000 1.0
C      1  0.5584520000000  0.4794570000000  0.5798680000000 1.0
C      1  0.5641830000000  0.5281840000000  0.4239230000000 1.0
C      1  0.4952760000000  0.4807670000000  0.4128970000000 1.0
C      1  0.4996310000000  0.5164800000000  0.5874130000000 1.0
C      1  0.5010450000000  0.5141320000000  0.4181360000000 1.0
C      1  0.5006210000000  0.4846260000000  0.5896410000000 1.0
C      1  0.4055690000000  0.5422090000000  0.4925160000000 1.0
C      1  0.4122910000000  0.4751750000000  0.5070390000000 1.0
C      1  0.5911510000000  0.4701010000000  0.4849150000000 1.0
C      1  0.5846490000000  0.5240380000000  0.5186950000000 1.0
C      1  0.5683440000000  0.4830460000000  0.4408260000000 1.0
C      1  0.5615470000000  0.5152050000000  0.5500710000000 1.0
C      1  0.4389820000000  0.5108240000000  0.4364200000000 1.0
C      1  0.4370710000000  0.4832120000000  0.5489160000000 1.0
C      1  0.5397570000000  0.5901700000000  0.5541290000000 1.0
C      1  0.5414160000000  0.4154820000000  0.4469850000000 1.0
C      1  0.4625790000000  0.4193170000000  0.5595530000000 1.0
C      1  0.4570590000000  0.5798710000000  0.4459970000000 1.0
C      1  0.5474220000000  0.5284890000000  0.4736990000000 1.0
C      1  0.5478460000000  0.4687650000000  0.5288930000000 1.0
C      1  0.4472860000000  0.4723330000000  0.4676260000000 1.0
C      1  0.4509190000000  0.5356240000000  0.5271410000000 1.0
C      1  0.5075560000000  0.4680520000000  0.4689680000000 1.0
C      1  0.5075820000000  0.5199360000000  0.5292140000000 1.0
C      1  0.4870830000000  0.5341920000000  0.4753950000000 1.0
C      1  0.4939740000000  0.4775640000000  0.5289910000000 1.0
C      1  0.5481290000000  0.5540840000000  0.4931330000000 1.0
C      1  0.5602240000000  0.4455800000000  0.5159250000000 1.0
C      1  0.4412840000000  0.4535070000000  0.4901620000000 1.0
C      1  0.4392070000000  0.5593810000000  0.5149380000000 1.0
C      1  0.5349490000000  0.5960010000000  0.4736520000000 1.0
C      1  0.5344630000000  0.4155980000000  0.5219310000000 1.0
C      1  0.4659990000000  0.4097550000000  0.4750510000000 1.0
C      1  0.4657990000000  0.5866830000000  0.5255940000000 1.0
C      1  0.4851580000000  0.5588800000000  0.5227280000000 1.0
C      1  0.4697100000000  0.4362800000000  0.4935480000000 1.0
C      1  0.5171010000000  0.4448040000000  0.5197170000000 1.0
C      1  0.5227430000000  0.5674590000000  0.4828900000000 1.0
C      1  0.5971150000000  0.5146030000000  0.4603360000000 1.0
C      1  0.5978840000000  0.4722030000000  0.5386100000000 1.0
C      1  0.3984660000000  0.4884910000000  0.4532370000000 1.0
C      1  0.4009830000000  0.5230260000000  0.5388780000000 1.0
C      1  0.5332280000000  0.4012930000000  0.4943290000000 1.0
C      1  0.5396000000000  0.6127070000000  0.5029080000000 1.0
C      1  0.4652290000000  0.5945690000000  0.4943210000000 1.0
C      1  0.4685700000000  0.3964240000000  0.5036140000000 1.0
C      1  0.5275790000000  0.5319670000000  0.5832050000000 1.0
C      1  0.5218350000000  0.4626540000000  0.4152920000000 1.0
C      1  0.4741220000000  0.4685260000000  0.5823450000000 1.0
C      1  0.4757690000000  0.5340230000000  0.4177450000000 1.0
C      1  0.4046500000000  0.5723470000000  0.5300760000000 1.0
C      1  0.4201850000000  0.4202590000000  0.4870040000000 1.0
C      1  0.5886880000000  0.4202210000000  0.5133140000000 1.0
C      1  0.5805870000000  0.5743170000000  0.4837730000000 1.0
C      1  0.4493170000000  0.5628890000000  0.5598600000000 1.0
C      1  0.4441030000000  0.4383620000000  0.4456950000000 1.0
C      1  0.5517500000000  0.4342120000000  0.5603970000000 1.0
C      1  0.5536150000000  0.5613790000000  0.4450650000000 1.0
C      1  0.4269450000000  0.5404470000000  0.4253180000000 1.0
C      1  0.4294740000000  0.4616950000000  0.5694690000000 1.0
C      1  0.5694570000000  0.4581650000000  0.4230990000000 1.0
C      1  0.5653310000000  0.5393230000000  0.5715980000000 1.0
C      1  0.4152620000000  0.4793070000000  0.4301090000000 1.0
C      1  0.4169280000000  0.5238530000000  0.5680540000000 1.0
C      1  0.5890740000000  0.5263490000000  0.4355640000000 1.0
C      1  0.5841500000000  0.4737530000000  0.5666540000000 1.0
C      1  0.4318020000000  0.5582630000000  0.4852020000000 1.0
C      1  0.4356650000000  0.4316600000000  0.5156090000000 1.0
C      1  0.5699530000000  0.4307050000000  0.4869370000000 1.0
C      1  0.5653590000000  0.5720670000000  0.5142740000000 1.0
C      1  0.4370070000000  0.5575850000000  0.4457350000000 1.0
C      1  0.4431010000000  0.4415120000000  0.5538440000000 1.0
C      1  0.5596510000000  0.4373170000000  0.4386410000000 1.0
C      1  0.5536860000000  0.5629130000000  0.5632060000000 1.0
C      1  0.4946060000000  0.5958050000000  0.4843300000000 1.0
C      1  0.4994520000000  0.3954920000000  0.5145530000000 1.0
C      1  0.5048860000000  0.4092140000000  0.4839090000000 1.0
C      1  0.5140680000000  0.5976440000000  0.5075420000000 1.0
C      1  0.4710180000000  0.5378410000000  0.5529580000000 1.0
C      1  0.4689520000000  0.4615410000000  0.4469470000000 1.0
C      1  0.5306780000000  0.4595150000000  0.5540910000000 1.0
C      1  0.5322770000000  0.5347840000000  0.4465260000000 1.0
C      1  0.4754410000000  0.5071800000000  0.4772470000000 1.0
C      1  0.4758140000000  0.4930770000000  0.5081910000000 1.0
C      1  0.5303110000000  0.4923990000000  0.4757700000000 1.0
C      1  0.5274660000000  0.5099900000000  0.5047480000000 1.0
C      1  0.5408300000000  0.5568950000000  0.5323050000000 1.0
C      1  0.5476540000000  0.4486360000000  0.4683810000000 1.0
C      1  0.4560990000000  0.4564150000000  0.5268510000000 1.0
C      1  0.4478870000000  0.5349570000000  0.4686880000000 1.0
END
