TITL C-2622954-8726-4 -0.000305124085256312 125000 -494.484012828575 0 0 90 (C1) n - 1
REM
REM in /nfs/bkarasulu/CARBON/AIRSS/Generating-Clusters/AIREBO/with-SteepDescent/Higher-Symm/SD-CG/HFTN-CG
REM
REM
REM
REM
REM
REM ./C.cell (b20cbc046b6831c77cfcea5457e17084)
REM
REM compiler GCC version 9.2.1 20190827 (Red Hat 9.2.1-1)
REM options -cpp -mtune=generic -march=x86-64 -g -O0 -fpre-include=/usr/include/finclude/math-vector-fortran.h
REM seed -1327698910 1359043534 -1223223143 -759088214 -563793535 945399802 1947149059 -1088306196 -22974240 353467753 2086899370 1752810775 1423888025 -196603522 1785300693 1241280041 59218199 -1943368417 477412363 18692100 -65006682 -1078671674 -1905288456 -4405992 2094324675 -837601596 315119328 -120530516 1630244383 -1500692712 -1628497588 1045996789 1705437076
REM
CELL 1.54180   50.00000   50.00000   50.00000   90.00000   90.00000   90.00000
LATT -1
SFAC C  
C      1  0.5516010000000  0.5800970000000  0.5148810000000 1.0
C      1  0.4438250000000  0.5680230000000  0.4791830000000 1.0
C      1  0.5470320000000  0.4189980000000  0.5137490000000 1.0
C      1  0.4442590000000  0.4293100000000  0.4858120000000 1.0
C      1  0.4521000000000  0.5750800000000  0.5072930000000 1.0
C      1  0.5506380000000  0.5722950000000  0.4861460000000 1.0
C      1  0.4524310000000  0.4225260000000  0.5136210000000 1.0
C      1  0.5513180000000  0.4260310000000  0.4844380000000 1.0
C      1  0.5735690000000  0.5141900000000  0.4984320000000 1.0
C      1  0.4221180000000  0.5130370000000  0.5248700000000 1.0
C      1  0.5683330000000  0.4909340000000  0.4848450000000 1.0
C      1  0.4120340000000  0.4862420000000  0.5170830000000 1.0
C      1  0.4138760000000  0.5185440000000  0.4947990000000 1.0
C      1  0.5747560000000  0.5121450000000  0.5262850000000 1.0
C      1  0.4152080000000  0.4871130000000  0.4832020000000 1.0
C      1  0.5774560000000  0.4883140000000  0.5383830000000 1.0
C      1  0.4843460000000  0.4608280000000  0.4878210000000 1.0
C      1  0.5292820000000  0.4533200000000  0.5035490000000 1.0
C      1  0.4882720000000  0.5417000000000  0.4812420000000 1.0
C      1  0.5304880000000  0.5462040000000  0.5138860000000 1.0
C      1  0.5134950000000  0.4493270000000  0.4837520000000 1.0
C      1  0.4740000000000  0.4597690000000  0.5152920000000 1.0
C      1  0.5197100000000  0.5469600000000  0.4864140000000 1.0
C      1  0.4756460000000  0.5428900000000  0.5102200000000 1.0
C      1  0.4826380000000  0.4422790000000  0.4595100000000 1.0
C      1  0.5165030000000  0.4360010000000  0.5476410000000 1.0
C      1  0.4819110000000  0.5547410000000  0.4519310000000 1.0
C      1  0.5150950000000  0.5579730000000  0.5416770000000 1.0
C      1  0.5143060000000  0.4384980000000  0.4524960000000 1.0
C      1  0.4885120000000  0.4394600000000  0.5426310000000 1.0
C      1  0.5137430000000  0.5564930000000  0.4542860000000 1.0
C      1  0.4859870000000  0.5566010000000  0.5393540000000 1.0
C      1  0.4378800000000  0.5340170000000  0.5420410000000 1.0
C      1  0.5631950000000  0.5372570000000  0.4516730000000 1.0
C      1  0.4426410000000  0.4614040000000  0.5475630000000 1.0
C      1  0.5456930000000  0.4777790000000  0.4631400000000 1.0
C      1  0.5612370000000  0.5342910000000  0.5441690000000 1.0
C      1  0.4475790000000  0.5156920000000  0.4580640000000 1.0
C      1  0.5636250000000  0.4609220000000  0.5436700000000 1.0
C      1  0.4401710000000  0.4825850000000  0.4605390000000 1.0
C      1  0.5780750000000  0.5455630000000  0.5666640000000 1.0
C      1  0.4243470000000  0.5197320000000  0.4343400000000 1.0
C      1  0.5803430000000  0.4435530000000  0.5624840000000 1.0
C      1  0.4232030000000  0.4740040000000  0.4347270000000 1.0
C      1  0.4202620000000  0.5503840000000  0.5604670000000 1.0
C      1  0.5839520000000  0.5396370000000  0.4359570000000 1.0
C      1  0.4228620000000  0.4589380000000  0.5642580000000 1.0
C      1  0.5680550000000  0.4825770000000  0.4408680000000 1.0
C      1  0.5210380000000  0.4816550000000  0.5738750000000 1.0
C      1  0.4821680000000  0.4828220000000  0.4253880000000 1.0
C      1  0.5175560000000  0.5129750000000  0.5719310000000 1.0
C      1  0.4874160000000  0.5128770000000  0.4235950000000 1.0
C      1  0.4900250000000  0.4843850000000  0.5731900000000 1.0
C      1  0.5134400000000  0.4828090000000  0.4242470000000 1.0
C      1  0.4857330000000  0.5146070000000  0.5727590000000 1.0
C      1  0.5182630000000  0.5145570000000  0.4206850000000 1.0
C      1  0.5603190000000  0.4490560000000  0.5155140000000 1.0
C      1  0.4324280000000  0.4585540000000  0.4856660000000 1.0
C      1  0.5641620000000  0.5490820000000  0.5154220000000 1.0
C      1  0.4327200000000  0.5374030000000  0.4791640000000 1.0
C      1  0.4425140000000  0.4540620000000  0.5169890000000 1.0
C      1  0.5634880000000  0.4569120000000  0.4832600000000 1.0
C      1  0.4434430000000  0.5434260000000  0.5104420000000 1.0
C      1  0.5641180000000  0.5424150000000  0.4819980000000 1.0
C      1  0.4853270000000  0.5151530000000  0.5280910000000 1.0
C      1  0.5283250000000  0.5225430000000  0.4688650000000 1.0
C      1  0.4892280000000  0.4817800000000  0.5333620000000 1.0
C      1  0.5213340000000  0.4951560000000  0.4789370000000 1.0
C      1  0.5164570000000  0.5192850000000  0.5240210000000 1.0
C      1  0.4734670000000  0.5122630000000  0.4798390000000 1.0
C      1  0.5180920000000  0.4702660000000  0.5271430000000 1.0
C      1  0.4921800000000  0.4889480000000  0.4727690000000 1.0
C      1  0.4682980000000  0.5307070000000  0.5524990000000 1.0
C      1  0.5329480000000  0.5326230000000  0.4395080000000 1.0
C      1  0.4719570000000  0.4643070000000  0.5553800000000 1.0
C      1  0.5265340000000  0.4645870000000  0.4407010000000 1.0
C      1  0.5315730000000  0.5301460000000  0.5504860000000 1.0
C      1  0.4710500000000  0.5296360000000  0.4380060000000 1.0
C      1  0.5333120000000  0.4632970000000  0.5532780000000 1.0
C      1  0.4716660000000  0.4728080000000  0.4521140000000 1.0
C      1  0.4699520000000  0.5815990000000  0.5264050000000 1.0
C      1  0.5327570000000  0.5793840000000  0.4670430000000 1.0
C      1  0.4717510000000  0.4164850000000  0.5316180000000 1.0
C      1  0.5364250000000  0.4181880000000  0.4631950000000 1.0
C      1  0.5328180000000  0.5838550000000  0.5340690000000 1.0
C      1  0.4594250000000  0.5750240000000  0.4579040000000 1.0
C      1  0.5300380000000  0.4153110000000  0.5356130000000 1.0
C      1  0.4596040000000  0.4226220000000  0.4642400000000 1.0
C      1  0.5243540000000  0.4946940000000  0.5091280000000 1.0
C      1  0.4646860000000  0.5047090000000  0.5063100000000 1.0
END
