TITL C-2622963-3633-416 -0.000238087962348093 125000 -549.024621720285 0 0 103 (C1) n - 1
REM
REM in /nfs/bkarasulu/CARBON/AIRSS/Generating-Clusters/AIREBO/with-SteepDescent/Higher-Symm/SD-CG/HFTN-CG
REM
REM
REM
REM
REM
REM ./C.cell (b20cbc046b6831c77cfcea5457e17084)
REM
REM compiler GCC version 9.2.1 20190827 (Red Hat 9.2.1-1)
REM options -cpp -mtune=generic -march=x86-64 -g -O0 -fpre-include=/usr/include/finclude/math-vector-fortran.h
REM seed -2115677062 -1185817514 -1582797008 -221330202 347747402 1436055067 -2052767295 239984301 -987036613 1187756906 -1611471040 1871733018 -1041723721 -972157280 -458010532 2098112513 -505879693 1124902977 -1240458036 -925816287 1763182054 1499681063 651277984 -747228994 -142569699 1681335887 1331668893 -1273915341 739484412 -1583765539 682998069 -1280568960 74645936
REM
CELL 1.54180   50.00000   50.00000   50.00000   90.00000   90.00000   90.00000
LATT -1
SFAC C  
C      1  0.4564010000000  0.5181370000000  0.4434940000000 1.0
C      1  0.4543920000000  0.4882720000000  0.5520470000000 1.0
C      1  0.5438730000000  0.5120660000000  0.4276880000000 1.0
C      1  0.5480720000000  0.4866340000000  0.5581190000000 1.0
C      1  0.4559820000000  0.5103000000000  0.5703610000000 1.0
C      1  0.4588030000000  0.4848390000000  0.4451470000000 1.0
C      1  0.5375240000000  0.5158800000000  0.5602280000000 1.0
C      1  0.5474130000000  0.4872620000000  0.4461370000000 1.0
C      1  0.4785390000000  0.4546860000000  0.4790310000000 1.0
C      1  0.4751260000000  0.5347920000000  0.5269610000000 1.0
C      1  0.5187990000000  0.4626800000000  0.4781890000000 1.0
C      1  0.5228270000000  0.5381810000000  0.5181120000000 1.0
C      1  0.4789880000000  0.4554650000000  0.5236330000000 1.0
C      1  0.4762020000000  0.5361150000000  0.4731760000000 1.0
C      1  0.5176870000000  0.4649950000000  0.5255540000000 1.0
C      1  0.5209750000000  0.5333060000000  0.4783050000000 1.0
C      1  0.5661300000000  0.5602350000000  0.5172010000000 1.0
C      1  0.5640920000000  0.4493410000000  0.4857890000000 1.0
C      1  0.4396360000000  0.5540040000000  0.5222970000000 1.0
C      1  0.4280620000000  0.4511300000000  0.4762010000000 1.0
C      1  0.5596020000000  0.5559370000000  0.4854160000000 1.0
C      1  0.5659340000000  0.4574430000000  0.5173880000000 1.0
C      1  0.4363600000000  0.5553380000000  0.4879840000000 1.0
C      1  0.4312250000000  0.4425050000000  0.5214910000000 1.0
C      1  0.4517430000000  0.5825850000000  0.5127420000000 1.0
C      1  0.4502390000000  0.4269450000000  0.4789030000000 1.0
C      1  0.5499020000000  0.5826820000000  0.5349090000000 1.0
C      1  0.5462070000000  0.4205730000000  0.4828210000000 1.0
C      1  0.4544730000000  0.5836060000000  0.4825980000000 1.0
C      1  0.4505780000000  0.4254900000000  0.5097090000000 1.0
C      1  0.5346680000000  0.5724270000000  0.4719160000000 1.0
C      1  0.5450780000000  0.4306510000000  0.5155140000000 1.0
C      1  0.5816910000000  0.4760160000000  0.4859590000000 1.0
C      1  0.5880090000000  0.5184700000000  0.5123770000000 1.0
C      1  0.4170530000000  0.4831600000000  0.4780390000000 1.0
C      1  0.4046110000000  0.4960230000000  0.5237660000000 1.0
C      1  0.5856670000000  0.4850620000000  0.5183270000000 1.0
C      1  0.5972760000000  0.5056730000000  0.4862580000000 1.0
C      1  0.4283240000000  0.4693110000000  0.5059810000000 1.0
C      1  0.3955130000000  0.4914790000000  0.5003950000000 1.0
C      1  0.5615260000000  0.4966530000000  0.4710190000000 1.0
C      1  0.5550880000000  0.5281100000000  0.5137530000000 1.0
C      1  0.4363310000000  0.5006130000000  0.4644900000000 1.0
C      1  0.4467390000000  0.5221790000000  0.5134710000000 1.0
C      1  0.5593060000000  0.4992860000000  0.5312930000000 1.0
C      1  0.5522210000000  0.5230310000000  0.4810780000000 1.0
C      1  0.4373820000000  0.4949880000000  0.5266230000000 1.0
C      1  0.4471890000000  0.5244510000000  0.4818810000000 1.0
C      1  0.5170430000000  0.4480030000000  0.5739550000000 1.0
C      1  0.5227210000000  0.5567640000000  0.4277300000000 1.0
C      1  0.4839050000000  0.4499940000000  0.5767610000000 1.0
C      1  0.4987660000000  0.5414880000000  0.4233950000000 1.0
C      1  0.5165350000000  0.4476980000000  0.4275250000000 1.0
C      1  0.5227180000000  0.5576070000000  0.5657090000000 1.0
C      1  0.4827900000000  0.4493260000000  0.4245040000000 1.0
C      1  0.4990920000000  0.5431420000000  0.5742770000000 1.0
C      1  0.5679820000000  0.4446480000000  0.5450610000000 1.0
C      1  0.5633330000000  0.5501320000000  0.4524900000000 1.0
C      1  0.4291200000000  0.4435130000000  0.5486420000000 1.0
C      1  0.4453100000000  0.5550810000000  0.4563520000000 1.0
C      1  0.5676830000000  0.4413510000000  0.4563480000000 1.0
C      1  0.5686080000000  0.5507760000000  0.5498090000000 1.0
C      1  0.4258970000000  0.4484900000000  0.4461390000000 1.0
C      1  0.4430540000000  0.5535180000000  0.5510180000000 1.0
C      1  0.4780810000000  0.5672000000000  0.5266630000000 1.0
C      1  0.4836290000000  0.4220800000000  0.4747170000000 1.0
C      1  0.5072590000000  0.5679590000000  0.5195310000000 1.0
C      1  0.5134710000000  0.4296800000000  0.4844120000000 1.0
C      1  0.4831470000000  0.5687490000000  0.4753720000000 1.0
C      1  0.4788980000000  0.4237300000000  0.5248420000000 1.0
C      1  0.5102530000000  0.5640580000000  0.4886700000000 1.0
C      1  0.5112190000000  0.4324200000000  0.5182420000000 1.0
C      1  0.4740040000000  0.5457570000000  0.4406240000000 1.0
C      1  0.4539360000000  0.4575200000000  0.5626510000000 1.0
C      1  0.5465970000000  0.5409780000000  0.4315440000000 1.0
C      1  0.5469000000000  0.4556940000000  0.5632640000000 1.0
C      1  0.4691890000000  0.5371370000000  0.5603820000000 1.0
C      1  0.4511670000000  0.4577130000000  0.4332870000000 1.0
C      1  0.5472130000000  0.5414560000000  0.5665440000000 1.0
C      1  0.5473050000000  0.4552040000000  0.4389920000000 1.0
C      1  0.4664630000000  0.5962220000000  0.5376720000000 1.0
C      1  0.4659150000000  0.4321420000000  0.4486020000000 1.0
C      1  0.5247840000000  0.5753460000000  0.5433020000000 1.0
C      1  0.5292390000000  0.4308010000000  0.4542980000000 1.0
C      1  0.4721670000000  0.5948370000000  0.4586750000000 1.0
C      1  0.4712530000000  0.4292370000000  0.5548160000000 1.0
C      1  0.5279780000000  0.5787570000000  0.4460370000000 1.0
C      1  0.5297780000000  0.4314070000000  0.5467320000000 1.0
C      1  0.5172810000000  0.5195360000000  0.5412580000000 1.0
C      1  0.5181420000000  0.4789050000000  0.4522950000000 1.0
C      1  0.4889180000000  0.5076430000000  0.5420920000000 1.0
C      1  0.4853910000000  0.4784020000000  0.4614140000000 1.0
C      1  0.5185320000000  0.5187560000000  0.4493560000000 1.0
C      1  0.5170190000000  0.4810070000000  0.5516530000000 1.0
C      1  0.4880810000000  0.5098360000000  0.4556120000000 1.0
C      1  0.4841390000000  0.4760730000000  0.5442840000000 1.0
C      1  0.5047660000000  0.5097390000000  0.4195930000000 1.0
C      1  0.5007770000000  0.4779850000000  0.5805030000000 1.0
C      1  0.5005420000000  0.4780350000000  0.4244860000000 1.0
C      1  0.4962210000000  0.5110600000000  0.5740610000000 1.0
C      1  0.4970890000000  0.4691550000000  0.5007100000000 1.0
C      1  0.4954020000000  0.5288390000000  0.5002900000000 1.0
C      1  0.4955740000000  0.4994520000000  0.5004670000000 1.0
END
