TITL C-2622953-3516-806 -0.00128515538297713 125000 -409.550715900748 0 0 81 (C1) n - 1
REM
REM in /nfs/bkarasulu/CARBON/AIRSS/Generating-Clusters/AIREBO/with-SteepDescent/Higher-Symm/SD-CG/HFTN-CG
REM
REM
REM
REM
REM
REM ./C.cell (b20cbc046b6831c77cfcea5457e17084)
REM
REM compiler GCC version 9.2.1 20190827 (Red Hat 9.2.1-1)
REM options -cpp -mtune=generic -march=x86-64 -g -O0 -fpre-include=/usr/include/finclude/math-vector-fortran.h
REM seed -602707808 -437358403 -1728401946 780047164 2114839417 -521316470 1862958712 -2041221579 2037180933 -35338677 578307176 528521255 -505264600 354507868 -515454064 2012950968 177002710 -205741980 1611423673 2042201490 -1894374683 1555864210 1986714102 98329747 717957709 -893828395 1991239945 1499355273 -431805917 955090157 -515852293 -1608199149 -355155880
REM
CELL 1.54180   50.00000   50.00000   50.00000   90.00000   90.00000   90.00000
LATT -1
SFAC C  
C      1  0.5402660000000  0.4352500000000  0.5215370000000 1.0
C      1  0.5416410000000  0.4307210000000  0.4910610000000 1.0
C      1  0.5250450000000  0.4353460000000  0.4669780000000 1.0
C      1  0.4974550000000  0.4351870000000  0.4582300000000 1.0
C      1  0.4711740000000  0.4353430000000  0.4700650000000 1.0
C      1  0.4586180000000  0.4342630000000  0.4958940000000 1.0
C      1  0.4654920000000  0.4348490000000  0.5238520000000 1.0
C      1  0.4885650000000  0.4350670000000  0.5413770000000 1.0
C      1  0.5181690000000  0.4350070000000  0.5409390000000 1.0
C      1  0.5176740000000  0.5097370000000  0.5375130000000 1.0
C      1  0.5440260000000  0.5087660000000  0.5160380000000 1.0
C      1  0.5408750000000  0.5113920000000  0.4860220000000 1.0
C      1  0.5213720000000  0.5218380000000  0.4651220000000 1.0
C      1  0.4964240000000  0.5131160000000  0.4487090000000 1.0
C      1  0.4682430000000  0.5117630000000  0.4642260000000 1.0
C      1  0.4540860000000  0.5105080000000  0.4932110000000 1.0
C      1  0.4599570000000  0.5108710000000  0.5251260000000 1.0
C      1  0.4854110000000  0.5105670000000  0.5444030000000 1.0
C      1  0.5532380000000  0.4939070000000  0.5453770000000 1.0
C      1  0.5842610000000  0.4966370000000  0.5066580000000 1.0
C      1  0.5597160000000  0.4950590000000  0.4622630000000 1.0
C      1  0.5185990000000  0.4949880000000  0.4303840000000 1.0
C      1  0.4637590000000  0.4960920000000  0.4343680000000 1.0
C      1  0.4327450000000  0.4954390000000  0.4714330000000 1.0
C      1  0.4298990000000  0.4955200000000  0.5209310000000 1.0
C      1  0.4604480000000  0.4951890000000  0.5616390000000 1.0
C      1  0.5133970000000  0.4948490000000  0.5678010000000 1.0
C      1  0.4507570000000  0.5275630000000  0.5532890000000 1.0
C      1  0.5007790000000  0.5278380000000  0.5685740000000 1.0
C      1  0.5438670000000  0.5259390000000  0.5519210000000 1.0
C      1  0.5712150000000  0.5257860000000  0.5076740000000 1.0
C      1  0.5645800000000  0.5281710000000  0.4683290000000 1.0
C      1  0.5301150000000  0.5272560000000  0.4326930000000 1.0
C      1  0.4745990000000  0.5300160000000  0.4297270000000 1.0
C      1  0.4387240000000  0.5283610000000  0.4611930000000 1.0
C      1  0.4286020000000  0.5277460000000  0.5076950000000 1.0
C      1  0.5338890000000  0.4687180000000  0.4998660000000 1.0
C      1  0.5330120000000  0.4755350000000  0.4701680000000 1.0
C      1  0.5061060000000  0.4739560000000  0.4540120000000 1.0
C      1  0.4744610000000  0.4730840000000  0.4572870000000 1.0
C      1  0.4545100000000  0.4719130000000  0.4832380000000 1.0
C      1  0.4543010000000  0.4723760000000  0.5158750000000 1.0
C      1  0.4744180000000  0.4724080000000  0.5404220000000 1.0
C      1  0.5047030000000  0.4724910000000  0.5436970000000 1.0
C      1  0.5314390000000  0.4732840000000  0.5292090000000 1.0
C      1  0.4432670000000  0.5498440000000  0.5172450000000 1.0
C      1  0.4705110000000  0.5479070000000  0.5463370000000 1.0
C      1  0.5123960000000  0.5498710000000  0.5576920000000 1.0
C      1  0.5476260000000  0.5494790000000  0.5387850000000 1.0
C      1  0.5662050000000  0.5525870000000  0.5035050000000 1.0
C      1  0.5477410000000  0.5514270000000  0.4649750000000 1.0
C      1  0.5116510000000  0.5499720000000  0.4486900000000 1.0
C      1  0.4686160000000  0.5518010000000  0.4462360000000 1.0
C      1  0.4428150000000  0.5507230000000  0.4773570000000 1.0
C      1  0.4611700000000  0.5775080000000  0.4669380000000 1.0
C      1  0.4481420000000  0.5773690000000  0.4977940000000 1.0
C      1  0.4617100000000  0.5759060000000  0.5289380000000 1.0
C      1  0.4941200000000  0.5708760000000  0.5379040000000 1.0
C      1  0.5270530000000  0.5762180000000  0.5438100000000 1.0
C      1  0.5522520000000  0.5778390000000  0.5218790000000 1.0
C      1  0.5422640000000  0.5729490000000  0.4905300000000 1.0
C      1  0.5268130000000  0.5779670000000  0.4610590000000 1.0
C      1  0.4931350000000  0.5732380000000  0.4613380000000 1.0
C      1  0.5788720000000  0.4796720000000  0.4838680000000 1.0
C      1  0.5480280000000  0.4800790000000  0.4335140000000 1.0
C      1  0.4892870000000  0.4803520000000  0.4183270000000 1.0
C      1  0.4371790000000  0.4768600000000  0.4433000000000 1.0
C      1  0.4166850000000  0.4774020000000  0.4953690000000 1.0
C      1  0.4332880000000  0.4780740000000  0.5504210000000 1.0
C      1  0.4850410000000  0.4806330000000  0.5800650000000 1.0
C      1  0.5429910000000  0.4787820000000  0.5740520000000 1.0
C      1  0.5808700000000  0.4819620000000  0.5314690000000 1.0
C      1  0.4798570000000  0.4516070000000  0.5667690000000 1.0
C      1  0.5254290000000  0.4550200000000  0.5642230000000 1.0
C      1  0.5615510000000  0.4575850000000  0.5308870000000 1.0
C      1  0.5617920000000  0.4571320000000  0.4909010000000 1.0
C      1  0.5416970000000  0.4520900000000  0.4471200000000 1.0
C      1  0.4952850000000  0.4512010000000  0.4311780000000 1.0
C      1  0.4511560000000  0.4492820000000  0.4504650000000 1.0
C      1  0.4311290000000  0.4492380000000  0.4930080000000 1.0
C      1  0.4417450000000  0.4498360000000  0.5380260000000 1.0
END
