TITL C-2622968-4806-820 -0.00119485800978873 125000 -795.048648293966 0 0 140 (C1) n - 1
REM
REM in /nfs/bkarasulu/CARBON/AIRSS/Generating-Clusters/AIREBO/with-SteepDescent/Higher-Symm/SD-CG/HFTN-CG
REM
REM
REM
REM
REM
REM ./C.cell (b20cbc046b6831c77cfcea5457e17084)
REM
REM compiler GCC version 9.2.1 20190827 (Red Hat 9.2.1-1)
REM options -cpp -mtune=generic -march=x86-64 -g -O0 -fpre-include=/usr/include/finclude/math-vector-fortran.h
REM seed 1916783721 -40697969 1200695437 -1878309977 -407312382 -144319321 1159918050 -888674541 -2132785405 1149301093 1809086827 902660999 249000069 948611508 757438438 -717693253 198057150 -330128336 1990296711 547892052 -1972578958 -1909918203 -1775753975 921835694 -1692790637 -1373341663 1608483795 -1800908888 792468319 2100882082 233123136 -1765798345 45366953
REM
CELL 1.54180   50.00000   50.00000   50.00000   90.00000   90.00000   90.00000
LATT -1
SFAC C  
C      1  0.4294880000000  0.5639870000000  0.5051140000000 1.0
C      1  0.4534320000000  0.5567670000000  0.4538780000000 1.0
C      1  0.5179130000000  0.5644270000000  0.4328580000000 1.0
C      1  0.5696490000000  0.5543070000000  0.4606910000000 1.0
C      1  0.5685580000000  0.5666900000000  0.5220190000000 1.0
C      1  0.5138170000000  0.5528610000000  0.5748060000000 1.0
C      1  0.4534570000000  0.5658780000000  0.5623710000000 1.0
C      1  0.4794630000000  0.4640770000000  0.5461270000000 1.0
C      1  0.4630000000000  0.4581270000000  0.5198760000000 1.0
C      1  0.4679770000000  0.4710000000000  0.4696950000000 1.0
C      1  0.4986110000000  0.4616070000000  0.4570140000000 1.0
C      1  0.5252690000000  0.4653490000000  0.4777960000000 1.0
C      1  0.5305610000000  0.4663930000000  0.5114130000000 1.0
C      1  0.5088210000000  0.4594990000000  0.5345010000000 1.0
C      1  0.5143340000000  0.6104320000000  0.5312360000000 1.0
C      1  0.4869690000000  0.6051040000000  0.5331090000000 1.0
C      1  0.4699790000000  0.6063880000000  0.5092140000000 1.0
C      1  0.4783410000000  0.6168980000000  0.4853690000000 1.0
C      1  0.4965720000000  0.5954210000000  0.4677360000000 1.0
C      1  0.5180620000000  0.6143300000000  0.4847500000000 1.0
C      1  0.5290720000000  0.6049970000000  0.5079180000000 1.0
C      1  0.5352020000000  0.5393200000000  0.4388390000000 1.0
C      1  0.5737680000000  0.5347280000000  0.4861940000000 1.0
C      1  0.5531040000000  0.5513350000000  0.5444580000000 1.0
C      1  0.4864360000000  0.5402670000000  0.5812440000000 1.0
C      1  0.4465520000000  0.5447830000000  0.5409920000000 1.0
C      1  0.4297570000000  0.5436070000000  0.4829260000000 1.0
C      1  0.4699820000000  0.5508140000000  0.4275210000000 1.0
C      1  0.4574290000000  0.4970090000000  0.4890410000000 1.0
C      1  0.4705270000000  0.5195820000000  0.4570870000000 1.0
C      1  0.5148880000000  0.4968100000000  0.4693890000000 1.0
C      1  0.5342280000000  0.5131140000000  0.4911740000000 1.0
C      1  0.5384390000000  0.5047490000000  0.5186280000000 1.0
C      1  0.4939920000000  0.5101860000000  0.5297710000000 1.0
C      1  0.4710790000000  0.4897280000000  0.5171630000000 1.0
C      1  0.5453360000000  0.4285370000000  0.5510380000000 1.0
C      1  0.4984540000000  0.4305920000000  0.5683320000000 1.0
C      1  0.4442530000000  0.4228400000000  0.5328840000000 1.0
C      1  0.4326860000000  0.4245770000000  0.4757360000000 1.0
C      1  0.4700720000000  0.4253690000000  0.4399190000000 1.0
C      1  0.5345130000000  0.4323320000000  0.4472710000000 1.0
C      1  0.5607670000000  0.4352160000000  0.4882480000000 1.0
C      1  0.4978150000000  0.5569040000000  0.4143890000000 1.0
C      1  0.5655070000000  0.5496510000000  0.4273160000000 1.0
C      1  0.5886490000000  0.5508140000000  0.5100010000000 1.0
C      1  0.5439340000000  0.5658640000000  0.5718960000000 1.0
C      1  0.4608340000000  0.5511370000000  0.5860290000000 1.0
C      1  0.4190200000000  0.5497390000000  0.5282300000000 1.0
C      1  0.4206680000000  0.5620720000000  0.4558550000000 1.0
C      1  0.4753620000000  0.4316940000000  0.5068650000000 1.0
C      1  0.4829940000000  0.4427140000000  0.4798150000000 1.0
C      1  0.5007750000000  0.4204280000000  0.4648970000000 1.0
C      1  0.5213070000000  0.4326850000000  0.4847590000000 1.0
C      1  0.5317660000000  0.4204410000000  0.5112550000000 1.0
C      1  0.5100860000000  0.4296290000000  0.5301080000000 1.0
C      1  0.4833070000000  0.4153140000000  0.5347920000000 1.0
C      1  0.5218800000000  0.5826630000000  0.4539140000000 1.0
C      1  0.5461970000000  0.5745850000000  0.4718330000000 1.0
C      1  0.5449400000000  0.5801010000000  0.5037880000000 1.0
C      1  0.4983750000000  0.5599560000000  0.5487410000000 1.0
C      1  0.4718170000000  0.5748570000000  0.5344670000000 1.0
C      1  0.4560040000000  0.5788670000000  0.5044100000000 1.0
C      1  0.4728950000000  0.5737540000000  0.4749170000000 1.0
C      1  0.4964830000000  0.5051590000000  0.4462330000000 1.0
C      1  0.5477810000000  0.4980310000000  0.4650150000000 1.0
C      1  0.5669980000000  0.5023050000000  0.5269420000000 1.0
C      1  0.5197430000000  0.4978440000000  0.5367880000000 1.0
C      1  0.4643600000000  0.5092710000000  0.5442550000000 1.0
C      1  0.4269970000000  0.4853790000000  0.4988030000000 1.0
C      1  0.4433740000000  0.5055050000000  0.4594790000000 1.0
C      1  0.5543370000000  0.5139670000000  0.4405730000000 1.0
C      1  0.5861870000000  0.5114990000000  0.5058070000000 1.0
C      1  0.5628860000000  0.5224210000000  0.5532800000000 1.0
C      1  0.4828800000000  0.5149960000000  0.5704020000000 1.0
C      1  0.4320010000000  0.5164610000000  0.5460550000000 1.0
C      1  0.4155880000000  0.5244290000000  0.4603010000000 1.0
C      1  0.4812600000000  0.5212890000000  0.4203520000000 1.0
C      1  0.5614080000000  0.4323050000000  0.4593380000000 1.0
C      1  0.5600570000000  0.4355820000000  0.5212040000000 1.0
C      1  0.5247130000000  0.4403290000000  0.5656500000000 1.0
C      1  0.4659170000000  0.4288300000000  0.5584640000000 1.0
C      1  0.4325300000000  0.4271840000000  0.5044940000000 1.0
C      1  0.4476020000000  0.4349900000000  0.4527780000000 1.0
C      1  0.5033540000000  0.4291900000000  0.4340110000000 1.0
C      1  0.3960720000000  0.5001320000000  0.4697800000000 1.0
C      1  0.4670170000000  0.4923820000000  0.4095090000000 1.0
C      1  0.5497460000000  0.4923850000000  0.4167250000000 1.0
C      1  0.5969630000000  0.4858560000000  0.4915910000000 1.0
C      1  0.5758070000000  0.4955920000000  0.5652730000000 1.0
C      1  0.4890350000000  0.4943080000000  0.5879530000000 1.0
C      1  0.4217690000000  0.4886050000000  0.5525830000000 1.0
C      1  0.4169740000000  0.4860960000000  0.4500130000000 1.0
C      1  0.4904530000000  0.4831370000000  0.4247050000000 1.0
C      1  0.5691500000000  0.4778630000000  0.4320970000000 1.0
C      1  0.5958150000000  0.4754470000000  0.5219900000000 1.0
C      1  0.5537760000000  0.4839600000000  0.5781220000000 1.0
C      1  0.4663580000000  0.4804100000000  0.5955850000000 1.0
C      1  0.4109690000000  0.4766600000000  0.5276080000000 1.0
C      1  0.3937550000000  0.5004980000000  0.5165810000000 1.0
C      1  0.4238670000000  0.5083320000000  0.4248000000000 1.0
C      1  0.5145190000000  0.5040270000000  0.3893310000000 1.0
C      1  0.5907290000000  0.4960700000000  0.4437470000000 1.0
C      1  0.6147780000000  0.5029960000000  0.5322880000000 1.0
C      1  0.5377740000000  0.5062710000000  0.5932720000000 1.0
C      1  0.4418480000000  0.5005240000000  0.5970710000000 1.0
C      1  0.5258490000000  0.4841930000000  0.4065700000000 1.0
C      1  0.5860620000000  0.4786560000000  0.4679940000000 1.0
C      1  0.5982920000000  0.4867110000000  0.5532180000000 1.0
C      1  0.5151600000000  0.4873180000000  0.5879760000000 1.0
C      1  0.4325090000000  0.4784830000000  0.5758000000000 1.0
C      1  0.3813770000000  0.4978130000000  0.4916060000000 1.0
C      1  0.4431610000000  0.4852740000000  0.4204160000000 1.0
C      1  0.5844950000000  0.5272550000000  0.4444620000000 1.0
C      1  0.6099150000000  0.5301100000000  0.5204220000000 1.0
C      1  0.5408030000000  0.5322020000000  0.5772130000000 1.0
C      1  0.4446150000000  0.5296410000000  0.5991680000000 1.0
C      1  0.4060510000000  0.5242530000000  0.5227740000000 1.0
C      1  0.4326970000000  0.5381900000000  0.4343320000000 1.0
C      1  0.5029040000000  0.5280370000000  0.3985620000000 1.0
C      1  0.4698200000000  0.5442520000000  0.5197140000000 1.0
C      1  0.4595130000000  0.5307980000000  0.4932580000000 1.0
C      1  0.4848610000000  0.5428260000000  0.4739930000000 1.0
C      1  0.5145070000000  0.5420640000000  0.4656990000000 1.0
C      1  0.5411000000000  0.5441420000000  0.4867850000000 1.0
C      1  0.5315660000000  0.5523110000000  0.5181170000000 1.0
C      1  0.5031910000000  0.5402950000000  0.5245210000000 1.0
C      1  0.4442100000000  0.4658130000000  0.4482770000000 1.0
C      1  0.5106260000000  0.4601120000000  0.4251800000000 1.0
C      1  0.5554550000000  0.4650330000000  0.4621390000000 1.0
C      1  0.5622050000000  0.4688540000000  0.5230520000000 1.0
C      1  0.5261460000000  0.4738360000000  0.5600150000000 1.0
C      1  0.4598270000000  0.4585150000000  0.5720220000000 1.0
C      1  0.4328810000000  0.4565030000000  0.5145210000000 1.0
C      1  0.5124410000000  0.3737670000000  0.4715560000000 1.0
C      1  0.5359870000000  0.3765780000000  0.4861430000000 1.0
C      1  0.5334910000000  0.3896660000000  0.5110500000000 1.0
C      1  0.5149800000000  0.3770630000000  0.5286010000000 1.0
C      1  0.4880840000000  0.3852750000000  0.5258590000000 1.0
C      1  0.4797190000000  0.3979800000000  0.4993830000000 1.0
C      1  0.4929300000000  0.3937600000000  0.4751310000000 1.0
END
