TITL C-2622966-9038-542 -0.000913651874790776 125000 -402.47477516828 0 0 74 (C1) n - 1
REM
REM in /nfs/bkarasulu/CARBON/AIRSS/Generating-Clusters/AIREBO/with-SteepDescent/Higher-Symm/SD-CG/HFTN-CG
REM
REM
REM
REM
REM
REM ./C.cell (b20cbc046b6831c77cfcea5457e17084)
REM
REM compiler GCC version 9.2.1 20190827 (Red Hat 9.2.1-1)
REM options -cpp -mtune=generic -march=x86-64 -g -O0 -fpre-include=/usr/include/finclude/math-vector-fortran.h
REM seed -401104225 2146021333 270969194 934202534 1505105790 234225531 409883437 -1305218287 -291554937 1780064071 138343356 501995528 1020036686 863105369 884314425 -1455529220 1703307489 -1641402658 -180776581 -381578770 1680056363 -799244262 1054387923 1046188454 -76681599 -1235432012 -1152776779 -2030293451 53936011 -1277527213 -884968363 -552683667 -2017357897
REM
CELL 1.54180   50.00000   50.00000   50.00000   90.00000   90.00000   90.00000
LATT -1
SFAC C  
C      1  0.4702420000000  0.4325970000000  0.5129480000000 1.0
C      1  0.4605730000000  0.4853170000000  0.5669840000000 1.0
C      1  0.4673230000000  0.5726130000000  0.5341740000000 1.0
C      1  0.4729570000000  0.5500990000000  0.4374320000000 1.0
C      1  0.4666010000000  0.4704360000000  0.4469240000000 1.0
C      1  0.5718490000000  0.5032990000000  0.4686970000000 1.0
C      1  0.5697730000000  0.4773300000000  0.4581430000000 1.0
C      1  0.5651090000000  0.4791070000000  0.5186930000000 1.0
C      1  0.5681940000000  0.4874090000000  0.5457920000000 1.0
C      1  0.5650390000000  0.5339660000000  0.5094460000000 1.0
C      1  0.4517400000000  0.4281310000000  0.5411230000000 1.0
C      1  0.4632750000000  0.5160730000000  0.5713300000000 1.0
C      1  0.4619980000000  0.5665150000000  0.5078400000000 1.0
C      1  0.4538200000000  0.5235940000000  0.4320030000000 1.0
C      1  0.4559080000000  0.4441570000000  0.4311860000000 1.0
C      1  0.5304600000000  0.4311640000000  0.5228130000000 1.0
C      1  0.5208270000000  0.5016440000000  0.5756390000000 1.0
C      1  0.5253230000000  0.5749230000000  0.5191780000000 1.0
C      1  0.5321780000000  0.5371770000000  0.4407590000000 1.0
C      1  0.5206440000000  0.4596360000000  0.4376770000000 1.0
C      1  0.5170970000000  0.5247580000000  0.4207870000000 1.0
C      1  0.5086120000000  0.4363680000000  0.4465920000000 1.0
C      1  0.5151130000000  0.4346590000000  0.5463720000000 1.0
C      1  0.5105540000000  0.5274430000000  0.5806660000000 1.0
C      1  0.5089910000000  0.5824670000000  0.4959510000000 1.0
C      1  0.5226880000000  0.4240500000000  0.4676440000000 1.0
C      1  0.5245040000000  0.4565580000000  0.5610780000000 1.0
C      1  0.5285560000000  0.5474060000000  0.5688760000000 1.0
C      1  0.5256550000000  0.5765440000000  0.4716630000000 1.0
C      1  0.5278060000000  0.4985070000000  0.4135720000000 1.0
C      1  0.4817980000000  0.4685650000000  0.5554180000000 1.0
C      1  0.4855280000000  0.5503420000000  0.5472450000000 1.0
C      1  0.4841490000000  0.5525430000000  0.4663360000000 1.0
C      1  0.4818400000000  0.4953690000000  0.4416110000000 1.0
C      1  0.4830000000000  0.4378850000000  0.4880820000000 1.0
C      1  0.4276900000000  0.4748330000000  0.5155060000000 1.0
C      1  0.4267900000000  0.5005960000000  0.5273760000000 1.0
C      1  0.4213750000000  0.5211390000000  0.5071480000000 1.0
C      1  0.4163300000000  0.5072120000000  0.4804210000000 1.0
C      1  0.4247000000000  0.4781400000000  0.4870610000000 1.0
C      1  0.5216830000000  0.5103130000000  0.4719140000000 1.0
C      1  0.5214980000000  0.4704520000000  0.4761600000000 1.0
C      1  0.5132040000000  0.4669900000000  0.5187520000000 1.0
C      1  0.5255910000000  0.5127190000000  0.5327170000000 1.0
C      1  0.5124710000000  0.5407360000000  0.5037500000000 1.0
C      1  0.4842030000000  0.5350820000000  0.5181310000000 1.0
C      1  0.4771830000000  0.5205160000000  0.4640210000000 1.0
C      1  0.4877760000000  0.4695280000000  0.4807090000000 1.0
C      1  0.4819180000000  0.4734700000000  0.5230680000000 1.0
C      1  0.4758340000000  0.5043830000000  0.5159480000000 1.0
C      1  0.4842090000000  0.4378630000000  0.5438320000000 1.0
C      1  0.4840870000000  0.5332620000000  0.5718810000000 1.0
C      1  0.4824550000000  0.5719640000000  0.4900210000000 1.0
C      1  0.4876840000000  0.5238900000000  0.4254850000000 1.0
C      1  0.4797240000000  0.4400750000000  0.4549870000000 1.0
C      1  0.5157570000000  0.4430390000000  0.4945490000000 1.0
C      1  0.5113450000000  0.4848800000000  0.5476150000000 1.0
C      1  0.5177740000000  0.5455610000000  0.5369950000000 1.0
C      1  0.5163880000000  0.5438630000000  0.4701190000000 1.0
C      1  0.5136640000000  0.4923310000000  0.4438760000000 1.0
C      1  0.4544780000000  0.4752930000000  0.4758170000000 1.0
C      1  0.4514870000000  0.4582880000000  0.5247610000000 1.0
C      1  0.4527680000000  0.5056070000000  0.5411010000000 1.0
C      1  0.4520890000000  0.5355880000000  0.5055990000000 1.0
C      1  0.4435200000000  0.5159850000000  0.4616490000000 1.0
C      1  0.5522540000000  0.5195590000000  0.4569850000000 1.0
C      1  0.5435510000000  0.4686660000000  0.4559850000000 1.0
C      1  0.5460900000000  0.4592940000000  0.5148440000000 1.0
C      1  0.5465290000000  0.5010820000000  0.5568470000000 1.0
C      1  0.5446710000000  0.5506740000000  0.5083400000000 1.0
C      1  0.4932240000000  0.5010770000000  0.4868940000000 1.0
C      1  0.5356400000000  0.5077040000000  0.5029250000000 1.0
C      1  0.4540460000000  0.5045270000000  0.4918860000000 1.0
C      1  0.5679940000000  0.5037010000000  0.4987210000000 1.0
END
