TITL C-2622954-8726-477 5.2152278443045 125000 -431.793676380765 0 0 83 (C1) n - 1
REM
REM in /nfs/bkarasulu/CARBON/AIRSS/Generating-Clusters/AIREBO/with-SteepDescent/Higher-Symm/SD-CG/HFTN-CG
REM
REM
REM
REM
REM
REM ./C.cell (b20cbc046b6831c77cfcea5457e17084)
REM
REM compiler GCC version 9.2.1 20190827 (Red Hat 9.2.1-1)
REM options -cpp -mtune=generic -march=x86-64 -g -O0 -fpre-include=/usr/include/finclude/math-vector-fortran.h
REM seed -1149275166 -119370768 1554651741 1125653401 -2014740932 -484075439 1419280958 1650504316 -702198570 -1412160737 -1240527302 -660755316 -406360911 2128467010 -565051493 2027441823 -1999778630 1638112358 -1543797320 -1524289719 1919441880 -570579281 -30427696 220942263 2043296400 1735343036 -1721219284 -297305192 -1022440567 609429028 226760458 -1998879660 2092358557
REM
CELL 1.54180   50.00000   50.00000   50.00000   90.00000   90.00000   90.00000
LATT -1
SFAC C  
C      1  0.5565760000000  0.4613430000000  0.4847210000000 1.0
C      1  0.5564110000000  0.4698300000000  0.5355750000000 1.0
C      1  0.5537530000000  0.5219760000000  0.5375280000000 1.0
C      1  0.5556360000000  0.5466630000000  0.4963590000000 1.0
C      1  0.5603510000000  0.5039740000000  0.4531790000000 1.0
C      1  0.4958680000000  0.5148720000000  0.5091840000000 1.0
C      1  0.4845910000000  0.5253630000000  0.4847100000000 1.0
C      1  0.4707690000000  0.4917810000000  0.4686160000000 1.0
C      1  0.4951590000000  0.4871140000000  0.4806090000000 1.0
C      1  0.4878560000000  0.4935400000000  0.5281820000000 1.0
C      1  0.5085380000000  0.4894340000000  0.5538030000000 1.0
C      1  0.5093890000000  0.5390910000000  0.5243810000000 1.0
C      1  0.5098920000000  0.5334960000000  0.4634850000000 1.0
C      1  0.5135200000000  0.4770540000000  0.4569130000000 1.0
C      1  0.5184950000000  0.4451770000000  0.5119870000000 1.0
C      1  0.4106860000000  0.4898670000000  0.5199240000000 1.0
C      1  0.4146270000000  0.5184220000000  0.5229880000000 1.0
C      1  0.4158700000000  0.5306440000000  0.4962470000000 1.0
C      1  0.4178420000000  0.5078070000000  0.4772050000000 1.0
C      1  0.4163740000000  0.4838180000000  0.4918410000000 1.0
C      1  0.4444890000000  0.4704930000000  0.4920070000000 1.0
C      1  0.4369630000000  0.4751480000000  0.5309390000000 1.0
C      1  0.4429300000000  0.5207500000000  0.5363860000000 1.0
C      1  0.4509480000000  0.5265280000000  0.4895240000000 1.0
C      1  0.4437990000000  0.5095560000000  0.4609420000000 1.0
C      1  0.4541270000000  0.4491210000000  0.5334230000000 1.0
C      1  0.4567890000000  0.5104040000000  0.5646980000000 1.0
C      1  0.4568500000000  0.5569230000000  0.5036130000000 1.0
C      1  0.4548870000000  0.5259300000000  0.4349400000000 1.0
C      1  0.4552680000000  0.4554160000000  0.4640860000000 1.0
C      1  0.5272610000000  0.4159400000000  0.4983200000000 1.0
C      1  0.5227020000000  0.4752980000000  0.5812940000000 1.0
C      1  0.5209010000000  0.5651010000000  0.5421470000000 1.0
C      1  0.5263840000000  0.5609180000000  0.4519720000000 1.0
C      1  0.5251400000000  0.4711550000000  0.4254990000000 1.0
C      1  0.4983440000000  0.4113050000000  0.5151360000000 1.0
C      1  0.5022880000000  0.4944290000000  0.5929100000000 1.0
C      1  0.4993020000000  0.5803340000000  0.5251430000000 1.0
C      1  0.4994780000000  0.5551230000000  0.4320030000000 1.0
C      1  0.4950990000000  0.4556970000000  0.4294050000000 1.0
C      1  0.5154860000000  0.5204870000000  0.5658200000000 1.0
C      1  0.5111670000000  0.5563730000000  0.4962350000000 1.0
C      1  0.5182010000000  0.5193900000000  0.4336770000000 1.0
C      1  0.5178470000000  0.4434760000000  0.4600500000000 1.0
C      1  0.5164860000000  0.4416450000000  0.5444730000000 1.0
C      1  0.5364540000000  0.4986610000000  0.4323060000000 1.0
C      1  0.5375000000000  0.4358800000000  0.4781310000000 1.0
C      1  0.5341970000000  0.4590410000000  0.5577500000000 1.0
C      1  0.5340410000000  0.5389650000000  0.5556850000000 1.0
C      1  0.5342120000000  0.5595040000000  0.4815560000000 1.0
C      1  0.5362090000000  0.4688260000000  0.5086320000000 1.0
C      1  0.5374320000000  0.4943490000000  0.5393150000000 1.0
C      1  0.5350610000000  0.5227900000000  0.5091490000000 1.0
C      1  0.5375050000000  0.5176970000000  0.4756140000000 1.0
C      1  0.5403530000000  0.4851810000000  0.4701280000000 1.0
C      1  0.4913360000000  0.4899730000000  0.4345900000000 1.0
C      1  0.4919250000000  0.4363190000000  0.4926920000000 1.0
C      1  0.4847900000000  0.4637490000000  0.5544830000000 1.0
C      1  0.4837780000000  0.5347000000000  0.5464250000000 1.0
C      1  0.4876990000000  0.5592620000000  0.4641560000000 1.0
C      1  0.4393110000000  0.4326420000000  0.4796710000000 1.0
C      1  0.4619850000000  0.4414230000000  0.5642600000000 1.0
C      1  0.4563700000000  0.5444000000000  0.5656210000000 1.0
C      1  0.4377820000000  0.5625340000000  0.4784990000000 1.0
C      1  0.4440480000000  0.4989630000000  0.4225590000000 1.0
C      1  0.4623370000000  0.4870430000000  0.5453970000000 1.0
C      1  0.4568170000000  0.5496150000000  0.5320500000000 1.0
C      1  0.4573810000000  0.5476980000000  0.4599220000000 1.0
C      1  0.4602490000000  0.4772000000000  0.4397550000000 1.0
C      1  0.4611540000000  0.4423500000000  0.5013970000000 1.0
C      1  0.5833290000000  0.5144340000000  0.5281000000000 1.0
C      1  0.5818190000000  0.5382090000000  0.5028890000000 1.0
C      1  0.5875090000000  0.4983810000000  0.4656800000000 1.0
C      1  0.5846590000000  0.4746760000000  0.4905740000000 1.0
C      1  0.5828910000000  0.4805640000000  0.5244880000000 1.0
C      1  0.4854430000000  0.4472270000000  0.4610060000000 1.0
C      1  0.4855880000000  0.4375940000000  0.5326470000000 1.0
C      1  0.4854070000000  0.5192400000000  0.5767150000000 1.0
C      1  0.4835650000000  0.5713380000000  0.4957800000000 1.0
C      1  0.4861320000000  0.5235970000000  0.4323840000000 1.0
C      1  0.5840170000000  0.5069570000000  0.4962080000000 1.0
C      1  0.4482090000000  0.4995970000000  0.5101420000000 1.0
C      1  0.5194660000000  0.4928350000000  0.5036940000000 1.0
END
