TITL C-2622963-3633-742 -0.0148059511918559 125000 -253.597597256341 0 0 48 (C1) n - 1
REM
REM in /nfs/bkarasulu/CARBON/AIRSS/Generating-Clusters/AIREBO/with-SteepDescent/Higher-Symm/SD-CG/HFTN-CG
REM
REM
REM
REM
REM
REM ./C.cell (b20cbc046b6831c77cfcea5457e17084)
REM
REM compiler GCC version 9.2.1 20190827 (Red Hat 9.2.1-1)
REM options -cpp -mtune=generic -march=x86-64 -g -O0 -fpre-include=/usr/include/finclude/math-vector-fortran.h
REM seed 431148673 62765359 -1443080533 396900248 -1562778336 -173976809 -628160337 -311347459 1490135243 -908091924 1724373237 1146295357 1351844034 686521041 1123154604 1948596950 -1986904249 1873409598 1450796913 -663842413 -1756135751 237266551 -928986995 1978013076 623478910 238331788 1972861684 -890664416 1595044649 -692142599 -1572570733 429771706 1885750051
REM
CELL 1.54180   50.00000   50.00000   50.00000   90.00000   90.00000   90.00000
LATT -1
SFAC C  
C      1  0.4966950000000  0.5546380000000  0.5416910000000 1.0
C      1  0.5912040000000  0.4955920000000  0.5037720000000 1.0
C      1  0.5223440000000  0.5446560000000  0.5268530000000 1.0
C      1  0.5584790000000  0.5315100000000  0.4571760000000 1.0
C      1  0.5346360000000  0.4801220000000  0.4861610000000 1.0
C      1  0.5353560000000  0.4942400000000  0.5391640000000 1.0
C      1  0.4798970000000  0.5692660000000  0.5223450000000 1.0
C      1  0.4654400000000  0.5025600000000  0.5882470000000 1.0
C      1  0.4622710000000  0.4987490000000  0.6139820000000 1.0
C      1  0.5157950000000  0.5594180000000  0.4748800000000 1.0
C      1  0.5041610000000  0.5711060000000  0.5637120000000 1.0
C      1  0.4741720000000  0.5719990000000  0.4911090000000 1.0
C      1  0.5692270000000  0.5578840000000  0.4702140000000 1.0
C      1  0.5599960000000  0.4782200000000  0.4553240000000 1.0
C      1  0.4818810000000  0.5292470000000  0.5515580000000 1.0
C      1  0.3231400000000  0.5147850000000  0.5219560000000 1.0
C      1  0.5411020000000  0.5444400000000  0.4825750000000 1.0
C      1  0.4666030000000  0.5082290000000  0.5611400000000 1.0
C      1  0.4782760000000  0.4186650000000  0.4809950000000 1.0
C      1  0.4897740000000  0.5670050000000  0.4692280000000 1.0
C      1  0.5219280000000  0.4946500000000  0.4599200000000 1.0
C      1  0.4263160000000  0.4959060000000  0.5368520000000 1.0
C      1  0.5648620000000  0.4887310000000  0.4995330000000 1.0
C      1  0.5441830000000  0.5055290000000  0.5155340000000 1.0
C      1  0.5376510000000  0.5312980000000  0.5092630000000 1.0
C      1  0.4824080000000  0.4540310000000  0.5167710000000 1.0
C      1  0.4970370000000  0.4822990000000  0.4727900000000 1.0
C      1  0.4529820000000  0.4911270000000  0.5426710000000 1.0
C      1  0.4531360000000  0.5842840000000  0.5123500000000 1.0
C      1  0.4669260000000  0.4704800000000  0.5304730000000 1.0
C      1  0.4805250000000  0.5684570000000  0.4439710000000 1.0
C      1  0.4619030000000  0.4040800000000  0.4679470000000 1.0
C      1  0.5126560000000  0.4551830000000  0.4789290000000 1.0
C      1  0.4980400000000  0.4363250000000  0.4966230000000 1.0
C      1  0.5295690000000  0.4840070000000  0.4301700000000 1.0
C      1  0.5367830000000  0.4726710000000  0.4014980000000 1.0
C      1  0.5347450000000  0.4027920000000  0.5230440000000 1.0
C      1  0.5193480000000  0.4253550000000  0.4180620000000 1.0
C      1  0.5610740000000  0.4591420000000  0.4832160000000 1.0
C      1  0.4000930000000  0.4988760000000  0.5332560000000 1.0
C      1  0.5285680000000  0.4499750000000  0.4254490000000 1.0
C      1  0.5490830000000  0.5072100000000  0.4460030000000 1.0
C      1  0.3744310000000  0.5040570000000  0.5283420000000 1.0
C      1  0.3482750000000  0.5084830000000  0.5259020000000 1.0
C      1  0.5871920000000  0.5774380000000  0.4711400000000 1.0
C      1  0.5370650000000  0.4543400000000  0.4557780000000 1.0
C      1  0.5250430000000  0.4825120000000  0.5602090000000 1.0
C      1  0.5177260000000  0.4184330000000  0.5122250000000 1.0
END
