TITL C-2622955-8511-285 -0.00179548615143311 125000 -533.768334872923 0 0 92 (C1) n - 1
REM
REM in /nfs/bkarasulu/CARBON/AIRSS/Generating-Clusters/AIREBO/with-SteepDescent/Higher-Symm/SD-CG/HFTN-CG
REM
REM
REM
REM
REM
REM ./C.cell (b20cbc046b6831c77cfcea5457e17084)
REM
REM compiler GCC version 9.2.1 20190827 (Red Hat 9.2.1-1)
REM options -cpp -mtune=generic -march=x86-64 -g -O0 -fpre-include=/usr/include/finclude/math-vector-fortran.h
REM seed -536680362 1440121834 416653086 -1120327824 434510354 1617219291 -1729488388 69370319 -2129605319 118149052 774267134 1468899750 803172116 -1044528357 625408420 3953668 -202020699 -717848364 -247832814 917777994 -1115604506 -765223972 -2171554 28062718 -765229585 216202753 -205028663 731152156 139872377 380298209 -1297140908 1861546273 2074609596
REM
CELL 1.54180   50.00000   50.00000   50.00000   90.00000   90.00000   90.00000
LATT -1
SFAC C  
C      1  0.4385480000000  0.5053710000000  0.5856870000000 1.0
C      1  0.5914100000000  0.4641060000000  0.5136490000000 1.0
C      1  0.5060020000000  0.5807130000000  0.4634650000000 1.0
C      1  0.5440460000000  0.5094880000000  0.4288400000000 1.0
C      1  0.4543570000000  0.4873890000000  0.4294530000000 1.0
C      1  0.5419520000000  0.4854990000000  0.5709810000000 1.0
C      1  0.4250580000000  0.4557490000000  0.4860250000000 1.0
C      1  0.5759590000000  0.5415190000000  0.4838820000000 1.0
C      1  0.4265230000000  0.5508560000000  0.5082660000000 1.0
C      1  0.4881150000000  0.5708910000000  0.5405980000000 1.0
C      1  0.5126460000000  0.4303900000000  0.5413080000000 1.0
C      1  0.4839090000000  0.4308060000000  0.4631830000000 1.0
C      1  0.4576110000000  0.4867740000000  0.5714260000000 1.0
C      1  0.5789050000000  0.5378260000000  0.5145710000000 1.0
C      1  0.5108390000000  0.4324370000000  0.4658910000000 1.0
C      1  0.5490710000000  0.4804350000000  0.4291780000000 1.0
C      1  0.4459600000000  0.5126190000000  0.4220470000000 1.0
C      1  0.5441070000000  0.5132830000000  0.5830140000000 1.0
C      1  0.4344940000000  0.5488280000000  0.4815340000000 1.0
C      1  0.5801210000000  0.4589740000000  0.4848780000000 1.0
C      1  0.4256540000000  0.4527310000000  0.5143980000000 1.0
C      1  0.4833320000000  0.4292420000000  0.5457940000000 1.0
C      1  0.5175680000000  0.5804370000000  0.5463180000000 1.0
C      1  0.4817960000000  0.5934640000000  0.4712090000000 1.0
C      1  0.4727710000000  0.4498250000000  0.5619920000000 1.0
C      1  0.5646490000000  0.4702470000000  0.4500580000000 1.0
C      1  0.4563180000000  0.5628250000000  0.4706530000000 1.0
C      1  0.5284190000000  0.4414230000000  0.4459840000000 1.0
C      1  0.4901170000000  0.5404200000000  0.4420620000000 1.0
C      1  0.5167290000000  0.5476740000000  0.5551950000000 1.0
C      1  0.4414200000000  0.4831240000000  0.5417370000000 1.0
C      1  0.5574850000000  0.5176960000000  0.5534130000000 1.0
C      1  0.4436880000000  0.5305810000000  0.4431090000000 1.0
C      1  0.5510010000000  0.5565480000000  0.5112500000000 1.0
C      1  0.4428440000000  0.4365270000000  0.5299450000000 1.0
C      1  0.5524680000000  0.4406150000000  0.4905170000000 1.0
C      1  0.4833020000000  0.5418250000000  0.5574740000000 1.0
C      1  0.5566630000000  0.5285640000000  0.4439320000000 1.0
C      1  0.4389500000000  0.4354020000000  0.4722590000000 1.0
C      1  0.5130920000000  0.5569730000000  0.4468570000000 1.0
C      1  0.4727590000000  0.4464680000000  0.4421370000000 1.0
C      1  0.5308510000000  0.4456280000000  0.5550680000000 1.0
C      1  0.4359300000000  0.5147600000000  0.5531110000000 1.0
C      1  0.5622010000000  0.4854300000000  0.5435740000000 1.0
C      1  0.4370780000000  0.4740140000000  0.4469480000000 1.0
C      1  0.5678520000000  0.4437550000000  0.5193440000000 1.0
C      1  0.4471400000000  0.5591080000000  0.5275350000000 1.0
C      1  0.5532390000000  0.5637960000000  0.4779550000000 1.0
C      1  0.4638290000000  0.4252190000000  0.4834310000000 1.0
C      1  0.4852980000000  0.4769880000000  0.4337800000000 1.0
C      1  0.4334060000000  0.4868160000000  0.4778350000000 1.0
C      1  0.5020950000000  0.4436630000000  0.5139980000000 1.0
C      1  0.4708050000000  0.5719580000000  0.5189950000000 1.0
C      1  0.5209600000000  0.5627880000000  0.4856100000000 1.0
C      1  0.5210330000000  0.4668170000000  0.5712480000000 1.0
C      1  0.4865460000000  0.5080360000000  0.5550730000000 1.0
C      1  0.5168360000000  0.4996690000000  0.4422670000000 1.0
C      1  0.5664970000000  0.4869500000000  0.5098600000000 1.0
C      1  0.4282810000000  0.5236160000000  0.5230030000000 1.0
C      1  0.5737830000000  0.5201800000000  0.4656490000000 1.0
C      1  0.4806590000000  0.5653500000000  0.4903010000000 1.0
C      1  0.4855890000000  0.5082240000000  0.4473040000000 1.0
C      1  0.4365520000000  0.5177120000000  0.4722950000000 1.0
C      1  0.5197060000000  0.5615470000000  0.5181260000000 1.0
C      1  0.4712840000000  0.4297720000000  0.5132960000000 1.0
C      1  0.5210800000000  0.4477470000000  0.4899150000000 1.0
C      1  0.5185130000000  0.5164910000000  0.5618760000000 1.0
C      1  0.4902410000000  0.4774150000000  0.5694620000000 1.0
C      1  0.5177630000000  0.4673390000000  0.4307330000000 1.0
C      1  0.5564370000000  0.5171480000000  0.5087190000000 1.0
C      1  0.4454480000000  0.4811720000000  0.5091300000000 1.0
C      1  0.5738140000000  0.4901280000000  0.4760070000000 1.0
C      1  0.4526320000000  0.5198630000000  0.5022070000000 1.0
C      1  0.5339420000000  0.4814390000000  0.5109530000000 1.0
C      1  0.4985950000000  0.5374360000000  0.4818810000000 1.0
C      1  0.5010060000000  0.4750430000000  0.5164820000000 1.0
C      1  0.5298840000000  0.5195300000000  0.4990240000000 1.0
C      1  0.5089850000000  0.5309310000000  0.5198200000000 1.0
C      1  0.5176750000000  0.5005800000000  0.5318340000000 1.0
C      1  0.4758800000000  0.4878730000000  0.5032420000000 1.0
C      1  0.5203590000000  0.4792990000000  0.4820720000000 1.0
C      1  0.4763090000000  0.5118710000000  0.4791430000000 1.0
C      1  0.5155060000000  0.5090170000000  0.4734750000000 1.0
C      1  0.4801150000000  0.5149420000000  0.5223660000000 1.0
C      1  0.4471960000000  0.4535130000000  0.5523770000000 1.0
C      1  0.5540670000000  0.4455240000000  0.4578320000000 1.0
C      1  0.4634270000000  0.5511220000000  0.4457000000000 1.0
C      1  0.5462950000000  0.5413910000000  0.5413720000000 1.0
C      1  0.4527120000000  0.5415740000000  0.5488600000000 1.0
C      1  0.5410850000000  0.5514720000000  0.4504310000000 1.0
C      1  0.5541120000000  0.4534510000000  0.5415270000000 1.0
C      1  0.4445440000000  0.4469540000000  0.4466720000000 1.0
END
