TITL C-2622967-6265-737 -0.00251004293941531 125000 -908.501864751446 0 0 183 (C1) n - 1
REM
REM in /nfs/bkarasulu/CARBON/AIRSS/Generating-Clusters/AIREBO/with-SteepDescent/Higher-Symm/SD-CG/HFTN-CG
REM
REM
REM
REM
REM
REM ./C.cell (b20cbc046b6831c77cfcea5457e17084)
REM
REM compiler GCC version 9.2.1 20190827 (Red Hat 9.2.1-1)
REM options -cpp -mtune=generic -march=x86-64 -g -O0 -fpre-include=/usr/include/finclude/math-vector-fortran.h
REM seed -1726670639 -1311799663 -2050631595 1956910280 1081840840 320670822 -1564912165 -1470369902 2085904063 -2058408147 -1203210449 284098713 -924543409 1317840196 1248738389 -1471201078 -193104197 -338595022 304846319 -1330939218 193573319 -2062420432 1339355374 620369975 -2007396231 2144153043 -14709527 -1342260726 2073296628 1539854936 -453774208 1610993321 -1883237531
REM
CELL 1.54180   50.00000   50.00000   50.00000   90.00000   90.00000   90.00000
LATT -1
SFAC C  
C      1  0.4214500000000  0.4587670000000  0.4500300000000 1.0
C      1  0.4426360000000  0.5576720000000  0.4501100000000 1.0
C      1  0.5437210000000  0.5795190000000  0.4563580000000 1.0
C      1  0.5816970000000  0.4905450000000  0.4476730000000 1.0
C      1  0.5171500000000  0.4137650000000  0.4491210000000 1.0
C      1  0.4292450000000  0.5433060000000  0.5473280000000 1.0
C      1  0.4405930000000  0.4380060000000  0.5443330000000 1.0
C      1  0.5303510000000  0.4274670000000  0.5442390000000 1.0
C      1  0.5897000000000  0.5188660000000  0.5486600000000 1.0
C      1  0.5159480000000  0.5816070000000  0.5480210000000 1.0
C      1  0.4992470000000  0.4424720000000  0.5989450000000 1.0
C      1  0.4358070000000  0.4897130000000  0.6044960000000 1.0
C      1  0.4686360000000  0.5490770000000  0.5939230000000 1.0
C      1  0.5405560000000  0.5388510000000  0.6061620000000 1.0
C      1  0.5499180000000  0.4774510000000  0.6041950000000 1.0
C      1  0.4922890000000  0.5580340000000  0.3982620000000 1.0
C      1  0.4478590000000  0.5209210000000  0.4002340000000 1.0
C      1  0.4588630000000  0.4506590000000  0.3980050000000 1.0
C      1  0.5347810000000  0.4543930000000  0.4100140000000 1.0
C      1  0.5608230000000  0.5186120000000  0.4059420000000 1.0
C      1  0.4751020000000  0.4230100000000  0.4001760000000 1.0
C      1  0.4289220000000  0.4643500000000  0.3893840000000 1.0
C      1  0.4630130000000  0.5658370000000  0.3937050000000 1.0
C      1  0.5272400000000  0.5471110000000  0.4007250000000 1.0
C      1  0.5485810000000  0.4813470000000  0.3992770000000 1.0
C      1  0.4864910000000  0.5696750000000  0.5915560000000 1.0
C      1  0.4210630000000  0.5149750000000  0.6039050000000 1.0
C      1  0.4605520000000  0.4588640000000  0.6027660000000 1.0
C      1  0.5541860000000  0.4535030000000  0.5912140000000 1.0
C      1  0.5655910000000  0.5267780000000  0.6069190000000 1.0
C      1  0.4072360000000  0.5491150000000  0.5147090000000 1.0
C      1  0.5151280000000  0.6067640000000  0.5170070000000 1.0
C      1  0.6173140000000  0.5160560000000  0.5073340000000 1.0
C      1  0.5500690000000  0.4075280000000  0.5159000000000 1.0
C      1  0.4270410000000  0.4197670000000  0.5115790000000 1.0
C      1  0.4071740000000  0.4433370000000  0.4862120000000 1.0
C      1  0.5240820000000  0.3888070000000  0.4901680000000 1.0
C      1  0.6029880000000  0.4818700000000  0.4802670000000 1.0
C      1  0.5452050000000  0.6031400000000  0.4898310000000 1.0
C      1  0.4256670000000  0.5761530000000  0.4917270000000 1.0
C      1  0.5792650000000  0.5132800000000  0.4224930000000 1.0
C      1  0.5300590000000  0.4304240000000  0.4217670000000 1.0
C      1  0.4435780000000  0.4404710000000  0.4266200000000 1.0
C      1  0.4339640000000  0.5331600000000  0.4242310000000 1.0
C      1  0.5062280000000  0.5734670000000  0.4212490000000 1.0
C      1  0.5700000000000  0.4959420000000  0.6045210000000 1.0
C      1  0.5370860000000  0.5574440000000  0.5833660000000 1.0
C      1  0.4470870000000  0.5474650000000  0.5760060000000 1.0
C      1  0.4304150000000  0.4729360000000  0.5807080000000 1.0
C      1  0.5091710000000  0.4339050000000  0.5738770000000 1.0
C      1  0.5232350000000  0.4933360000000  0.5213790000000 1.0
C      1  0.4856770000000  0.4825400000000  0.5290560000000 1.0
C      1  0.4581200000000  0.5107380000000  0.5332760000000 1.0
C      1  0.5093100000000  0.5341680000000  0.5335810000000 1.0
C      1  0.5380840000000  0.5162260000000  0.5360940000000 1.0
C      1  0.5088560000000  0.5181830000000  0.4786580000000 1.0
C      1  0.4810340000000  0.5314120000000  0.4632480000000 1.0
C      1  0.4618860000000  0.4822200000000  0.4573460000000 1.0
C      1  0.4923270000000  0.4672860000000  0.4562790000000 1.0
C      1  0.5067210000000  0.4842540000000  0.4794070000000 1.0
C      1  0.4760590000000  0.6000240000000  0.4821040000000 1.0
C      1  0.5895230000000  0.5510470000000  0.4871760000000 1.0
C      1  0.5769290000000  0.4367050000000  0.4821620000000 1.0
C      1  0.4622040000000  0.4028200000000  0.4796040000000 1.0
C      1  0.4105770000000  0.5087890000000  0.4868500000000 1.0
C      1  0.4780070000000  0.4035300000000  0.5097060000000 1.0
C      1  0.5798960000000  0.4516670000000  0.5125820000000 1.0
C      1  0.5730920000000  0.5663330000000  0.5117120000000 1.0
C      1  0.4664320000000  0.5936400000000  0.5141060000000 1.0
C      1  0.4101640000000  0.4897100000000  0.5131230000000 1.0
C      1  0.4329070000000  0.4709750000000  0.4204210000000 1.0
C      1  0.4602150000000  0.5524940000000  0.4214560000000 1.0
C      1  0.5351810000000  0.5617180000000  0.4297930000000 1.0
C      1  0.5532440000000  0.4829980000000  0.4306530000000 1.0
C      1  0.4978160000000  0.4229670000000  0.4226930000000 1.0
C      1  0.4368850000000  0.5205080000000  0.5791760000000 1.0
C      1  0.4522020000000  0.4506700000000  0.5713060000000 1.0
C      1  0.5346890000000  0.4518740000000  0.5675290000000 1.0
C      1  0.5736350000000  0.5128420000000  0.5763470000000 1.0
C      1  0.5086620000000  0.5595260000000  0.5728330000000 1.0
C      1  0.4675660000000  0.5770620000000  0.4629520000000 1.0
C      1  0.5658210000000  0.5561130000000  0.4670830000000 1.0
C      1  0.5733660000000  0.4602850000000  0.4607830000000 1.0
C      1  0.4851350000000  0.4130220000000  0.4605840000000 1.0
C      1  0.4223360000000  0.4896190000000  0.4643940000000 1.0
C      1  0.4668020000000  0.4270420000000  0.5279140000000 1.0
C      1  0.5580060000000  0.4446950000000  0.5344460000000 1.0
C      1  0.5771880000000  0.5485640000000  0.5375550000000 1.0
C      1  0.4862160000000  0.5786170000000  0.5340390000000 1.0
C      1  0.4183520000000  0.5124500000000  0.5372020000000 1.0
C      1  0.5431390000000  0.4535710000000  0.4565620000000 1.0
C      1  0.4647190000000  0.4340920000000  0.4490040000000 1.0
C      1  0.4353990000000  0.5114140000000  0.4460350000000 1.0
C      1  0.4954400000000  0.5683150000000  0.4518810000000 1.0
C      1  0.5547380000000  0.5279560000000  0.4601230000000 1.0
C      1  0.5528550000000  0.5514460000000  0.5564420000000 1.0
C      1  0.4752970000000  0.5495090000000  0.5478210000000 1.0
C      1  0.4315320000000  0.4867560000000  0.5510970000000 1.0
C      1  0.4890630000000  0.4376530000000  0.5505580000000 1.0
C      1  0.5528930000000  0.4767050000000  0.5420560000000 1.0
C      1  0.5408160000000  0.5723330000000  0.5023930000000 1.0
C      1  0.5762670000000  0.4824680000000  0.5013610000000 1.0
C      1  0.5059730000000  0.4158490000000  0.4952000000000 1.0
C      1  0.4292960000000  0.4670320000000  0.4964730000000 1.0
C      1  0.4533780000000  0.5668810000000  0.5020660000000 1.0
C      1  0.5499310000000  0.4276170000000  0.4977310000000 1.0
C      1  0.5839760000000  0.5212860000000  0.5031690000000 1.0
C      1  0.5029980000000  0.5926000000000  0.4980050000000 1.0
C      1  0.4319110000000  0.5327000000000  0.4982150000000 1.0
C      1  0.4454630000000  0.4270210000000  0.4931120000000 1.0
C      1  0.4597020000000  0.4994640000000  0.5652890000000 1.0
C      1  0.4971870000000  0.5288290000000  0.5636430000000 1.0
C      1  0.5440050000000  0.5217220000000  0.5669020000000 1.0
C      1  0.5247170000000  0.4830450000000  0.5600160000000 1.0
C      1  0.4827300000000  0.4647960000000  0.5702120000000 1.0
C      1  0.4536690000000  0.4920730000000  0.4280630000000 1.0
C      1  0.4840290000000  0.4517380000000  0.4289000000000 1.0
C      1  0.5222780000000  0.4769460000000  0.4433290000000 1.0
C      1  0.5360490000000  0.5292490000000  0.4352740000000 1.0
C      1  0.4872350000000  0.5408400000000  0.4340060000000 1.0
C      1  0.5475530000000  0.5342690000000  0.5109720000000 1.0
C      1  0.5393560000000  0.4711080000000  0.5114680000000 1.0
C      1  0.4818020000000  0.4546000000000  0.5151580000000 1.0
C      1  0.4588510000000  0.4897480000000  0.5099940000000 1.0
C      1  0.4862120000000  0.5432060000000  0.5151570000000 1.0
C      1  0.5280840000000  0.4654580000000  0.4853310000000 1.0
C      1  0.5379290000000  0.5257110000000  0.4859770000000 1.0
C      1  0.4957850000000  0.5477170000000  0.4884640000000 1.0
C      1  0.4529430000000  0.4992370000000  0.4823420000000 1.0
C      1  0.4780300000000  0.4572270000000  0.4854560000000 1.0
C      1  0.6084110000000  0.4975710000000  0.5298820000000 1.0
C      1  0.5281920000000  0.3954750000000  0.5329200000000 1.0
C      1  0.4105970000000  0.4383370000000  0.5283070000000 1.0
C      1  0.4187110000000  0.5711370000000  0.5308640000000 1.0
C      1  0.5395800000000  0.6005550000000  0.5325510000000 1.0
C      1  0.6082950000000  0.5053800000000  0.4628180000000 1.0
C      1  0.5274480000000  0.6078300000000  0.4658930000000 1.0
C      1  0.4167700000000  0.5613520000000  0.4690060000000 1.0
C      1  0.4171350000000  0.4272790000000  0.4621420000000 1.0
C      1  0.5410110000000  0.3970290000000  0.4666510000000 1.0
C      1  0.4806130000000  0.4741000000000  0.4046020000000 1.0
C      1  0.4740190000000  0.5056510000000  0.4047300000000 1.0
C      1  0.5010360000000  0.5262220000000  0.4065790000000 1.0
C      1  0.5290460000000  0.5072570000000  0.4102760000000 1.0
C      1  0.5108760000000  0.4785290000000  0.4114320000000 1.0
C      1  0.4849840000000  0.5214460000000  0.5963520000000 1.0
C      1  0.4689450000000  0.4913310000000  0.5969960000000 1.0
C      1  0.4975870000000  0.4731870000000  0.5996280000000 1.0
C      1  0.5230230000000  0.4880520000000  0.5936040000000 1.0
C      1  0.5181540000000  0.5199510000000  0.5889240000000 1.0
C      1  0.5055880000000  0.4333960000000  0.5217080000000 1.0
C      1  0.4401440000000  0.4679030000000  0.5281360000000 1.0
C      1  0.4533280000000  0.5405220000000  0.5234560000000 1.0
C      1  0.5321880000000  0.5567790000000  0.5313800000000 1.0
C      1  0.5682840000000  0.5032240000000  0.5273400000000 1.0
C      1  0.5182180000000  0.5705710000000  0.4770430000000 1.0
C      1  0.4497230000000  0.5304880000000  0.4693210000000 1.0
C      1  0.4474030000000  0.4530520000000  0.4713040000000 1.0
C      1  0.5242470000000  0.4331840000000  0.4761510000000 1.0
C      1  0.5707080000000  0.5049500000000  0.4764570000000 1.0
C      1  0.5636300000000  0.4205590000000  0.5562940000000 1.0
C      1  0.4317450000000  0.4095520000000  0.5589600000000 1.0
C      1  0.4019390000000  0.5444250000000  0.5645100000000 1.0
C      1  0.5113490000000  0.6061920000000  0.5670720000000 1.0
C      1  0.6156470000000  0.5296910000000  0.5618430000000 1.0
C      1  0.5657690000000  0.5974280000000  0.4433340000000 1.0
C      1  0.4299300000000  0.5823450000000  0.4325290000000 1.0
C      1  0.3912400000000  0.4601010000000  0.4417980000000 1.0
C      1  0.5156210000000  0.3843180000000  0.4338020000000 1.0
C      1  0.6030640000000  0.4733450000000  0.4297660000000 1.0
C      1  0.4014120000000  0.5386270000000  0.4733470000000 1.0
C      1  0.5013180000000  0.6164580000000  0.4662860000000 1.0
C      1  0.6137530000000  0.5289200000000  0.4782350000000 1.0
C      1  0.5670040000000  0.4072730000000  0.4681960000000 1.0
C      1  0.4321450000000  0.4039330000000  0.4636860000000 1.0
C      1  0.3948500000000  0.4592250000000  0.5136410000000 1.0
C      1  0.5049350000000  0.3837350000000  0.5178270000000 1.0
C      1  0.6044060000000  0.4705560000000  0.5267470000000 1.0
C      1  0.5652280000000  0.5991820000000  0.5170330000000 1.0
C      1  0.4324200000000  0.5951780000000  0.5191090000000 1.0
C      1  0.5171220000000  0.5083840000000  0.4484330000000 1.0
C      1  0.4929400000000  0.4953340000000  0.5592330000000 1.0
C      1  0.4971230000000  0.5000570000000  0.5053890000000 1.0
END
