TITL C-2622954-8726-743 5.64480597123441e-05 125000 -501.290442043371 0 0 101 (C1) n - 1
REM
REM in /nfs/bkarasulu/CARBON/AIRSS/Generating-Clusters/AIREBO/with-SteepDescent/Higher-Symm/SD-CG/HFTN-CG
REM
REM
REM
REM
REM
REM ./C.cell (b20cbc046b6831c77cfcea5457e17084)
REM
REM compiler GCC version 9.2.1 20190827 (Red Hat 9.2.1-1)
REM options -cpp -mtune=generic -march=x86-64 -g -O0 -fpre-include=/usr/include/finclude/math-vector-fortran.h
REM seed -2060831406 341994607 -1031388195 636049614 -1321683214 866193513 -98586347 -361106385 -124377136 1946218381 1160463495 1626312773 -1505518945 517362787 1595159094 -207543680 -806120244 1922238197 -1194982589 913738866 -1996108077 -453638654 -192530334 464871044 -1692966081 -248301836 -835891039 1841001694 313653262 -1377190571 1809187334 -635547324 1049969643
REM
CELL 1.54180   50.00000   50.00000   50.00000   90.00000   90.00000   90.00000
LATT -1
SFAC C  
C      1  0.4430050000000  0.5369270000000  0.5731700000000 1.0
C      1  0.5508100000000  0.5331590000000  0.5685040000000 1.0
C      1  0.5819960000000  0.5334790000000  0.4747560000000 1.0
C      1  0.4974910000000  0.5310190000000  0.4071330000000 1.0
C      1  0.4195410000000  0.5338960000000  0.4782090000000 1.0
C      1  0.4466330000000  0.4652200000000  0.4228430000000 1.0
C      1  0.5541700000000  0.4618150000000  0.4258610000000 1.0
C      1  0.5875490000000  0.4655670000000  0.5269650000000 1.0
C      1  0.5002280000000  0.4668310000000  0.5901660000000 1.0
C      1  0.4182540000000  0.4626960000000  0.5223030000000 1.0
C      1  0.5398540000000  0.4933520000000  0.4257710000000 1.0
C      1  0.4454960000000  0.4950880000000  0.4396350000000 1.0
C      1  0.4296810000000  0.4937640000000  0.5313360000000 1.0
C      1  0.5068440000000  0.4989180000000  0.5789810000000 1.0
C      1  0.5787270000000  0.4973490000000  0.5171600000000 1.0
C      1  0.5370690000000  0.5019850000000  0.5692020000000 1.0
C      1  0.4429910000000  0.5061250000000  0.5577920000000 1.0
C      1  0.4336150000000  0.5040470000000  0.4684720000000 1.0
C      1  0.5081680000000  0.5016490000000  0.4205840000000 1.0
C      1  0.5724530000000  0.5034030000000  0.4874310000000 1.0
C      1  0.4705110000000  0.4313070000000  0.4581820000000 1.0
C      1  0.4583570000000  0.4249600000000  0.5089840000000 1.0
C      1  0.4938950000000  0.4223250000000  0.5553990000000 1.0
C      1  0.5488910000000  0.4237950000000  0.5160290000000 1.0
C      1  0.5359910000000  0.4217440000000  0.4647130000000 1.0
C      1  0.4712780000000  0.5799420000000  0.5430930000000 1.0
C      1  0.4525370000000  0.5814170000000  0.4959600000000 1.0
C      1  0.4968500000000  0.5740930000000  0.4492850000000 1.0
C      1  0.5460120000000  0.5797290000000  0.4779620000000 1.0
C      1  0.5368500000000  0.5773060000000  0.5454230000000 1.0
C      1  0.5095130000000  0.4476100000000  0.5628510000000 1.0
C      1  0.5663240000000  0.4454070000000  0.5086970000000 1.0
C      1  0.5311650000000  0.4414620000000  0.4423660000000 1.0
C      1  0.4430840000000  0.4455580000000  0.4540640000000 1.0
C      1  0.4449140000000  0.4420880000000  0.5280780000000 1.0
C      1  0.5107860000000  0.5521800000000  0.4301900000000 1.0
C      1  0.5640300000000  0.5594120000000  0.4884390000000 1.0
C      1  0.5278660000000  0.5571610000000  0.5645450000000 1.0
C      1  0.4527300000000  0.5588770000000  0.5483530000000 1.0
C      1  0.4446170000000  0.5582640000000  0.4775270000000 1.0
C      1  0.5617180000000  0.5586940000000  0.5202470000000 1.0
C      1  0.5318980000000  0.5497020000000  0.4557120000000 1.0
C      1  0.4624810000000  0.5541650000000  0.4518920000000 1.0
C      1  0.4436450000000  0.5465080000000  0.5204640000000 1.0
C      1  0.4965290000000  0.5545920000000  0.5607370000000 1.0
C      1  0.5595680000000  0.4518140000000  0.4783110000000 1.0
C      1  0.5364300000000  0.4485550000000  0.5479550000000 1.0
C      1  0.4646670000000  0.4507500000000  0.5516760000000 1.0
C      1  0.4225040000000  0.4537180000000  0.4747400000000 1.0
C      1  0.5000580000000  0.4440240000000  0.4344820000000 1.0
C      1  0.4934290000000  0.4770990000000  0.5596870000000 1.0
C      1  0.5548020000000  0.4739420000000  0.5231820000000 1.0
C      1  0.5371780000000  0.4731930000000  0.4530310000000 1.0
C      1  0.4661650000000  0.4702410000000  0.4502290000000 1.0
C      1  0.4496650000000  0.4725810000000  0.5137680000000 1.0
C      1  0.5043860000000  0.5227900000000  0.4453110000000 1.0
C      1  0.5498100000000  0.5287440000000  0.4846760000000 1.0
C      1  0.5225090000000  0.5259040000000  0.5511130000000 1.0
C      1  0.4677730000000  0.5285310000000  0.5514310000000 1.0
C      1  0.4515380000000  0.5263090000000  0.4868990000000 1.0
C      1  0.4863300000000  0.5564290000000  0.4763710000000 1.0
C      1  0.4737960000000  0.5577590000000  0.5079740000000 1.0
C      1  0.4976240000000  0.5685500000000  0.5297130000000 1.0
C      1  0.5283260000000  0.5645390000000  0.5152230000000 1.0
C      1  0.5187900000000  0.5645280000000  0.4824740000000 1.0
C      1  0.4884350000000  0.4424820000000  0.5285610000000 1.0
C      1  0.4796970000000  0.4416520000000  0.4957070000000 1.0
C      1  0.5002770000000  0.4438660000000  0.4688020000000 1.0
C      1  0.5278160000000  0.4443170000000  0.4887940000000 1.0
C      1  0.5207630000000  0.4356550000000  0.5209300000000 1.0
C      1  0.4742020000000  0.4714450000000  0.4817790000000 1.0
C      1  0.4820170000000  0.4751470000000  0.5216290000000 1.0
C      1  0.5048690000000  0.4906880000000  0.5106530000000 1.0
C      1  0.5299520000000  0.4752890000000  0.5026770000000 1.0
C      1  0.5065660000000  0.4750160000000  0.4586760000000 1.0
C      1  0.4812000000000  0.5279520000000  0.5225720000000 1.0
C      1  0.4807800000000  0.5235310000000  0.4697730000000 1.0
C      1  0.5252510000000  0.5129010000000  0.4698100000000 1.0
C      1  0.5336510000000  0.5312630000000  0.5131970000000 1.0
C      1  0.5090630000000  0.5168960000000  0.5244650000000 1.0
C      1  0.4506800000000  0.5145240000000  0.5180930000000 1.0
C      1  0.4912440000000  0.5241670000000  0.5759760000000 1.0
C      1  0.5661500000000  0.5249890000000  0.5209740000000 1.0
C      1  0.5440020000000  0.5200360000000  0.4423560000000 1.0
C      1  0.4602720000000  0.5214970000000  0.4427270000000 1.0
C      1  0.4417660000000  0.4774960000000  0.4817100000000 1.0
C      1  0.4924350000000  0.4768100000000  0.4296640000000 1.0
C      1  0.5514760000000  0.4832100000000  0.4790670000000 1.0
C      1  0.5487960000000  0.4789670000000  0.5562730000000 1.0
C      1  0.4642250000000  0.4843890000000  0.5490880000000 1.0
C      1  0.4722630000000  0.5432680000000  0.4211150000000 1.0
C      1  0.4185380000000  0.5484710000000  0.5060800000000 1.0
C      1  0.4719920000000  0.5510200000000  0.5840030000000 1.0
C      1  0.5720330000000  0.5420500000000  0.5482390000000 1.0
C      1  0.5643290000000  0.5442920000000  0.4503900000000 1.0
C      1  0.4735920000000  0.4491740000000  0.5801850000000 1.0
C      1  0.4044300000000  0.4518450000000  0.4959080000000 1.0
C      1  0.4713060000000  0.4442820000000  0.4203560000000 1.0
C      1  0.5695070000000  0.4479890000000  0.4512810000000 1.0
C      1  0.5699330000000  0.4519320000000  0.5526750000000 1.0
C      1  0.4970600000000  0.4965970000000  0.4803930000000 1.0
END
