TITL C-2622966-9038-552 0.00359148616718431 125000 -882.3111667943 0 0 162 (C1) n - 1
REM
REM in /nfs/bkarasulu/CARBON/AIRSS/Generating-Clusters/AIREBO/with-SteepDescent/Higher-Symm/SD-CG/HFTN-CG
REM
REM
REM
REM
REM
REM ./C.cell (b20cbc046b6831c77cfcea5457e17084)
REM
REM compiler GCC version 9.2.1 20190827 (Red Hat 9.2.1-1)
REM options -cpp -mtune=generic -march=x86-64 -g -O0 -fpre-include=/usr/include/finclude/math-vector-fortran.h
REM seed -679231631 -1101937826 1486996456 461573144 343720713 1244051496 -791352803 779365961 318617633 -233015551 -557877296 522775691 -253970426 1306689887 1501451989 -1430631181 -1104377906 1540374478 -2027580826 -744774357 -383459882 -1020176463 1927705726 767734175 -727242410 1298369726 121150237 -1394313710 -736341754 -2012015984 -1369002183 -1086527533 -1230560189
REM
CELL 1.54180   50.00000   50.00000   50.00000   90.00000   90.00000   90.00000
LATT -1
SFAC C  
C      1  0.5163010000000  0.4876950000000  0.4031150000000 1.0
C      1  0.5612280000000  0.4612570000000  0.5572500000000 1.0
C      1  0.5549190000000  0.5425530000000  0.4445780000000 1.0
C      1  0.5252900000000  0.4584970000000  0.4640050000000 1.0
C      1  0.5574110000000  0.5730260000000  0.5186670000000 1.0
C      1  0.5333800000000  0.5421490000000  0.4109100000000 1.0
C      1  0.5227980000000  0.4854120000000  0.5726610000000 1.0
C      1  0.4250570000000  0.4331800000000  0.5364950000000 1.0
C      1  0.5849310000000  0.4821830000000  0.4324520000000 1.0
C      1  0.4528090000000  0.5775430000000  0.5592420000000 1.0
C      1  0.5140420000000  0.5175010000000  0.4919410000000 1.0
C      1  0.5012120000000  0.5164890000000  0.4434910000000 1.0
C      1  0.5021780000000  0.4893500000000  0.5454130000000 1.0
C      1  0.4790830000000  0.4493410000000  0.4402480000000 1.0
C      1  0.5683650000000  0.4746930000000  0.4121480000000 1.0
C      1  0.5008170000000  0.5659650000000  0.5844880000000 1.0
C      1  0.4913780000000  0.6026320000000  0.4590510000000 1.0
C      1  0.4810130000000  0.4339060000000  0.5979650000000 1.0
C      1  0.5047440000000  0.4702380000000  0.5173970000000 1.0
C      1  0.4513560000000  0.5081620000000  0.4374790000000 1.0
C      1  0.4115280000000  0.4499150000000  0.4613120000000 1.0
C      1  0.4058520000000  0.5322800000000  0.5478710000000 1.0
C      1  0.4317160000000  0.5517980000000  0.5522630000000 1.0
C      1  0.4615170000000  0.4226180000000  0.5729920000000 1.0
C      1  0.4274490000000  0.5498680000000  0.4228080000000 1.0
C      1  0.4841180000000  0.5498760000000  0.4274890000000 1.0
C      1  0.5768470000000  0.4708930000000  0.4873360000000 1.0
C      1  0.5281840000000  0.5812440000000  0.5748080000000 1.0
C      1  0.5007370000000  0.4271960000000  0.4293460000000 1.0
C      1  0.4656250000000  0.5285780000000  0.5137310000000 1.0
C      1  0.6032920000000  0.5131000000000  0.5071320000000 1.0
C      1  0.4989570000000  0.4917490000000  0.4654730000000 1.0
C      1  0.4093410000000  0.5216830000000  0.4566970000000 1.0
C      1  0.5004600000000  0.5049420000000  0.5994580000000 1.0
C      1  0.5752360000000  0.4265080000000  0.5197110000000 1.0
C      1  0.4676310000000  0.4557320000000  0.5199900000000 1.0
C      1  0.4947340000000  0.4600610000000  0.4656000000000 1.0
C      1  0.4838660000000  0.4110790000000  0.4501120000000 1.0
C      1  0.4486060000000  0.5060710000000  0.6087790000000 1.0
C      1  0.5483950000000  0.4956270000000  0.4032790000000 1.0
C      1  0.4534120000000  0.5761250000000  0.5291780000000 1.0
C      1  0.4985150000000  0.5444950000000  0.4578310000000 1.0
C      1  0.4797090000000  0.5812880000000  0.5185950000000 1.0
C      1  0.4228910000000  0.4320920000000  0.5037510000000 1.0
C      1  0.4494860000000  0.4179790000000  0.4912400000000 1.0
C      1  0.4436050000000  0.5230320000000  0.5392500000000 1.0
C      1  0.4235720000000  0.5634010000000  0.4683990000000 1.0
C      1  0.5299790000000  0.4893300000000  0.4516950000000 1.0
C      1  0.4515250000000  0.5409440000000  0.5747990000000 1.0
C      1  0.4809480000000  0.4657090000000  0.5575250000000 1.0
C      1  0.5082320000000  0.5811660000000  0.4383770000000 1.0
C      1  0.4388650000000  0.4633870000000  0.5292070000000 1.0
C      1  0.5859070000000  0.4446730000000  0.4681060000000 1.0
C      1  0.5087730000000  0.4729660000000  0.5987020000000 1.0
C      1  0.4158590000000  0.4724630000000  0.4456620000000 1.0
C      1  0.5724320000000  0.5273850000000  0.5439380000000 1.0
C      1  0.4546600000000  0.5347500000000  0.4230520000000 1.0
C      1  0.5372790000000  0.5680370000000  0.4305820000000 1.0
C      1  0.5415640000000  0.4462090000000  0.5761900000000 1.0
C      1  0.4609290000000  0.4390490000000  0.4671100000000 1.0
C      1  0.4715660000000  0.5081190000000  0.5857760000000 1.0
C      1  0.4484480000000  0.4749210000000  0.4391910000000 1.0
C      1  0.4091810000000  0.4522620000000  0.4892500000000 1.0
C      1  0.5588880000000  0.4487460000000  0.4094550000000 1.0
C      1  0.4665990000000  0.4985460000000  0.4658180000000 1.0
C      1  0.4348650000000  0.5253970000000  0.5913410000000 1.0
C      1  0.5100800000000  0.5817140000000  0.4782600000000 1.0
C      1  0.5996920000000  0.5104190000000  0.4412380000000 1.0
C      1  0.4251280000000  0.5211510000000  0.4822420000000 1.0
C      1  0.4790900000000  0.4657350000000  0.5877130000000 1.0
C      1  0.4437480000000  0.5546080000000  0.5142690000000 1.0
C      1  0.4096420000000  0.5193740000000  0.5789800000000 1.0
C      1  0.5197110000000  0.5403030000000  0.5604320000000 1.0
C      1  0.5282490000000  0.4394490000000  0.4229100000000 1.0
C      1  0.4191250000000  0.5015720000000  0.4404900000000 1.0
C      1  0.4319660000000  0.4917150000000  0.4930100000000 1.0
C      1  0.5449330000000  0.5276420000000  0.4862710000000 1.0
C      1  0.5062760000000  0.5132600000000  0.4179330000000 1.0
C      1  0.5352010000000  0.5902750000000  0.4569840000000 1.0
C      1  0.5750960000000  0.4947820000000  0.5115740000000 1.0
C      1  0.4853560000000  0.4528150000000  0.4955620000000 1.0
C      1  0.5228710000000  0.4554930000000  0.5420990000000 1.0
C      1  0.5112090000000  0.4421490000000  0.5845120000000 1.0
C      1  0.4567580000000  0.4989550000000  0.5593350000000 1.0
C      1  0.5524410000000  0.5180630000000  0.5180320000000 1.0
C      1  0.4475650000000  0.4430680000000  0.5962970000000 1.0
C      1  0.4663880000000  0.4972630000000  0.3933400000000 1.0
C      1  0.5850350000000  0.4771990000000  0.5389310000000 1.0
C      1  0.5652820000000  0.4306730000000  0.4571940000000 1.0
C      1  0.6120730000000  0.4802280000000  0.5096480000000 1.0
C      1  0.4750130000000  0.5005940000000  0.5306120000000 1.0
C      1  0.4190560000000  0.5485760000000  0.4977710000000 1.0
C      1  0.5025870000000  0.5399710000000  0.4005790000000 1.0
C      1  0.5281140000000  0.5535600000000  0.4720580000000 1.0
C      1  0.5186640000000  0.5473350000000  0.5303930000000 1.0
C      1  0.4778930000000  0.4794840000000  0.3693680000000 1.0
C      1  0.3971540000000  0.5364120000000  0.5161600000000 1.0
C      1  0.4498900000000  0.4708370000000  0.4729480000000 1.0
C      1  0.5183160000000  0.4215040000000  0.5218620000000 1.0
C      1  0.4752990000000  0.4345220000000  0.5452010000000 1.0
C      1  0.5803280000000  0.5327940000000  0.4266020000000 1.0
C      1  0.4310180000000  0.4297270000000  0.4538930000000 1.0
C      1  0.5536370000000  0.5239240000000  0.4093940000000 1.0
C      1  0.5309670000000  0.4720160000000  0.4258400000000 1.0
C      1  0.5690940000000  0.5606520000000  0.5468740000000 1.0
C      1  0.5224340000000  0.5948430000000  0.5059400000000 1.0
C      1  0.5434610000000  0.5147360000000  0.4548490000000 1.0
C      1  0.5127480000000  0.5351920000000  0.5933210000000 1.0
C      1  0.4725270000000  0.5240620000000  0.3995670000000 1.0
C      1  0.5942240000000  0.5401060000000  0.4568860000000 1.0
C      1  0.5476440000000  0.4710130000000  0.5276440000000 1.0
C      1  0.4072640000000  0.4684480000000  0.5388470000000 1.0
C      1  0.4943770000000  0.5177170000000  0.5624590000000 1.0
C      1  0.4041870000000  0.4780740000000  0.5068360000000 1.0
C      1  0.5518960000000  0.4338710000000  0.5397080000000 1.0
C      1  0.4883210000000  0.4235340000000  0.4800700000000 1.0
C      1  0.4705130000000  0.4721950000000  0.4168980000000 1.0
C      1  0.4945500000000  0.4700660000000  0.3932020000000 1.0
C      1  0.4712190000000  0.5819460000000  0.5792740000000 1.0
C      1  0.5978410000000  0.5402640000000  0.4909820000000 1.0
C      1  0.5401100000000  0.4073780000000  0.4916990000000 1.0
C      1  0.5167130000000  0.4867800000000  0.4940530000000 1.0
C      1  0.5901530000000  0.4545930000000  0.5140500000000 1.0
C      1  0.4707980000000  0.5489900000000  0.4742860000000 1.0
C      1  0.5765500000000  0.5199010000000  0.4764400000000 1.0
C      1  0.4065090000000  0.5055060000000  0.5268110000000 1.0
C      1  0.5488650000000  0.5468180000000  0.5691890000000 1.0
C      1  0.5414890000000  0.4945910000000  0.5479730000000 1.0
C      1  0.5408360000000  0.4434530000000  0.5088980000000 1.0
C      1  0.4362990000000  0.4434800000000  0.5638040000000 1.0
C      1  0.4901350000000  0.5702360000000  0.5462540000000 1.0
C      1  0.4805570000000  0.5453590000000  0.5667220000000 1.0
C      1  0.5075960000000  0.4294310000000  0.5531520000000 1.0
C      1  0.4605580000000  0.3992270000000  0.4651130000000 1.0
C      1  0.5179130000000  0.5788930000000  0.5297160000000 1.0
C      1  0.5630290000000  0.5199600000000  0.5758030000000 1.0
C      1  0.4359950000000  0.4755400000000  0.5671610000000 1.0
C      1  0.4534220000000  0.4188300000000  0.5244060000000 1.0
C      1  0.4500890000000  0.4767260000000  0.5980820000000 1.0
C      1  0.4886530000000  0.5646350000000  0.4949660000000 1.0
C      1  0.5607990000000  0.5621980000000  0.4682710000000 1.0
C      1  0.5416850000000  0.4327320000000  0.4746460000000 1.0
C      1  0.4982120000000  0.5369070000000  0.5082770000000 1.0
C      1  0.4122010000000  0.5482780000000  0.4470850000000 1.0
C      1  0.5656370000000  0.4047470000000  0.5049430000000 1.0
C      1  0.5483930000000  0.5862650000000  0.4885390000000 1.0
C      1  0.4443340000000  0.4938660000000  0.5217760000000 1.0
C      1  0.4750210000000  0.5772300000000  0.4445310000000 1.0
C      1  0.5422980000000  0.5806280000000  0.5489520000000 1.0
C      1  0.5581720000000  0.4264470000000  0.4311370000000 1.0
C      1  0.5977990000000  0.5086780000000  0.5404720000000 1.0
C      1  0.5849430000000  0.5671110000000  0.4996560000000 1.0
C      1  0.5438920000000  0.4701370000000  0.4880390000000 1.0
C      1  0.4100560000000  0.4942530000000  0.5590870000000 1.0
C      1  0.5856820000000  0.5843700000000  0.4750340000000 1.0
C      1  0.4574570000000  0.5218210000000  0.4829210000000 1.0
C      1  0.5355780000000  0.5119530000000  0.5835200000000 1.0
C      1  0.5848670000000  0.4915300000000  0.4651980000000 1.0
C      1  0.5228800000000  0.3995320000000  0.5478090000000 1.0
C      1  0.5089540000000  0.4075000000000  0.4956100000000 1.0
C      1  0.4503240000000  0.5690800000000  0.4624890000000 1.0
C      1  0.5213040000000  0.5134660000000  0.5309340000000 1.0
END
