TITL C-2622957-9142-751 -0.000328419784624429 125000 -496.727056798728 0 0 87 (C1) n - 1
REM
REM in /nfs/bkarasulu/CARBON/AIRSS/Generating-Clusters/AIREBO/with-SteepDescent/Higher-Symm/SD-CG/HFTN-CG
REM
REM
REM
REM
REM
REM ./C.cell (b20cbc046b6831c77cfcea5457e17084)
REM
REM compiler GCC version 9.2.1 20190827 (Red Hat 9.2.1-1)
REM options -cpp -mtune=generic -march=x86-64 -g -O0 -fpre-include=/usr/include/finclude/math-vector-fortran.h
REM seed 2019695750 1883767075 374538607 498199461 60911721 152106090 -711672327 -1170691316 -917943157 -826052713 1339805136 -896232267 -1770634516 89023282 1727698516 26240990 1410168465 1678617564 -1850307301 -1002447717 -1396750492 679762852 1761446153 -498709566 1144169124 1885531024 1237618305 1268117904 1596448099 1569367628 657043950 692372635 -335794424
REM
CELL 1.54180   50.00000   50.00000   50.00000   90.00000   90.00000   90.00000
LATT -1
SFAC C  
C      1  0.4268310000000  0.4907930000000  0.5508990000000 1.0
C      1  0.4389240000000  0.5185250000000  0.4484950000000 1.0
C      1  0.5676410000000  0.5053850000000  0.5479820000000 1.0
C      1  0.5648840000000  0.4717430000000  0.4449670000000 1.0
C      1  0.5376740000000  0.4617240000000  0.4395660000000 1.0
C      1  0.5467640000000  0.5305290000000  0.5573640000000 1.0
C      1  0.4662420000000  0.5348680000000  0.4365530000000 1.0
C      1  0.4492890000000  0.4711110000000  0.5556360000000 1.0
C      1  0.4630770000000  0.4937000000000  0.5225210000000 1.0
C      1  0.4552580000000  0.4982550000000  0.4707120000000 1.0
C      1  0.5443710000000  0.4991410000000  0.5233490000000 1.0
C      1  0.5366880000000  0.4942700000000  0.4736170000000 1.0
C      1  0.5566190000000  0.5376780000000  0.4749110000000 1.0
C      1  0.5555870000000  0.4613740000000  0.5289690000000 1.0
C      1  0.4430360000000  0.4602880000000  0.4690770000000 1.0
C      1  0.4394540000000  0.5347450000000  0.5297940000000 1.0
C      1  0.5021040000000  0.4260480000000  0.4707040000000 1.0
C      1  0.4998310000000  0.5712470000000  0.5302500000000 1.0
C      1  0.4941460000000  0.5841510000000  0.4691770000000 1.0
C      1  0.4970350000000  0.4297210000000  0.5309170000000 1.0
C      1  0.4348480000000  0.4533980000000  0.5162150000000 1.0
C      1  0.4350470000000  0.5447070000000  0.4799650000000 1.0
C      1  0.5677930000000  0.5482700000000  0.5194480000000 1.0
C      1  0.5634130000000  0.4511550000000  0.4800060000000 1.0
C      1  0.5796870000000  0.4813550000000  0.5271180000000 1.0
C      1  0.5828190000000  0.5204390000000  0.4753070000000 1.0
C      1  0.4199810000000  0.5111510000000  0.5326340000000 1.0
C      1  0.4170170000000  0.4762720000000  0.4789870000000 1.0
C      1  0.5263780000000  0.4715450000000  0.5148470000000 1.0
C      1  0.5328220000000  0.5205380000000  0.4893740000000 1.0
C      1  0.4648930000000  0.5242980000000  0.5133280000000 1.0
C      1  0.4728420000000  0.4706670000000  0.4799840000000 1.0
C      1  0.4639220000000  0.5157290000000  0.5734360000000 1.0
C      1  0.4695660000000  0.5011610000000  0.4335240000000 1.0
C      1  0.5270030000000  0.5057670000000  0.5590210000000 1.0
C      1  0.5206410000000  0.5162950000000  0.4306440000000 1.0
C      1  0.4894830000000  0.4674700000000  0.4397950000000 1.0
C      1  0.4860030000000  0.5414110000000  0.5523380000000 1.0
C      1  0.5066150000000  0.5346920000000  0.4630220000000 1.0
C      1  0.5022500000000  0.4723710000000  0.5594530000000 1.0
C      1  0.4761770000000  0.4918510000000  0.5538470000000 1.0
C      1  0.4911060000000  0.5081610000000  0.4562470000000 1.0
C      1  0.5003160000000  0.5139870000000  0.5447050000000 1.0
C      1  0.5162530000000  0.4870290000000  0.4474110000000 1.0
C      1  0.5349090000000  0.5344890000000  0.4513670000000 1.0
C      1  0.5368450000000  0.4737360000000  0.5532420000000 1.0
C      1  0.4562720000000  0.4709830000000  0.4418250000000 1.0
C      1  0.4528490000000  0.5404010000000  0.5564130000000 1.0
C      1  0.4781250000000  0.5148820000000  0.4857980000000 1.0
C      1  0.4849310000000  0.4741750000000  0.5103490000000 1.0
C      1  0.5157880000000  0.4733760000000  0.4849700000000 1.0
C      1  0.5170190000000  0.5127700000000  0.5184780000000 1.0
C      1  0.4963820000000  0.5283080000000  0.4221480000000 1.0
C      1  0.5238770000000  0.4825270000000  0.5836430000000 1.0
C      1  0.4821320000000  0.4806020000000  0.4093060000000 1.0
C      1  0.4829100000000  0.5372140000000  0.5860390000000 1.0
C      1  0.4280380000000  0.5146200000000  0.4793400000000 1.0
C      1  0.4366670000000  0.4807580000000  0.5134770000000 1.0
C      1  0.5664060000000  0.4823200000000  0.4758710000000 1.0
C      1  0.5713940000000  0.5187710000000  0.5170780000000 1.0
C      1  0.5291700000000  0.4203040000000  0.4741590000000 1.0
C      1  0.5286020000000  0.5729730000000  0.5291940000000 1.0
C      1  0.4673230000000  0.5768900000000  0.4740380000000 1.0
C      1  0.4693840000000  0.4251420000000  0.5276550000000 1.0
C      1  0.4589180000000  0.5771440000000  0.5023500000000 1.0
C      1  0.4614520000000  0.4202390000000  0.4996840000000 1.0
C      1  0.5375940000000  0.4200270000000  0.5023990000000 1.0
C      1  0.5369590000000  0.5768830000000  0.5007330000000 1.0
C      1  0.4399910000000  0.5558160000000  0.5056210000000 1.0
C      1  0.4414620000000  0.4388880000000  0.4926820000000 1.0
C      1  0.5566950000000  0.4408520000000  0.5054550000000 1.0
C      1  0.5596470000000  0.5604230000000  0.4954140000000 1.0
C      1  0.5487010000000  0.5537050000000  0.5407830000000 1.0
C      1  0.5465710000000  0.4393220000000  0.4595360000000 1.0
C      1  0.4499200000000  0.4452550000000  0.5402320000000 1.0
C      1  0.4532800000000  0.5554610000000  0.4603560000000 1.0
C      1  0.5027250000000  0.4587630000000  0.5315140000000 1.0
C      1  0.5073070000000  0.5424910000000  0.4936110000000 1.0
C      1  0.4903960000000  0.5425140000000  0.5186360000000 1.0
C      1  0.4988040000000  0.4551210000000  0.4669610000000 1.0
C      1  0.5191980000000  0.4141280000000  0.5231810000000 1.0
C      1  0.5146460000000  0.5717270000000  0.4833720000000 1.0
C      1  0.4765510000000  0.5870830000000  0.5227370000000 1.0
C      1  0.4797600000000  0.4120490000000  0.4799340000000 1.0
C      1  0.4132200000000  0.5004510000000  0.5025960000000 1.0
C      1  0.5846070000000  0.4952780000000  0.4974530000000 1.0
C      1  0.5005020000000  0.4985250000000  0.4975740000000 1.0
END
