TITL C-2622957-9142-83 -0.00201078971163656 125000 -1028.22702950207 0 0 193 (C1) n - 1
REM
REM in /nfs/bkarasulu/CARBON/AIRSS/Generating-Clusters/AIREBO/with-SteepDescent/Higher-Symm/SD-CG/HFTN-CG
REM
REM
REM
REM
REM
REM ./C.cell (b20cbc046b6831c77cfcea5457e17084)
REM
REM compiler GCC version 9.2.1 20190827 (Red Hat 9.2.1-1)
REM options -cpp -mtune=generic -march=x86-64 -g -O0 -fpre-include=/usr/include/finclude/math-vector-fortran.h
REM seed 1051496206 486229065 -1192928862 -1315923432 1312326109 1776540814 -971013513 -299908660 472294082 -519039341 735442176 87217440 1770875465 -1729199307 1950160477 1951337853 255708807 -1137706442 -184188013 -1835301412 130691421 1839483712 -635606782 -794664008 848024408 -311174896 -695062708 14346363 839448789 1429018594 827910412 -1798978318 436834078
REM
CELL 1.54180   50.00000   50.00000   50.00000   90.00000   90.00000   90.00000
LATT -1
SFAC C  
C      1  0.4496460000000  0.5373220000000  0.4828350000000 1.0
C      1  0.4501120000000  0.4570360000000  0.4822080000000 1.0
C      1  0.5178660000000  0.4419280000000  0.4828820000000 1.0
C      1  0.5560760000000  0.5014810000000  0.4835460000000 1.0
C      1  0.5188120000000  0.5573970000000  0.4840920000000 1.0
C      1  0.4494610000000  0.5287510000000  0.5165030000000 1.0
C      1  0.4494260000000  0.4615030000000  0.5161290000000 1.0
C      1  0.5232570000000  0.4402550000000  0.5171370000000 1.0
C      1  0.5641380000000  0.5040510000000  0.5167140000000 1.0
C      1  0.5187590000000  0.5605400000000  0.5180340000000 1.0
C      1  0.5658190000000  0.5581530000000  0.4455550000000 1.0
C      1  0.4673670000000  0.5779270000000  0.4444830000000 1.0
C      1  0.4188560000000  0.4929490000000  0.4490540000000 1.0
C      1  0.4774830000000  0.4147550000000  0.4442720000000 1.0
C      1  0.5732320000000  0.4547220000000  0.4466750000000 1.0
C      1  0.5637990000000  0.5537060000000  0.5528470000000 1.0
C      1  0.4674380000000  0.5750750000000  0.5520780000000 1.0
C      1  0.4187840000000  0.4935750000000  0.5530080000000 1.0
C      1  0.4803940000000  0.4201200000000  0.5517930000000 1.0
C      1  0.5709940000000  0.4588120000000  0.5514680000000 1.0
C      1  0.4701870000000  0.4542540000000  0.4271260000000 1.0
C      1  0.5328600000000  0.4514240000000  0.4270180000000 1.0
C      1  0.5568590000000  0.5120290000000  0.4285380000000 1.0
C      1  0.5016080000000  0.5624710000000  0.4188640000000 1.0
C      1  0.4450050000000  0.5197940000000  0.4219480000000 1.0
C      1  0.4647890000000  0.4538840000000  0.5760640000000 1.0
C      1  0.5314050000000  0.4497530000000  0.5736280000000 1.0
C      1  0.5566150000000  0.5136290000000  0.5720250000000 1.0
C      1  0.5037220000000  0.5566320000000  0.5734620000000 1.0
C      1  0.4467220000000  0.5179250000000  0.5755710000000 1.0
C      1  0.6019990000000  0.5417610000000  0.4887670000000 1.0
C      1  0.4911200000000  0.6107040000000  0.4898000000000 1.0
C      1  0.3988540000000  0.5255140000000  0.4864890000000 1.0
C      1  0.4421130000000  0.4082650000000  0.4854420000000 1.0
C      1  0.5721820000000  0.4142680000000  0.4903350000000 1.0
C      1  0.6017410000000  0.5402760000000  0.5163930000000 1.0
C      1  0.4920460000000  0.6072910000000  0.5174430000000 1.0
C      1  0.3980190000000  0.5261450000000  0.5143160000000 1.0
C      1  0.4418580000000  0.4095000000000  0.5135990000000 1.0
C      1  0.5707940000000  0.4192770000000  0.5174690000000 1.0
C      1  0.5638190000000  0.5747860000000  0.4818320000000 1.0
C      1  0.4472290000000  0.5872530000000  0.4824570000000 1.0
C      1  0.4030570000000  0.4756970000000  0.4835630000000 1.0
C      1  0.4906500000000  0.3980960000000  0.4821180000000 1.0
C      1  0.5886770000000  0.4615510000000  0.4856880000000 1.0
C      1  0.5619260000000  0.5644590000000  0.5133920000000 1.0
C      1  0.4526130000000  0.5808170000000  0.5141270000000 1.0
C      1  0.4091350000000  0.4785860000000  0.5154440000000 1.0
C      1  0.4895000000000  0.4098270000000  0.5135240000000 1.0
C      1  0.6035520000000  0.4522350000000  0.5118600000000 1.0
C      1  0.5292470000000  0.4959030000000  0.5623630000000 1.0
C      1  0.5120180000000  0.5252420000000  0.5633440000000 1.0
C      1  0.4787230000000  0.5181550000000  0.5640310000000 1.0
C      1  0.4752920000000  0.4842960000000  0.5650210000000 1.0
C      1  0.5064550000000  0.4706690000000  0.5637980000000 1.0
C      1  0.5309310000000  0.4918270000000  0.4372820000000 1.0
C      1  0.5065420000000  0.5352310000000  0.4386140000000 1.0
C      1  0.4762460000000  0.5200430000000  0.4354120000000 1.0
C      1  0.4763700000000  0.4860440000000  0.4375800000000 1.0
C      1  0.5057900000000  0.4688940000000  0.4379550000000 1.0
C      1  0.5115010000000  0.5862300000000  0.5795980000000 1.0
C      1  0.4274380000000  0.5407990000000  0.5763170000000 1.0
C      1  0.4375140000000  0.4424090000000  0.5752640000000 1.0
C      1  0.5441490000000  0.4216320000000  0.5792310000000 1.0
C      1  0.5871990000000  0.5142550000000  0.5786440000000 1.0
C      1  0.5166300000000  0.5877320000000  0.4220850000000 1.0
C      1  0.4252820000000  0.5413180000000  0.4245110000000 1.0
C      1  0.4396180000000  0.4481540000000  0.4208540000000 1.0
C      1  0.5362770000000  0.4211990000000  0.4243690000000 1.0
C      1  0.5875290000000  0.5132490000000  0.4218540000000 1.0
C      1  0.4972730000000  0.5911600000000  0.5548960000000 1.0
C      1  0.4146360000000  0.5273220000000  0.5540740000000 1.0
C      1  0.4470550000000  0.4267830000000  0.5529040000000 1.0
C      1  0.5581380000000  0.4274650000000  0.5544190000000 1.0
C      1  0.5882380000000  0.5301030000000  0.5544330000000 1.0
C      1  0.4970460000000  0.5943910000000  0.4421600000000 1.0
C      1  0.4153700000000  0.5267620000000  0.4476190000000 1.0
C      1  0.4458040000000  0.4269790000000  0.4423390000000 1.0
C      1  0.5572930000000  0.4248180000000  0.4438120000000 1.0
C      1  0.5878020000000  0.5322850000000  0.4434140000000 1.0
C      1  0.5559710000000  0.5959630000000  0.5144640000000 1.0
C      1  0.4200300000000  0.5878240000000  0.5113500000000 1.0
C      1  0.3903350000000  0.4509170000000  0.5118900000000 1.0
C      1  0.5123520000000  0.3873210000000  0.5136260000000 1.0
C      1  0.6213370000000  0.4753130000000  0.5180990000000 1.0
C      1  0.5508230000000  0.6055930000000  0.4875720000000 1.0
C      1  0.4134730000000  0.5913950000000  0.4832330000000 1.0
C      1  0.3868310000000  0.4458080000000  0.4833690000000 1.0
C      1  0.5195970000000  0.3807850000000  0.4864440000000 1.0
C      1  0.6149700000000  0.4828740000000  0.4893410000000 1.0
C      1  0.5186360000000  0.5279780000000  0.5966050000000 1.0
C      1  0.4792470000000  0.5248020000000  0.5973910000000 1.0
C      1  0.4700160000000  0.4863390000000  0.5985660000000 1.0
C      1  0.5037440000000  0.4657620000000  0.5973530000000 1.0
C      1  0.5336820000000  0.4914780000000  0.5958030000000 1.0
C      1  0.5177080000000  0.5277200000000  0.4073910000000 1.0
C      1  0.4787500000000  0.5249920000000  0.4018430000000 1.0
C      1  0.4699840000000  0.4865230000000  0.4041650000000 1.0
C      1  0.5037480000000  0.4659780000000  0.4041210000000 1.0
C      1  0.5337510000000  0.4916980000000  0.4033810000000 1.0
C      1  0.4059860000000  0.4441680000000  0.5352980000000 1.0
C      1  0.5248290000000  0.3952630000000  0.5370640000000 1.0
C      1  0.6097370000000  0.4905200000000  0.5380810000000 1.0
C      1  0.5423140000000  0.5992560000000  0.5382060000000 1.0
C      1  0.4195650000000  0.5710080000000  0.5343720000000 1.0
C      1  0.4063750000000  0.4423400000000  0.4619650000000 1.0
C      1  0.5266280000000  0.3993830000000  0.4649210000000 1.0
C      1  0.6016940000000  0.4939430000000  0.4662710000000 1.0
C      1  0.5345280000000  0.5963080000000  0.4652470000000 1.0
C      1  0.4168880000000  0.5712610000000  0.4622180000000 1.0
C      1  0.4973630000000  0.5351380000000  0.5168070000000 1.0
C      1  0.4781980000000  0.5106220000000  0.5149490000000 1.0
C      1  0.4797980000000  0.4768220000000  0.5150880000000 1.0
C      1  0.5114700000000  0.4879170000000  0.5081110000000 1.0
C      1  0.5203040000000  0.5181080000000  0.5070950000000 1.0
C      1  0.5033370000000  0.5320120000000  0.4723170000000 1.0
C      1  0.4630760000000  0.5074070000000  0.4855760000000 1.0
C      1  0.4804510000000  0.4642490000000  0.4773340000000 1.0
C      1  0.5110930000000  0.4720930000000  0.4713940000000 1.0
C      1  0.5270110000000  0.5081430000000  0.4671880000000 1.0
C      1  0.5362770000000  0.4686730000000  0.5108800000000 1.0
C      1  0.5475260000000  0.5333960000000  0.5123350000000 1.0
C      1  0.4757430000000  0.5584150000000  0.5133560000000 1.0
C      1  0.4362210000000  0.4990380000000  0.5175160000000 1.0
C      1  0.4843460000000  0.4433550000000  0.5110340000000 1.0
C      1  0.5549560000000  0.4567110000000  0.4850880000000 1.0
C      1  0.5577280000000  0.5413460000000  0.4808870000000 1.0
C      1  0.4756270000000  0.5676030000000  0.4821290000000 1.0
C      1  0.4327740000000  0.4919960000000  0.4863950000000 1.0
C      1  0.4799550000000  0.4304400000000  0.4809360000000 1.0
C      1  0.5597230000000  0.4581610000000  0.5832410000000 1.0
C      1  0.5592110000000  0.5422150000000  0.5844550000000 1.0
C      1  0.4764510000000  0.5675120000000  0.5839790000000 1.0
C      1  0.4289480000000  0.4956000000000  0.5853910000000 1.0
C      1  0.4811760000000  0.4303750000000  0.5842010000000 1.0
C      1  0.5604370000000  0.4586920000000  0.4154260000000 1.0
C      1  0.5588840000000  0.5407150000000  0.4172320000000 1.0
C      1  0.4737300000000  0.5684670000000  0.4124440000000 1.0
C      1  0.4298440000000  0.4959450000000  0.4186230000000 1.0
C      1  0.4814770000000  0.4282770000000  0.4134280000000 1.0
C      1  0.4431470000000  0.4748760000000  0.4061530000000 1.0
C      1  0.4994190000000  0.4408420000000  0.3956110000000 1.0
C      1  0.5561380000000  0.4784610000000  0.3961840000000 1.0
C      1  0.5380200000000  0.5431010000000  0.3991740000000 1.0
C      1  0.4658870000000  0.5478630000000  0.3949980000000 1.0
C      1  0.4441020000000  0.4822690000000  0.6046900000000 1.0
C      1  0.4994110000000  0.4398050000000  0.6030380000000 1.0
C      1  0.5562850000000  0.4785170000000  0.6018140000000 1.0
C      1  0.5384300000000  0.5448910000000  0.6027840000000 1.0
C      1  0.4684740000000  0.5487500000000  0.6032700000000 1.0
C      1  0.4338890000000  0.4363120000000  0.5271300000000 1.0
C      1  0.5421390000000  0.4186230000000  0.5297070000000 1.0
C      1  0.5925400000000  0.5131410000000  0.5286790000000 1.0
C      1  0.5148970000000  0.5896750000000  0.5299410000000 1.0
C      1  0.4203880000000  0.5421790000000  0.5279500000000 1.0
C      1  0.4341210000000  0.4334260000000  0.4704460000000 1.0
C      1  0.5461550000000  0.4257440000000  0.4740840000000 1.0
C      1  0.5826120000000  0.5197070000000  0.4725700000000 1.0
C      1  0.5033950000000  0.5850490000000  0.4730800000000 1.0
C      1  0.4205440000000  0.5429470000000  0.4730420000000 1.0
C      1  0.5336540000000  0.5416080000000  0.5422790000000 1.0
C      1  0.4674810000000  0.5421650000000  0.5420720000000 1.0
C      1  0.4494640000000  0.4831100000000  0.5424790000000 1.0
C      1  0.4993380000000  0.4464900000000  0.5405740000000 1.0
C      1  0.5496310000000  0.4820350000000  0.5383270000000 1.0
C      1  0.5356100000000  0.5469170000000  0.4564200000000 1.0
C      1  0.4693970000000  0.5460620000000  0.4565060000000 1.0
C      1  0.4495080000000  0.4816660000000  0.4586540000000 1.0
C      1  0.4995640000000  0.4385730000000  0.4543730000000 1.0
C      1  0.5516100000000  0.4773120000000  0.4600420000000 1.0
C      1  0.3955190000000  0.5022260000000  0.5297410000000 1.0
C      1  0.4648600000000  0.4006250000000  0.5286350000000 1.0
C      1  0.5866500000000  0.4390970000000  0.5286110000000 1.0
C      1  0.5874730000000  0.5611030000000  0.5295650000000 1.0
C      1  0.4676500000000  0.6013960000000  0.5305230000000 1.0
C      1  0.3944570000000  0.5022450000000  0.4708610000000 1.0
C      1  0.4626330000000  0.3965150000000  0.4688420000000 1.0
C      1  0.5851430000000  0.4339330000000  0.4708170000000 1.0
C      1  0.5898280000000  0.5622200000000  0.4693210000000 1.0
C      1  0.4685050000000  0.6035400000000  0.4668770000000 1.0
C      1  0.4047610000000  0.4627050000000  0.5556090000000 1.0
C      1  0.5063930000000  0.3988760000000  0.5572010000000 1.0
C      1  0.5987100000000  0.4759460000000  0.5583880000000 1.0
C      1  0.5546020000000  0.5858810000000  0.5588680000000 1.0
C      1  0.4347290000000  0.5787410000000  0.5556680000000 1.0
C      1  0.4072310000000  0.4616540000000  0.4427200000000 1.0
C      1  0.5078160000000  0.3993800000000  0.4447620000000 1.0
C      1  0.5979760000000  0.4765600000000  0.4455760000000 1.0
C      1  0.5500140000000  0.5878580000000  0.4440090000000 1.0
C      1  0.4337040000000  0.5785820000000  0.4418380000000 1.0
C      1  0.5009680000000  0.4994340000000  0.3986370000000 1.0
C      1  0.5012320000000  0.4993180000000  0.6023450000000 1.0
C      1  0.4960920000000  0.5007970000000  0.4806500000000 1.0
END
