TITL C-2622967-6265-416 -0.000246079264614444 125000 -405.550012076548 0 0 74 (C1) n - 1
REM
REM in /nfs/bkarasulu/CARBON/AIRSS/Generating-Clusters/AIREBO/with-SteepDescent/Higher-Symm/SD-CG/HFTN-CG
REM
REM
REM
REM
REM
REM ./C.cell (b20cbc046b6831c77cfcea5457e17084)
REM
REM compiler GCC version 9.2.1 20190827 (Red Hat 9.2.1-1)
REM options -cpp -mtune=generic -march=x86-64 -g -O0 -fpre-include=/usr/include/finclude/math-vector-fortran.h
REM seed -435230930 1541335159 -953312670 1324126195 338872813 675035682 1605581198 -1314212333 1626726995 441365867 1077108732 -1927690443 1185352286 -176846901 1358402247 891794684 957516132 -1625690262 -125273317 -1529856597 -1382888983 -843144558 -1188806612 -458441177 -2064383848 -1693775997 -1912107135 59333906 -1640919420 964813261 1113697289 -459155462 -1628652057
REM
CELL 1.54180   50.00000   50.00000   50.00000   90.00000   90.00000   90.00000
LATT -1
SFAC C  
C      1  0.5782110000000  0.5019290000000  0.4815710000000 1.0
C      1  0.4147790000000  0.5284450000000  0.5296930000000 1.0
C      1  0.4389520000000  0.4847050000000  0.4698720000000 1.0
C      1  0.5301100000000  0.4168680000000  0.5167320000000 1.0
C      1  0.4535800000000  0.5090940000000  0.5341620000000 1.0
C      1  0.4834860000000  0.5384910000000  0.5165370000000 1.0
C      1  0.5367070000000  0.4182610000000  0.4685190000000 1.0
C      1  0.5349640000000  0.5074350000000  0.5046770000000 1.0
C      1  0.5464360000000  0.4861680000000  0.4243810000000 1.0
C      1  0.5419970000000  0.4712970000000  0.5459760000000 1.0
C      1  0.5500770000000  0.4586270000000  0.4430190000000 1.0
C      1  0.5350800000000  0.5176790000000  0.5371180000000 1.0
C      1  0.5426770000000  0.4265780000000  0.4936430000000 1.0
C      1  0.4442110000000  0.5319470000000  0.5145870000000 1.0
C      1  0.5768250000000  0.5313310000000  0.4859310000000 1.0
C      1  0.5143910000000  0.4973630000000  0.5781840000000 1.0
C      1  0.4326870000000  0.5486740000000  0.5485070000000 1.0
C      1  0.4471110000000  0.5073240000000  0.5674950000000 1.0
C      1  0.5229900000000  0.4214610000000  0.4193060000000 1.0
C      1  0.5514690000000  0.5371820000000  0.5054570000000 1.0
C      1  0.5360210000000  0.4954950000000  0.5594460000000 1.0
C      1  0.4251030000000  0.4939270000000  0.5469540000000 1.0
C      1  0.4390470000000  0.4473470000000  0.5047030000000 1.0
C      1  0.5282360000000  0.4741230000000  0.5031020000000 1.0
C      1  0.4667260000000  0.4884390000000  0.5817130000000 1.0
C      1  0.5097340000000  0.5229590000000  0.5898630000000 1.0
C      1  0.4475680000000  0.5483680000000  0.4881240000000 1.0
C      1  0.4773290000000  0.5234590000000  0.4587500000000 1.0
C      1  0.4629890000000  0.4522550000000  0.4918470000000 1.0
C      1  0.5275900000000  0.4372160000000  0.4450670000000 1.0
C      1  0.5011200000000  0.5059950000000  0.5017410000000 1.0
C      1  0.5003880000000  0.5003990000000  0.4274710000000 1.0
C      1  0.4584600000000  0.5582250000000  0.5284690000000 1.0
C      1  0.5236170000000  0.5505220000000  0.4802650000000 1.0
C      1  0.4839210000000  0.5063490000000  0.5276680000000 1.0
C      1  0.5362500000000  0.5311890000000  0.4585900000000 1.0
C      1  0.4171220000000  0.4997400000000  0.4835340000000 1.0
C      1  0.5269030000000  0.5457140000000  0.5481030000000 1.0
C      1  0.5057460000000  0.5442380000000  0.5724060000000 1.0
C      1  0.4873330000000  0.4966660000000  0.4771450000000 1.0
C      1  0.5569150000000  0.5572010000000  0.4783280000000 1.0
C      1  0.4961980000000  0.5393690000000  0.4353550000000 1.0
C      1  0.4875210000000  0.4447530000000  0.5100380000000 1.0
C      1  0.4474680000000  0.5339910000000  0.4650340000000 1.0
C      1  0.4715120000000  0.4960930000000  0.4393740000000 1.0
C      1  0.5371460000000  0.4853670000000  0.4570700000000 1.0
C      1  0.4906040000000  0.5428940000000  0.4835290000000 1.0
C      1  0.4211140000000  0.4994120000000  0.5131340000000 1.0
C      1  0.5240680000000  0.5317410000000  0.4335360000000 1.0
C      1  0.4659900000000  0.4613330000000  0.5305170000000 1.0
C      1  0.4228920000000  0.5203860000000  0.4621560000000 1.0
C      1  0.5274950000000  0.5061110000000  0.4158020000000 1.0
C      1  0.5104360000000  0.4318330000000  0.5274380000000 1.0
C      1  0.4814220000000  0.5761160000000  0.4892890000000 1.0
C      1  0.4639500000000  0.5814730000000  0.5087000000000 1.0
C      1  0.4392180000000  0.5369860000000  0.5726110000000 1.0
C      1  0.5033670000000  0.4602490000000  0.4865880000000 1.0
C      1  0.4791830000000  0.4671230000000  0.4334710000000 1.0
C      1  0.5063740000000  0.4856080000000  0.4558560000000 1.0
C      1  0.5510600000000  0.5537260000000  0.5308190000000 1.0
C      1  0.4951950000000  0.5525500000000  0.5427740000000 1.0
C      1  0.5793370000000  0.4746630000000  0.4975170000000 1.0
C      1  0.4636440000000  0.4772140000000  0.4805670000000 1.0
C      1  0.5160300000000  0.4631130000000  0.5311930000000 1.0
C      1  0.4350660000000  0.4710640000000  0.5257020000000 1.0
C      1  0.5612000000000  0.4991440000000  0.5246660000000 1.0
C      1  0.4911400000000  0.4835720000000  0.5706580000000 1.0
C      1  0.5475230000000  0.5073610000000  0.4730760000000 1.0
C      1  0.4905830000000  0.4783240000000  0.5409470000000 1.0
C      1  0.5076300000000  0.5784170000000  0.4778020000000 1.0
C      1  0.5518740000000  0.4552620000000  0.4950890000000 1.0
C      1  0.5023190000000  0.4531560000000  0.4543070000000 1.0
C      1  0.5692470000000  0.4612560000000  0.4677780000000 1.0
C      1  0.5673330000000  0.4696580000000  0.5289480000000 1.0
END
