TITL C-2622959-7779-271 0.00051881788791444 125000 -698.921498138405 0 0 127 (C1) n - 1
REM
REM in /nfs/bkarasulu/CARBON/AIRSS/Generating-Clusters/AIREBO/with-SteepDescent/Higher-Symm/SD-CG/HFTN-CG
REM
REM
REM
REM
REM
REM ./C.cell (b20cbc046b6831c77cfcea5457e17084)
REM
REM compiler GCC version 9.2.1 20190827 (Red Hat 9.2.1-1)
REM options -cpp -mtune=generic -march=x86-64 -g -O0 -fpre-include=/usr/include/finclude/math-vector-fortran.h
REM seed -1945791817 -521806423 464584527 883275322 -1566859574 -399646510 -152166499 -1318350245 1613761387 372780868 -1189358094 840786905 -274191052 985767360 1498123726 2076770462 277373339 -2061855612 579645951 512411554 1727792925 9635933 -1478207680 -914976094 996795725 -1826760460 -811724100 -1448601847 -1740210612 -1779744536 779372975 -537505560 1818770938
REM
CELL 1.54180   50.00000   50.00000   50.00000   90.00000   90.00000   90.00000
LATT -1
SFAC C  
C      1  0.4779950000000  0.4561810000000  0.4713250000000 1.0
C      1  0.5267390000000  0.4616790000000  0.4779760000000 1.0
C      1  0.5224730000000  0.4635460000000  0.5116570000000 1.0
C      1  0.5035420000000  0.4584110000000  0.5394380000000 1.0
C      1  0.4686590000000  0.4666160000000  0.5025010000000 1.0
C      1  0.4698380000000  0.5472960000000  0.4645830000000 1.0
C      1  0.5219170000000  0.5424750000000  0.4801670000000 1.0
C      1  0.5106850000000  0.5425990000000  0.5088610000000 1.0
C      1  0.5010940000000  0.5441910000000  0.5414440000000 1.0
C      1  0.4611360000000  0.5418400000000  0.4939100000000 1.0
C      1  0.4057180000000  0.4854150000000  0.4851780000000 1.0
C      1  0.4880540000000  0.4824860000000  0.4141430000000 1.0
C      1  0.5744980000000  0.4847790000000  0.4576300000000 1.0
C      1  0.5718750000000  0.4856870000000  0.5672120000000 1.0
C      1  0.4649570000000  0.4874180000000  0.5804980000000 1.0
C      1  0.4062880000000  0.5195160000000  0.4847790000000 1.0
C      1  0.4879660000000  0.5134140000000  0.4142190000000 1.0
C      1  0.5796330000000  0.5183020000000  0.4615410000000 1.0
C      1  0.5699470000000  0.5170900000000  0.5689610000000 1.0
C      1  0.4633020000000  0.5198870000000  0.5847130000000 1.0
C      1  0.5538090000000  0.4094500000000  0.4873170000000 1.0
C      1  0.5307780000000  0.4120760000000  0.5450030000000 1.0
C      1  0.4407490000000  0.4191100000000  0.5497930000000 1.0
C      1  0.4404840000000  0.4104370000000  0.4803720000000 1.0
C      1  0.5056900000000  0.4120110000000  0.4330540000000 1.0
C      1  0.5634720000000  0.5871100000000  0.4919720000000 1.0
C      1  0.5271690000000  0.5905190000000  0.5496580000000 1.0
C      1  0.4367590000000  0.5872100000000  0.5536560000000 1.0
C      1  0.4423350000000  0.5958020000000  0.4789250000000 1.0
C      1  0.5042490000000  0.5844670000000  0.4286250000000 1.0
C      1  0.5260610000000  0.4049070000000  0.4920730000000 1.0
C      1  0.5163350000000  0.4063170000000  0.5191170000000 1.0
C      1  0.4886330000000  0.4132240000000  0.5224440000000 1.0
C      1  0.4677780000000  0.4143480000000  0.5004060000000 1.0
C      1  0.5065690000000  0.4136230000000  0.4655840000000 1.0
C      1  0.5320960000000  0.5890560000000  0.5005060000000 1.0
C      1  0.5154230000000  0.5964190000000  0.5241880000000 1.0
C      1  0.4877050000000  0.5897420000000  0.5233770000000 1.0
C      1  0.4692800000000  0.5894400000000  0.4987980000000 1.0
C      1  0.5044980000000  0.5845530000000  0.4561280000000 1.0
C      1  0.5801860000000  0.4571480000000  0.4749810000000 1.0
C      1  0.5549490000000  0.4590320000000  0.5809420000000 1.0
C      1  0.4493490000000  0.4613470000000  0.5677120000000 1.0
C      1  0.4120610000000  0.4623760000000  0.4684930000000 1.0
C      1  0.5110180000000  0.4580960000000  0.4119200000000 1.0
C      1  0.5798130000000  0.5404920000000  0.4792310000000 1.0
C      1  0.5507370000000  0.5423770000000  0.5819110000000 1.0
C      1  0.4456930000000  0.5402260000000  0.5746910000000 1.0
C      1  0.4179610000000  0.5458610000000  0.4664290000000 1.0
C      1  0.5092130000000  0.5394130000000  0.4108990000000 1.0
C      1  0.5659950000000  0.5638420000000  0.4714550000000 1.0
C      1  0.5441680000000  0.5627020000000  0.5551750000000 1.0
C      1  0.4571200000000  0.5673360000000  0.5642930000000 1.0
C      1  0.4245090000000  0.5705380000000  0.4805130000000 1.0
C      1  0.4999200000000  0.5653330000000  0.4088280000000 1.0
C      1  0.5653000000000  0.4319780000000  0.4650190000000 1.0
C      1  0.5484270000000  0.4398810000000  0.5535560000000 1.0
C      1  0.4614010000000  0.4338750000000  0.5635460000000 1.0
C      1  0.4272800000000  0.4382030000000  0.4781130000000 1.0
C      1  0.5031680000000  0.4318210000000  0.4140570000000 1.0
C      1  0.5624010000000  0.5120500000000  0.5011780000000 1.0
C      1  0.5239000000000  0.5277940000000  0.5563900000000 1.0
C      1  0.4542910000000  0.5195270000000  0.5417620000000 1.0
C      1  0.4474040000000  0.5213230000000  0.4554310000000 1.0
C      1  0.5137080000000  0.5288100000000  0.4507600000000 1.0
C      1  0.5507480000000  0.4815480000000  0.5054160000000 1.0
C      1  0.5248010000000  0.4753220000000  0.5563590000000 1.0
C      1  0.4620150000000  0.4744100000000  0.5327900000000 1.0
C      1  0.4506110000000  0.4719880000000  0.4674590000000 1.0
C      1  0.5185960000000  0.4735390000000  0.4494280000000 1.0
C      1  0.5525640000000  0.4722870000000  0.5441220000000 1.0
C      1  0.4851380000000  0.4833440000000  0.5534280000000 1.0
C      1  0.4446490000000  0.4886770000000  0.4928570000000 1.0
C      1  0.4898530000000  0.4664050000000  0.4446760000000 1.0
C      1  0.5471100000000  0.4881210000000  0.4732940000000 1.0
C      1  0.5526440000000  0.5322780000000  0.5439410000000 1.0
C      1  0.4839520000000  0.5172810000000  0.5506760000000 1.0
C      1  0.4402430000000  0.5195430000000  0.4866810000000 1.0
C      1  0.4847700000000  0.5329980000000  0.4418340000000 1.0
C      1  0.5427340000000  0.5198750000000  0.4766240000000 1.0
C      1  0.5350330000000  0.5401510000000  0.4286820000000 1.0
C      1  0.5784930000000  0.5374680000000  0.5125700000000 1.0
C      1  0.5173160000000  0.5487350000000  0.5810710000000 1.0
C      1  0.4315650000000  0.5407070000000  0.5437280000000 1.0
C      1  0.4386560000000  0.5487520000000  0.4396070000000 1.0
C      1  0.5387040000000  0.4624920000000  0.4266820000000 1.0
C      1  0.5752720000000  0.4614670000000  0.5070360000000 1.0
C      1  0.5213100000000  0.4530060000000  0.5797480000000 1.0
C      1  0.4280760000000  0.4639940000000  0.5425690000000 1.0
C      1  0.4334830000000  0.4566180000000  0.4426910000000 1.0
C      1  0.5486260000000  0.4347500000000  0.4367320000000 1.0
C      1  0.5656590000000  0.4296420000000  0.5048800000000 1.0
C      1  0.5129360000000  0.4267740000000  0.5658990000000 1.0
C      1  0.4312110000000  0.4364520000000  0.5304190000000 1.0
C      1  0.4552280000000  0.4314530000000  0.4499490000000 1.0
C      1  0.5407610000000  0.5694610000000  0.4378000000000 1.0
C      1  0.5606500000000  0.5631290000000  0.5109960000000 1.0
C      1  0.5084490000000  0.5750300000000  0.5678910000000 1.0
C      1  0.4337620000000  0.5683610000000  0.5319480000000 1.0
C      1  0.4524680000000  0.5772990000000  0.4451510000000 1.0
C      1  0.5313090000000  0.4341320000000  0.4654770000000 1.0
C      1  0.5442370000000  0.4409100000000  0.5215730000000 1.0
C      1  0.4873490000000  0.4318170000000  0.5477780000000 1.0
C      1  0.4473310000000  0.4402650000000  0.5052070000000 1.0
C      1  0.4781670000000  0.4247510000000  0.4718340000000 1.0
C      1  0.5328540000000  0.5726630000000  0.4707210000000 1.0
C      1  0.5330480000000  0.5605960000000  0.5238870000000 1.0
C      1  0.4832110000000  0.5700300000000  0.5489240000000 1.0
C      1  0.4457090000000  0.5666660000000  0.5052530000000 1.0
C      1  0.4773130000000  0.5785840000000  0.4682060000000 1.0
C      1  0.5865760000000  0.5311700000000  0.5426430000000 1.0
C      1  0.4922350000000  0.5298240000000  0.5806790000000 1.0
C      1  0.4204140000000  0.5294030000000  0.5141020000000 1.0
C      1  0.4595540000000  0.5316150000000  0.4190690000000 1.0
C      1  0.5528150000000  0.5206470000000  0.4450500000000 1.0
C      1  0.5839540000000  0.4768870000000  0.5360950000000 1.0
C      1  0.4958830000000  0.4723920000000  0.5837840000000 1.0
C      1  0.4201590000000  0.4835490000000  0.5159040000000 1.0
C      1  0.4616020000000  0.4707010000000  0.4293480000000 1.0
C      1  0.5656150000000  0.4788200000000  0.4277390000000 1.0
C      1  0.4446150000000  0.4984230000000  0.5314490000000 1.0
C      1  0.5195090000000  0.5014190000000  0.5629370000000 1.0
C      1  0.5872730000000  0.4986120000000  0.5154230000000 1.0
C      1  0.4456370000000  0.4946770000000  0.4441230000000 1.0
C      1  0.5180600000000  0.5012730000000  0.4490080000000 1.0
C      1  0.4825080000000  0.5320300000000  0.5086240000000 1.0
C      1  0.4957640000000  0.4823620000000  0.5048380000000 1.0
END
