TITL C-2622955-8511-50 -0.00181793797669672 125000 -360.939763727495 0 0 62 (C1) n - 1
REM
REM in /nfs/bkarasulu/CARBON/AIRSS/Generating-Clusters/AIREBO/with-SteepDescent/Higher-Symm/SD-CG/HFTN-CG
REM
REM
REM
REM
REM
REM ./C.cell (b20cbc046b6831c77cfcea5457e17084)
REM
REM compiler GCC version 9.2.1 20190827 (Red Hat 9.2.1-1)
REM options -cpp -mtune=generic -march=x86-64 -g -O0 -fpre-include=/usr/include/finclude/math-vector-fortran.h
REM seed 1110792084 1314004764 -1872625612 -1046915108 -390665352 1350428953 -1913448718 1745597141 -2140542657 980697199 -462047003 -433744030 76252045 -1433158561 1047364999 -1000119978 896602601 -2127873349 1903907998 1156947176 -155026370 1836991134 -459976852 1512166536 1485813012 2068998445 -1863002338 -368881888 -1660805957 -972577640 -1662504412 -2036792015 164488851
REM
CELL 1.54180   50.00000   50.00000   50.00000   90.00000   90.00000   90.00000
LATT -1
SFAC C  
C      1  0.5231090000000  0.4448530000000  0.5556270000000 1.0
C      1  0.5243850000000  0.4805390000000  0.4248460000000 1.0
C      1  0.5255990000000  0.5743590000000  0.5197440000000 1.0
C      1  0.4788370000000  0.5546800000000  0.5538630000000 1.0
C      1  0.4779730000000  0.5202680000000  0.4256900000000 1.0
C      1  0.4786710000000  0.4259730000000  0.5200430000000 1.0
C      1  0.4829400000000  0.4711960000000  0.5477210000000 1.0
C      1  0.4824800000000  0.4732730000000  0.4512410000000 1.0
C      1  0.4829810000000  0.5556600000000  0.5014040000000 1.0
C      1  0.5203190000000  0.5287820000000  0.5490760000000 1.0
C      1  0.5195030000000  0.5281540000000  0.4503610000000 1.0
C      1  0.5208380000000  0.4435870000000  0.5001180000000 1.0
C      1  0.4335450000000  0.4637390000000  0.5206870000000 1.0
C      1  0.4330500000000  0.5006860000000  0.4584120000000 1.0
C      1  0.4332000000000  0.5362680000000  0.5216130000000 1.0
C      1  0.5737580000000  0.5421880000000  0.5162170000000 1.0
C      1  0.5677730000000  0.5008730000000  0.4588740000000 1.0
C      1  0.5740290000000  0.4624200000000  0.5304180000000 1.0
C      1  0.5792330000000  0.5157220000000  0.5246430000000 1.0
C      1  0.5800120000000  0.4714780000000  0.5042840000000 1.0
C      1  0.5897060000000  0.5110960000000  0.4781760000000 1.0
C      1  0.4123280000000  0.4859280000000  0.5240580000000 1.0
C      1  0.4120880000000  0.5278160000000  0.5007330000000 1.0
C      1  0.4120710000000  0.4866550000000  0.4761620000000 1.0
C      1  0.5569660000000  0.5466660000000  0.4953770000000 1.0
C      1  0.5563660000000  0.4785880000000  0.5449470000000 1.0
C      1  0.5550640000000  0.4773260000000  0.4625330000000 1.0
C      1  0.4479010000000  0.4568270000000  0.4986210000000 1.0
C      1  0.4478690000000  0.5206550000000  0.5383990000000 1.0
C      1  0.4473640000000  0.5233160000000  0.4632320000000 1.0
C      1  0.5451880000000  0.5230060000000  0.5580620000000 1.0
C      1  0.5460870000000  0.4402720000000  0.4908270000000 1.0
C      1  0.5426530000000  0.5369480000000  0.4482010000000 1.0
C      1  0.4595670000000  0.4753420000000  0.5551760000000 1.0
C      1  0.4595220000000  0.5600710000000  0.4943500000000 1.0
C      1  0.4591030000000  0.4646990000000  0.4509320000000 1.0
C      1  0.4758540000000  0.4463610000000  0.5009260000000 1.0
C      1  0.4752100000000  0.5265840000000  0.4529070000000 1.0
C      1  0.4758690000000  0.5278860000000  0.5459920000000 1.0
C      1  0.5283990000000  0.5545480000000  0.4999180000000 1.0
C      1  0.5272840000000  0.4740150000000  0.4519390000000 1.0
C      1  0.5273800000000  0.4716270000000  0.5482210000000 1.0
C      1  0.5010430000000  0.4692030000000  0.5001390000000 1.0
C      1  0.5003100000000  0.5157340000000  0.4731290000000 1.0
C      1  0.5010760000000  0.5155190000000  0.5267950000000 1.0
C      1  0.5038000000000  0.5310610000000  0.5002150000000 1.0
C      1  0.5030350000000  0.4851420000000  0.4730250000000 1.0
C      1  0.5040250000000  0.4842520000000  0.5269420000000 1.0
C      1  0.4384520000000  0.5399760000000  0.4855390000000 1.0
C      1  0.4387590000000  0.4931100000000  0.5419720000000 1.0
C      1  0.4385220000000  0.4675540000000  0.4730730000000 1.0
C      1  0.5633400000000  0.4612850000000  0.4837420000000 1.0
C      1  0.5632980000000  0.5055800000000  0.5456710000000 1.0
C      1  0.5646400000000  0.5326280000000  0.4700130000000 1.0
C      1  0.4911970000000  0.4411600000000  0.4734040000000 1.0
C      1  0.4904890000000  0.5529290000000  0.4622320000000 1.0
C      1  0.4907400000000  0.5066940000000  0.5643940000000 1.0
C      1  0.5112350000000  0.5597700000000  0.4734190000000 1.0
C      1  0.5115930000000  0.4478560000000  0.4614640000000 1.0
C      1  0.5112630000000  0.4933150000000  0.5652000000000 1.0
C      1  0.4063650000000  0.5001240000000  0.5003540000000 1.0
C      1  0.5885120000000  0.4987630000000  0.5035790000000 1.0
END
