TITL C-2622968-4806-522 -0.0027998406167177 125000 -950.918803484771 0 0 175 (C1) n - 1
REM
REM in /nfs/bkarasulu/CARBON/AIRSS/Generating-Clusters/AIREBO/with-SteepDescent/Higher-Symm/SD-CG/HFTN-CG
REM
REM
REM
REM
REM
REM ./C.cell (b20cbc046b6831c77cfcea5457e17084)
REM
REM compiler GCC version 9.2.1 20190827 (Red Hat 9.2.1-1)
REM options -cpp -mtune=generic -march=x86-64 -g -O0 -fpre-include=/usr/include/finclude/math-vector-fortran.h
REM seed 437987207 1246244130 -519089299 -124370381 -801679482 -305368534 1740877762 -1614676994 1239147891 1072080148 -709311428 1066362574 -418843015 -358757790 1888499480 972604625 1705204362 -636400110 684858190 -1830269871 1187708183 88634638 1129065152 1503804403 1537045829 1184056960 -727185436 647533533 1751016346 1242045985 178427107 822072645 389348079
REM
CELL 1.54180   50.00000   50.00000   50.00000   90.00000   90.00000   90.00000
LATT -1
SFAC C  
C      1  0.5263160000000  0.3899960000000  0.5055290000000 1.0
C      1  0.5125630000000  0.3990160000000  0.5288260000000 1.0
C      1  0.4843920000000  0.4033810000000  0.5275760000000 1.0
C      1  0.4711480000000  0.3923770000000  0.5049950000000 1.0
C      1  0.4867990000000  0.3896250000000  0.4814250000000 1.0
C      1  0.5106250000000  0.3753100000000  0.4872020000000 1.0
C      1  0.4749510000000  0.6207120000000  0.5161360000000 1.0
C      1  0.4893350000000  0.6082150000000  0.5369930000000 1.0
C      1  0.5151080000000  0.6003470000000  0.5290980000000 1.0
C      1  0.5221490000000  0.5965480000000  0.5022090000000 1.0
C      1  0.5019020000000  0.5990500000000  0.4824840000000 1.0
C      1  0.4753150000000  0.6062550000000  0.4918870000000 1.0
C      1  0.5063380000000  0.5241830000000  0.6255570000000 1.0
C      1  0.3978590000000  0.5349710000000  0.5638910000000 1.0
C      1  0.3859450000000  0.5174120000000  0.4441570000000 1.0
C      1  0.4836100000000  0.5407450000000  0.3691010000000 1.0
C      1  0.6016990000000  0.5478080000000  0.4148540000000 1.0
C      1  0.6108110000000  0.5201750000000  0.5576260000000 1.0
C      1  0.4845370000000  0.4605180000000  0.6328570000000 1.0
C      1  0.6079240000000  0.4518200000000  0.5734390000000 1.0
C      1  0.6091920000000  0.4837990000000  0.4447330000000 1.0
C      1  0.5078660000000  0.4663360000000  0.3730310000000 1.0
C      1  0.3949780000000  0.4501990000000  0.4256840000000 1.0
C      1  0.3804470000000  0.4723050000000  0.5496670000000 1.0
C      1  0.4591190000000  0.5453930000000  0.5138980000000 1.0
C      1  0.4653120000000  0.5337790000000  0.4514600000000 1.0
C      1  0.5111500000000  0.5323950000000  0.4454000000000 1.0
C      1  0.5646460000000  0.5372060000000  0.4868660000000 1.0
C      1  0.5334830000000  0.5383150000000  0.5490870000000 1.0
C      1  0.4796260000000  0.5438050000000  0.5537780000000 1.0
C      1  0.5575130000000  0.4636580000000  0.5139480000000 1.0
C      1  0.5448140000000  0.4558330000000  0.4603610000000 1.0
C      1  0.4750840000000  0.4674240000000  0.4495980000000 1.0
C      1  0.4491770000000  0.4671930000000  0.4910880000000 1.0
C      1  0.4622470000000  0.4741970000000  0.5374720000000 1.0
C      1  0.5143200000000  0.4711690000000  0.5597680000000 1.0
C      1  0.5247540000000  0.5432820000000  0.4813390000000 1.0
C      1  0.5318790000000  0.5369170000000  0.5093750000000 1.0
C      1  0.5123520000000  0.5182950000000  0.5217350000000 1.0
C      1  0.4832920000000  0.5230990000000  0.5176580000000 1.0
C      1  0.4774550000000  0.5223940000000  0.4874410000000 1.0
C      1  0.5050010000000  0.5202690000000  0.4750070000000 1.0
C      1  0.4797380000000  0.4707560000000  0.4890260000000 1.0
C      1  0.4858470000000  0.4831970000000  0.5165600000000 1.0
C      1  0.5011540000000  0.4631690000000  0.5324870000000 1.0
C      1  0.5198520000000  0.4522760000000  0.5136060000000 1.0
C      1  0.5242970000000  0.4724960000000  0.4917940000000 1.0
C      1  0.5035320000000  0.4687800000000  0.4667950000000 1.0
C      1  0.5761740000000  0.4357650000000  0.5351610000000 1.0
C      1  0.5034400000000  0.4433040000000  0.5869650000000 1.0
C      1  0.4226420000000  0.4463610000000  0.5519990000000 1.0
C      1  0.4246440000000  0.4307110000000  0.4629260000000 1.0
C      1  0.5004660000000  0.4424410000000  0.4192580000000 1.0
C      1  0.5787480000000  0.4461500000000  0.4417350000000 1.0
C      1  0.4283120000000  0.5622510000000  0.5318380000000 1.0
C      1  0.4971830000000  0.5560710000000  0.5874330000000 1.0
C      1  0.5730230000000  0.5517860000000  0.5481700000000 1.0
C      1  0.5905280000000  0.5548850000000  0.4625190000000 1.0
C      1  0.4978100000000  0.5595420000000  0.4157250000000 1.0
C      1  0.4143870000000  0.5567310000000  0.4399390000000 1.0
C      1  0.5542070000000  0.5143690000000  0.5062110000000 1.0
C      1  0.5200460000000  0.5092860000000  0.5491750000000 1.0
C      1  0.4672360000000  0.5160900000000  0.5437900000000 1.0
C      1  0.4512670000000  0.5089960000000  0.4795190000000 1.0
C      1  0.4800320000000  0.5081190000000  0.4398540000000 1.0
C      1  0.5358670000000  0.5099230000000  0.4520980000000 1.0
C      1  0.4428170000000  0.4941820000000  0.5089390000000 1.0
C      1  0.4801940000000  0.4917510000000  0.5604070000000 1.0
C      1  0.5427310000000  0.4871120000000  0.5500260000000 1.0
C      1  0.5522730000000  0.4874130000000  0.4928760000000 1.0
C      1  0.5103670000000  0.4926950000000  0.4467590000000 1.0
C      1  0.4539560000000  0.4865970000000  0.4573490000000 1.0
C      1  0.5275830000000  0.4197570000000  0.4654530000000 1.0
C      1  0.5445670000000  0.4105290000000  0.4928160000000 1.0
C      1  0.5277570000000  0.4164230000000  0.5442310000000 1.0
C      1  0.4721790000000  0.4283750000000  0.5403660000000 1.0
C      1  0.4711650000000  0.4313420000000  0.4875280000000 1.0
C      1  0.4934100000000  0.4165970000000  0.4663610000000 1.0
C      1  0.4602040000000  0.5740420000000  0.4571340000000 1.0
C      1  0.4541450000000  0.5888760000000  0.4854100000000 1.0
C      1  0.4753200000000  0.5901300000000  0.5535420000000 1.0
C      1  0.5289910000000  0.5815670000000  0.5467740000000 1.0
C      1  0.5481060000000  0.5792350000000  0.4989970000000 1.0
C      1  0.5037300000000  0.5874490000000  0.4573550000000 1.0
C      1  0.5176570000000  0.5804470000000  0.4323400000000 1.0
C      1  0.5792400000000  0.5674850000000  0.4920160000000 1.0
C      1  0.5538210000000  0.5736970000000  0.5646800000000 1.0
C      1  0.4793920000000  0.5834450000000  0.5800640000000 1.0
C      1  0.4363670000000  0.5758470000000  0.5016660000000 1.0
C      1  0.4392220000000  0.5758710000000  0.4374360000000 1.0
C      1  0.4829740000000  0.4188510000000  0.4363900000000 1.0
C      1  0.4377410000000  0.4279620000000  0.4928160000000 1.0
C      1  0.4468980000000  0.4264150000000  0.5569080000000 1.0
C      1  0.5250430000000  0.4231430000000  0.5701420000000 1.0
C      1  0.5730460000000  0.4164380000000  0.5071320000000 1.0
C      1  0.5498640000000  0.4281180000000  0.4411650000000 1.0
C      1  0.4027980000000  0.4829170000000  0.4694980000000 1.0
C      1  0.4693210000000  0.4799020000000  0.3977740000000 1.0
C      1  0.5718880000000  0.4915700000000  0.4283580000000 1.0
C      1  0.5960020000000  0.4890510000000  0.5297370000000 1.0
C      1  0.5231950000000  0.4923220000000  0.6019890000000 1.0
C      1  0.4376400000000  0.4823170000000  0.5678910000000 1.0
C      1  0.5842240000000  0.5055320000000  0.4738830000000 1.0
C      1  0.5195620000000  0.5067830000000  0.4001810000000 1.0
C      1  0.4414720000000  0.5112840000000  0.4198580000000 1.0
C      1  0.4063120000000  0.5159260000000  0.5235880000000 1.0
C      1  0.4723610000000  0.5196880000000  0.5939220000000 1.0
C      1  0.5722540000000  0.5082090000000  0.5692480000000 1.0
C      1  0.6037730000000  0.5439140000000  0.4901080000000 1.0
C      1  0.5599750000000  0.5448350000000  0.5788640000000 1.0
C      1  0.4636010000000  0.5572270000000  0.5918680000000 1.0
C      1  0.4140860000000  0.5517730000000  0.5027820000000 1.0
C      1  0.4328990000000  0.5570120000000  0.4126610000000 1.0
C      1  0.5316830000000  0.5555860000000  0.4164120000000 1.0
C      1  0.4071480000000  0.4425120000000  0.4898140000000 1.0
C      1  0.4366140000000  0.4449410000000  0.5811300000000 1.0
C      1  0.5373790000000  0.4443430000000  0.5900110000000 1.0
C      1  0.5922250000000  0.4428270000000  0.5060260000000 1.0
C      1  0.5558230000000  0.4555140000000  0.4219300000000 1.0
C      1  0.4678110000000  0.4365710000000  0.4114700000000 1.0
C      1  0.5154670000000  0.5310880000000  0.5968150000000 1.0
C      1  0.4273850000000  0.5385520000000  0.5560340000000 1.0
C      1  0.4075460000000  0.5314150000000  0.4560820000000 1.0
C      1  0.4795190000000  0.5395120000000  0.3991880000000 1.0
C      1  0.5813020000000  0.5450470000000  0.4336980000000 1.0
C      1  0.5899010000000  0.5279460000000  0.5364280000000 1.0
C      1  0.4825240000000  0.4624270000000  0.6026610000000 1.0
C      1  0.5794490000000  0.4539800000000  0.5626480000000 1.0
C      1  0.5891630000000  0.4688620000000  0.4588050000000 1.0
C      1  0.5133830000000  0.4669480000000  0.4028940000000 1.0
C      1  0.4234800000000  0.4499900000000  0.4370710000000 1.0
C      1  0.4038950000000  0.4656120000000  0.5356890000000 1.0
C      1  0.5723370000000  0.4753280000000  0.5388340000000 1.0
C      1  0.5006720000000  0.4830640000000  0.5861430000000 1.0
C      1  0.4305830000000  0.4831550000000  0.5386940000000 1.0
C      1  0.4281650000000  0.4701470000000  0.4640640000000 1.0
C      1  0.4900890000000  0.4808710000000  0.4221550000000 1.0
C      1  0.5599680000000  0.4863170000000  0.4597700000000 1.0
C      1  0.4374660000000  0.5216200000000  0.5283110000000 1.0
C      1  0.4965030000000  0.5197680000000  0.5709300000000 1.0
C      1  0.5584180000000  0.5155530000000  0.5399320000000 1.0
C      1  0.5641450000000  0.5257860000000  0.4558530000000 1.0
C      1  0.4998900000000  0.5197900000000  0.4158730000000 1.0
C      1  0.4356800000000  0.5193520000000  0.4510830000000 1.0
C      1  0.4045820000000  0.5308620000000  0.4869190000000 1.0
C      1  0.4500860000000  0.5353320000000  0.4072120000000 1.0
C      1  0.5535340000000  0.5381180000000  0.4186300000000 1.0
C      1  0.6016880000000  0.5231120000000  0.5085670000000 1.0
C      1  0.5462980000000  0.5248660000000  0.5945530000000 1.0
C      1  0.4452960000000  0.5335920000000  0.5797230000000 1.0
C      1  0.6015140000000  0.4617930000000  0.4878310000000 1.0
C      1  0.5412260000000  0.4746740000000  0.4096040000000 1.0
C      1  0.4439370000000  0.4536970000000  0.4140430000000 1.0
C      1  0.3994410000000  0.4661100000000  0.5053100000000 1.0
C      1  0.4543740000000  0.4684820000000  0.5928930000000 1.0
C      1  0.5592310000000  0.4614150000000  0.5859400000000 1.0
C      1  0.5472350000000  0.5610520000000  0.4700020000000 1.0
C      1  0.5474810000000  0.5605820000000  0.5274380000000 1.0
C      1  0.5098570000000  0.5582010000000  0.5578340000000 1.0
C      1  0.4612920000000  0.5675770000000  0.5382390000000 1.0
C      1  0.4664560000000  0.5513350000000  0.4811020000000 1.0
C      1  0.4890160000000  0.5580160000000  0.4487710000000 1.0
C      1  0.4566220000000  0.4422900000000  0.4609520000000 1.0
C      1  0.4618240000000  0.4476400000000  0.5158900000000 1.0
C      1  0.4938900000000  0.4437010000000  0.5558860000000 1.0
C      1  0.5437910000000  0.4353230000000  0.5268040000000 1.0
C      1  0.5507370000000  0.4430480000000  0.4882230000000 1.0
C      1  0.5147750000000  0.4452420000000  0.4484470000000 1.0
C      1  0.5528110000000  0.4919960000000  0.5886650000000 1.0
C      1  0.4452960000000  0.5016630000000  0.5925620000000 1.0
C      1  0.5503450000000  0.5074480000000  0.4095670000000 1.0
C      1  0.6001710000000  0.4920970000000  0.4974650000000 1.0
C      1  0.3976320000000  0.4990100000000  0.4967260000000 1.0
C      1  0.4421030000000  0.4856030000000  0.4071590000000 1.0
C      1  0.5073500000000  0.4981710000000  0.4977210000000 1.0
END
