TITL C-2622953-3516-29 0.000899266301223592 125000 -707.583620842903 0 0 132 (C1) n - 1
REM
REM in /nfs/bkarasulu/CARBON/AIRSS/Generating-Clusters/AIREBO/with-SteepDescent/Higher-Symm/SD-CG/HFTN-CG
REM
REM
REM
REM
REM
REM ./C.cell (b20cbc046b6831c77cfcea5457e17084)
REM
REM compiler GCC version 9.2.1 20190827 (Red Hat 9.2.1-1)
REM options -cpp -mtune=generic -march=x86-64 -g -O0 -fpre-include=/usr/include/finclude/math-vector-fortran.h
REM seed 202668680 -1195961885 313719817 1647272043 585633681 -75804317 -1543870229 1097533244 -40340142 1936643672 -867495389 1508742043 -1445793793 1616003267 -1831493674 -1349289719 1614240321 -5018149 -784599910 624607340 -383488572 -1509470099 -226171745 430320878 -628504782 -442312299 1008721562 -1827284080 1661302731 -921041194 -1721982861 -1761223376 -1881914356
REM
CELL 1.54180   50.00000   50.00000   50.00000   90.00000   90.00000   90.00000
LATT -1
SFAC C  
C      1  0.4545860000000  0.5353850000000  0.4728290000000 1.0
C      1  0.4510420000000  0.5305500000000  0.5318380000000 1.0
C      1  0.4452270000000  0.4630330000000  0.5202380000000 1.0
C      1  0.4375300000000  0.4603830000000  0.4890930000000 1.0
C      1  0.5471150000000  0.5744010000000  0.4842800000000 1.0
C      1  0.5494660000000  0.5746750000000  0.5168050000000 1.0
C      1  0.4845240000000  0.4339190000000  0.5456910000000 1.0
C      1  0.4797550000000  0.4303700000000  0.4540940000000 1.0
C      1  0.5730380000000  0.5337580000000  0.4830310000000 1.0
C      1  0.5792100000000  0.5309670000000  0.5129040000000 1.0
C      1  0.5525560000000  0.5155870000000  0.5247670000000 1.0
C      1  0.5542900000000  0.5099460000000  0.4748160000000 1.0
C      1  0.4465420000000  0.4748750000000  0.4275180000000 1.0
C      1  0.4355680000000  0.4645900000000  0.5749350000000 1.0
C      1  0.5199220000000  0.5194710000000  0.4261700000000 1.0
C      1  0.5199430000000  0.5225880000000  0.5712550000000 1.0
C      1  0.5244090000000  0.4574830000000  0.5862230000000 1.0
C      1  0.5205220000000  0.4527420000000  0.4202670000000 1.0
C      1  0.4126860000000  0.4976350000000  0.4963800000000 1.0
C      1  0.4219190000000  0.4948270000000  0.5264720000000 1.0
C      1  0.5706880000000  0.4464020000000  0.5465830000000 1.0
C      1  0.5664020000000  0.4462230000000  0.4600580000000 1.0
C      1  0.4680580000000  0.4585010000000  0.4067720000000 1.0
C      1  0.4677390000000  0.4636390000000  0.5858970000000 1.0
C      1  0.5161020000000  0.5548880000000  0.5707980000000 1.0
C      1  0.5289760000000  0.5508610000000  0.4337920000000 1.0
C      1  0.4499390000000  0.5720800000000  0.5200880000000 1.0
C      1  0.4599160000000  0.5640510000000  0.4891600000000 1.0
C      1  0.5534580000000  0.5428570000000  0.5406770000000 1.0
C      1  0.5498190000000  0.5303260000000  0.4506980000000 1.0
C      1  0.4499820000000  0.4237600000000  0.4797260000000 1.0
C      1  0.4525310000000  0.4195370000000  0.5070710000000 1.0
C      1  0.4154160000000  0.4903780000000  0.5654730000000 1.0
C      1  0.4260460000000  0.4868140000000  0.4451890000000 1.0
C      1  0.4480850000000  0.4945960000000  0.5695840000000 1.0
C      1  0.4625880000000  0.5028620000000  0.4167750000000 1.0
C      1  0.5316490000000  0.5513920000000  0.4677330000000 1.0
C      1  0.5259500000000  0.5588090000000  0.5384150000000 1.0
C      1  0.5862890000000  0.5083590000000  0.5469240000000 1.0
C      1  0.5863110000000  0.5068330000000  0.4511780000000 1.0
C      1  0.5393330000000  0.4984340000000  0.4160540000000 1.0
C      1  0.5390350000000  0.5038230000000  0.5812820000000 1.0
C      1  0.4094830000000  0.5096770000000  0.4534920000000 1.0
C      1  0.4065930000000  0.5134290000000  0.5462880000000 1.0
C      1  0.5719820000000  0.4912990000000  0.5139750000000 1.0
C      1  0.5607400000000  0.4798250000000  0.4863190000000 1.0
C      1  0.5260340000000  0.4771580000000  0.4028100000000 1.0
C      1  0.5303190000000  0.4845260000000  0.5992970000000 1.0
C      1  0.4274700000000  0.5503950000000  0.4393320000000 1.0
C      1  0.4408260000000  0.5401170000000  0.5624840000000 1.0
C      1  0.5317130000000  0.4905320000000  0.4611500000000 1.0
C      1  0.5307330000000  0.4952800000000  0.5359900000000 1.0
C      1  0.5159120000000  0.4600260000000  0.5474400000000 1.0
C      1  0.5075780000000  0.4581500000000  0.4613460000000 1.0
C      1  0.4901370000000  0.4620110000000  0.4324090000000 1.0
C      1  0.4976200000000  0.4741580000000  0.5735240000000 1.0
C      1  0.5367430000000  0.4454260000000  0.4483130000000 1.0
C      1  0.5431230000000  0.4448550000000  0.5610680000000 1.0
C      1  0.5031860000000  0.5090330000000  0.4821100000000 1.0
C      1  0.4973530000000  0.5178240000000  0.5131530000000 1.0
C      1  0.4500210000000  0.5218760000000  0.5810800000000 1.0
C      1  0.4470750000000  0.5288340000000  0.4215860000000 1.0
C      1  0.5059090000000  0.5061850000000  0.4499740000000 1.0
C      1  0.5023100000000  0.5109890000000  0.5460920000000 1.0
C      1  0.4480820000000  0.4206070000000  0.5365310000000 1.0
C      1  0.4410130000000  0.4209310000000  0.4530000000000 1.0
C      1  0.4635720000000  0.4540590000000  0.4723490000000 1.0
C      1  0.4721090000000  0.4452210000000  0.5161180000000 1.0
C      1  0.4600240000000  0.5489390000000  0.4436520000000 1.0
C      1  0.4777880000000  0.5342190000000  0.5487300000000 1.0
C      1  0.5015500000000  0.5541810000000  0.4200500000000 1.0
C      1  0.4885670000000  0.5460040000000  0.5857060000000 1.0
C      1  0.5294780000000  0.4261400000000  0.5180890000000 1.0
C      1  0.5238220000000  0.4338250000000  0.4885490000000 1.0
C      1  0.4975610000000  0.5816230000000  0.5190330000000 1.0
C      1  0.4911030000000  0.5721460000000  0.4872890000000 1.0
C      1  0.4749700000000  0.5229330000000  0.5929530000000 1.0
C      1  0.4938520000000  0.5289560000000  0.4064450000000 1.0
C      1  0.5824120000000  0.4749330000000  0.5515890000000 1.0
C      1  0.5831030000000  0.4729190000000  0.4492230000000 1.0
C      1  0.5755940000000  0.4580880000000  0.5160000000000 1.0
C      1  0.5869780000000  0.4582740000000  0.4842920000000 1.0
C      1  0.5347580000000  0.4192930000000  0.5472470000000 1.0
C      1  0.5381340000000  0.4188040000000  0.4660700000000 1.0
C      1  0.5042050000000  0.4853670000000  0.3863190000000 1.0
C      1  0.5095620000000  0.4911300000000  0.6160630000000 1.0
C      1  0.5073910000000  0.5422160000000  0.4833330000000 1.0
C      1  0.5058980000000  0.5489990000000  0.5162130000000 1.0
C      1  0.4726910000000  0.5791440000000  0.5367810000000 1.0
C      1  0.4915140000000  0.5834760000000  0.4552260000000 1.0
C      1  0.4146770000000  0.5550210000000  0.4649920000000 1.0
C      1  0.4153600000000  0.5404300000000  0.5469430000000 1.0
C      1  0.4552340000000  0.4426420000000  0.4339770000000 1.0
C      1  0.4566380000000  0.4430610000000  0.5605870000000 1.0
C      1  0.5185830000000  0.5882480000000  0.4753180000000 1.0
C      1  0.5261830000000  0.5949960000000  0.5221830000000 1.0
C      1  0.4760830000000  0.4905630000000  0.5532660000000 1.0
C      1  0.4807600000000  0.4914560000000  0.4397740000000 1.0
C      1  0.4833920000000  0.4921120000000  0.5986910000000 1.0
C      1  0.4847450000000  0.5047260000000  0.3931020000000 1.0
C      1  0.4112960000000  0.4643830000000  0.5184340000000 1.0
C      1  0.4041020000000  0.4660570000000  0.4861420000000 1.0
C      1  0.5580130000000  0.4918800000000  0.4396200000000 1.0
C      1  0.5566820000000  0.4946100000000  0.5580570000000 1.0
C      1  0.5054120000000  0.4354170000000  0.5686610000000 1.0
C      1  0.4959090000000  0.4292570000000  0.4252940000000 1.0
C      1  0.4838610000000  0.4813730000000  0.4721020000000 1.0
C      1  0.4914580000000  0.4672250000000  0.5020820000000 1.0
C      1  0.5718870000000  0.5597910000000  0.4661110000000 1.0
C      1  0.5780770000000  0.5605450000000  0.5278220000000 1.0
C      1  0.4544340000000  0.4909850000000  0.5303010000000 1.0
C      1  0.4353820000000  0.4882950000000  0.4750340000000 1.0
C      1  0.4787290000000  0.5619320000000  0.5587630000000 1.0
C      1  0.4828020000000  0.5657300000000  0.4364070000000 1.0
C      1  0.4170200000000  0.5635960000000  0.5219260000000 1.0
C      1  0.4264420000000  0.5693880000000  0.4893600000000 1.0
C      1  0.6023100000000  0.5063750000000  0.5169820000000 1.0
C      1  0.5930690000000  0.5076280000000  0.4842600000000 1.0
C      1  0.5487250000000  0.5503150000000  0.5699170000000 1.0
C      1  0.5669140000000  0.5503830000000  0.4292080000000 1.0
C      1  0.5922050000000  0.5400680000000  0.5494680000000 1.0
C      1  0.5889350000000  0.5375590000000  0.4467830000000 1.0
C      1  0.4922720000000  0.4314790000000  0.4834660000000 1.0
C      1  0.4971190000000  0.4221670000000  0.5158300000000 1.0
C      1  0.4673010000000  0.5115350000000  0.5102850000000 1.0
C      1  0.4605230000000  0.5044710000000  0.4809700000000 1.0
C      1  0.5291260000000  0.4673160000000  0.4860120000000 1.0
C      1  0.5181140000000  0.4721080000000  0.5178510000000 1.0
C      1  0.5615940000000  0.4275450000000  0.5189980000000 1.0
C      1  0.5725340000000  0.4286540000000  0.4886750000000 1.0
C      1  0.4305480000000  0.5361940000000  0.5104460000000 1.0
C      1  0.4227950000000  0.5258400000000  0.4802850000000 1.0
END
