TITL C-2622957-9142-741 0.00291162731597969 125000 -703.667675156043 0 0 131 (C1) n - 1
REM
REM in /nfs/bkarasulu/CARBON/AIRSS/Generating-Clusters/AIREBO/with-SteepDescent/Higher-Symm/SD-CG/HFTN-CG
REM
REM
REM
REM
REM
REM ./C.cell (b20cbc046b6831c77cfcea5457e17084)
REM
REM compiler GCC version 9.2.1 20190827 (Red Hat 9.2.1-1)
REM options -cpp -mtune=generic -march=x86-64 -g -O0 -fpre-include=/usr/include/finclude/math-vector-fortran.h
REM seed -1350643445 905013173 551624770 285985309 1209719707 1887957149 -911342920 -554599651 1318567542 -207817641 -1053619587 -1047028882 83464964 2058947118 967729905 -493092566 796529030 -774132277 967309361 1884017404 -866818723 -1632158200 -1278769577 -1751269089 -390140391 -431963554 -274454946 378134853 1894174577 -43001923 99076231 -20404375 433727555
REM
CELL 1.54180   50.00000   50.00000   50.00000   90.00000   90.00000   90.00000
LATT -1
SFAC C  
C      1  0.5257040000000  0.4132510000000  0.5387490000000 1.0
C      1  0.5176540000000  0.5893400000000  0.5238750000000 1.0
C      1  0.5448270000000  0.4516930000000  0.4593710000000 1.0
C      1  0.4282030000000  0.5872270000000  0.5214280000000 1.0
C      1  0.5371730000000  0.5481400000000  0.4505400000000 1.0
C      1  0.4430220000000  0.5731360000000  0.4963230000000 1.0
C      1  0.4514030000000  0.5153510000000  0.5448680000000 1.0
C      1  0.4694490000000  0.5918850000000  0.4983930000000 1.0
C      1  0.5845290000000  0.5180000000000  0.4412470000000 1.0
C      1  0.5918780000000  0.5384140000000  0.4883870000000 1.0
C      1  0.5553270000000  0.5761220000000  0.4857760000000 1.0
C      1  0.5324190000000  0.5543270000000  0.4929170000000 1.0
C      1  0.5619560000000  0.5673290000000  0.5174900000000 1.0
C      1  0.4898270000000  0.5332890000000  0.5187150000000 1.0
C      1  0.4302880000000  0.4488010000000  0.5416090000000 1.0
C      1  0.5547930000000  0.4859870000000  0.5349660000000 1.0
C      1  0.5185750000000  0.4634900000000  0.4718320000000 1.0
C      1  0.4169850000000  0.4998720000000  0.4916170000000 1.0
C      1  0.5395910000000  0.4026530000000  0.5165250000000 1.0
C      1  0.5158190000000  0.4772840000000  0.5365490000000 1.0
C      1  0.4954390000000  0.4877070000000  0.4347230000000 1.0
C      1  0.4586870000000  0.4097530000000  0.5088370000000 1.0
C      1  0.4635380000000  0.5459220000000  0.5362300000000 1.0
C      1  0.4907050000000  0.5353730000000  0.5929980000000 1.0
C      1  0.4702130000000  0.5771240000000  0.5799630000000 1.0
C      1  0.4816500000000  0.5931870000000  0.4731220000000 1.0
C      1  0.4988400000000  0.4511180000000  0.5786930000000 1.0
C      1  0.5068030000000  0.5122940000000  0.4553970000000 1.0
C      1  0.4068700000000  0.4519190000000  0.5042080000000 1.0
C      1  0.4870940000000  0.3945500000000  0.5129380000000 1.0
C      1  0.5081750000000  0.5582550000000  0.5517650000000 1.0
C      1  0.5270100000000  0.4199310000000  0.4900810000000 1.0
C      1  0.5388180000000  0.5580060000000  0.5665060000000 1.0
C      1  0.5300950000000  0.5777490000000  0.4426580000000 1.0
C      1  0.4801570000000  0.5587440000000  0.4295680000000 1.0
C      1  0.4584490000000  0.5916890000000  0.5278450000000 1.0
C      1  0.5231680000000  0.5215500000000  0.4124730000000 1.0
C      1  0.5766210000000  0.4573270000000  0.4616120000000 1.0
C      1  0.5287440000000  0.4458170000000  0.5364450000000 1.0
C      1  0.5698460000000  0.4816810000000  0.4483600000000 1.0
C      1  0.5564710000000  0.5329120000000  0.5669220000000 1.0
C      1  0.4472360000000  0.4744020000000  0.4969890000000 1.0
C      1  0.4432120000000  0.5372620000000  0.5124370000000 1.0
C      1  0.5372480000000  0.4192970000000  0.4576600000000 1.0
C      1  0.5055540000000  0.5450140000000  0.4121990000000 1.0
C      1  0.5489570000000  0.5512240000000  0.4195650000000 1.0
C      1  0.4256720000000  0.4884160000000  0.4607870000000 1.0
C      1  0.4177120000000  0.5198100000000  0.5433430000000 1.0
C      1  0.4384730000000  0.5350380000000  0.4612410000000 1.0
C      1  0.5723370000000  0.5066740000000  0.4177460000000 1.0
C      1  0.5738280000000  0.4462730000000  0.5069950000000 1.0
C      1  0.4238730000000  0.5294210000000  0.4890850000000 1.0
C      1  0.4545660000000  0.4918820000000  0.4189170000000 1.0
C      1  0.5344930000000  0.5042880000000  0.4400380000000 1.0
C      1  0.5442880000000  0.5170430000000  0.5422710000000 1.0
C      1  0.4895470000000  0.4690330000000  0.5512740000000 1.0
C      1  0.5054400000000  0.4336650000000  0.4210840000000 1.0
C      1  0.5620260000000  0.4527640000000  0.5345030000000 1.0
C      1  0.4529620000000  0.4488210000000  0.5186650000000 1.0
C      1  0.5095630000000  0.4890470000000  0.6047430000000 1.0
C      1  0.5381460000000  0.5712890000000  0.5370000000000 1.0
C      1  0.5246600000000  0.4938420000000  0.4859130000000 1.0
C      1  0.4981630000000  0.4066930000000  0.5385500000000 1.0
C      1  0.5452860000000  0.4808340000000  0.5672030000000 1.0
C      1  0.4032730000000  0.4697510000000  0.4544670000000 1.0
C      1  0.4301800000000  0.4352280000000  0.4976100000000 1.0
C      1  0.5771360000000  0.5588890000000  0.4732840000000 1.0
C      1  0.4817170000000  0.4869680000000  0.5761150000000 1.0
C      1  0.5835770000000  0.5377150000000  0.5508000000000 1.0
C      1  0.4649310000000  0.4514300000000  0.5825140000000 1.0
C      1  0.5423430000000  0.5327760000000  0.5149440000000 1.0
C      1  0.4705020000000  0.4710860000000  0.4491300000000 1.0
C      1  0.4847010000000  0.4683220000000  0.6043890000000 1.0
C      1  0.4965240000000  0.5279300000000  0.5495910000000 1.0
C      1  0.4974440000000  0.4616380000000  0.4127710000000 1.0
C      1  0.4913600000000  0.4924570000000  0.4754540000000 1.0
C      1  0.5422000000000  0.5934370000000  0.4622370000000 1.0
C      1  0.4441620000000  0.4571440000000  0.5664960000000 1.0
C      1  0.5175370000000  0.5049570000000  0.5506590000000 1.0
C      1  0.5491680000000  0.4559280000000  0.4258940000000 1.0
C      1  0.4698220000000  0.4776860000000  0.4056980000000 1.0
C      1  0.4644010000000  0.4554310000000  0.4786910000000 1.0
C      1  0.4972310000000  0.4676700000000  0.4979790000000 1.0
C      1  0.4447760000000  0.5182160000000  0.5889080000000 1.0
C      1  0.5112150000000  0.5128830000000  0.5835810000000 1.0
C      1  0.4956560000000  0.4530170000000  0.4544550000000 1.0
C      1  0.5788850000000  0.4930170000000  0.4883900000000 1.0
C      1  0.5450150000000  0.4473550000000  0.4990340000000 1.0
C      1  0.4662320000000  0.5012760000000  0.5196460000000 1.0
C      1  0.4461060000000  0.4154130000000  0.4790320000000 1.0
C      1  0.4791410000000  0.4323190000000  0.4935720000000 1.0
C      1  0.5166180000000  0.5195350000000  0.5044070000000 1.0
C      1  0.4577040000000  0.4939710000000  0.4707800000000 1.0
C      1  0.4777010000000  0.4106880000000  0.4673770000000 1.0
C      1  0.5328640000000  0.4304570000000  0.4279910000000 1.0
C      1  0.5759810000000  0.5363480000000  0.5184250000000 1.0
C      1  0.5345740000000  0.4750650000000  0.5098940000000 1.0
C      1  0.5771980000000  0.5024010000000  0.5167760000000 1.0
C      1  0.4004570000000  0.5003680000000  0.5435010000000 1.0
C      1  0.4528130000000  0.5116120000000  0.4421080000000 1.0
C      1  0.4043600000000  0.4678200000000  0.5342840000000 1.0
C      1  0.4620900000000  0.5188710000000  0.4925430000000 1.0
C      1  0.4528820000000  0.5440630000000  0.4317970000000 1.0
C      1  0.5094520000000  0.5751780000000  0.4238590000000 1.0
C      1  0.4293330000000  0.4860870000000  0.5201880000000 1.0
C      1  0.4929850000000  0.5493580000000  0.4923190000000 1.0
C      1  0.4745500000000  0.4266840000000  0.5328570000000 1.0
C      1  0.5527520000000  0.5022720000000  0.4686650000000 1.0
C      1  0.4780720000000  0.5738970000000  0.5491750000000 1.0
C      1  0.5135960000000  0.5385180000000  0.4693410000000 1.0
C      1  0.5544740000000  0.5265470000000  0.4047830000000 1.0
C      1  0.5952660000000  0.5144280000000  0.4719770000000 1.0
C      1  0.5625680000000  0.5336950000000  0.4601130000000 1.0
C      1  0.4619140000000  0.5503190000000  0.4795800000000 1.0
C      1  0.4813820000000  0.5596910000000  0.5978810000000 1.0
C      1  0.5432830000000  0.5063570000000  0.5809230000000 1.0
C      1  0.4264760000000  0.5036410000000  0.5788100000000 1.0
C      1  0.4771580000000  0.4723160000000  0.5230580000000 1.0
C      1  0.5282520000000  0.4569060000000  0.5685880000000 1.0
C      1  0.4729250000000  0.5165650000000  0.5711830000000 1.0
C      1  0.5002730000000  0.3990560000000  0.4877000000000 1.0
C      1  0.4745830000000  0.5716140000000  0.4573460000000 1.0
C      1  0.4900590000000  0.4251430000000  0.4448610000000 1.0
C      1  0.5469900000000  0.4839910000000  0.4157900000000 1.0
C      1  0.5154610000000  0.4900690000000  0.4079680000000 1.0
C      1  0.5086680000000  0.5773880000000  0.4997710000000 1.0
C      1  0.4363680000000  0.4861060000000  0.5535510000000 1.0
C      1  0.5078720000000  0.4394680000000  0.5103140000000 1.0
C      1  0.3998140000000  0.4712640000000  0.4853430000000 1.0
C      1  0.5864560000000  0.4626050000000  0.4876580000000 1.0
C      1  0.4984850000000  0.5994710000000  0.5404460000000 1.0
END
