TITL C-2622958-629-131 0.00056349295882986 125000 -925.746232653335 0 0 173 (C1) n - 1
REM
REM in /nfs/bkarasulu/CARBON/AIRSS/Generating-Clusters/AIREBO/with-SteepDescent/Higher-Symm/SD-CG/HFTN-CG
REM
REM
REM
REM
REM
REM ./C.cell (b20cbc046b6831c77cfcea5457e17084)
REM
REM compiler GCC version 9.2.1 20190827 (Red Hat 9.2.1-1)
REM options -cpp -mtune=generic -march=x86-64 -g -O0 -fpre-include=/usr/include/finclude/math-vector-fortran.h
REM seed -1528171087 -1505704473 -1403092393 -453684229 1262738804 -427807142 1662849932 -1170877016 556290065 -1253602276 1294548824 923950431 -1136725010 -955066969 1825677156 -1925461989 -1452412011 716378748 932642213 2030844798 -809215325 -1858721837 -1419094841 296303467 1681294450 -714075301 -1676340935 1458255917 -1698832891 1807011844 1717888113 757182615 1609189797
REM
CELL 1.54180   50.00000   50.00000   50.00000   90.00000   90.00000   90.00000
LATT -1
SFAC C  
C      1  0.4859530000000  0.5450740000000  0.4996790000000 1.0
C      1  0.5183060000000  0.4557070000000  0.5037180000000 1.0
C      1  0.4885210000000  0.4455150000000  0.4993630000000 1.0
C      1  0.5188610000000  0.5368250000000  0.5019910000000 1.0
C      1  0.4604710000000  0.4827400000000  0.5052990000000 1.0
C      1  0.5604460000000  0.5139590000000  0.4932720000000 1.0
C      1  0.4447960000000  0.5088500000000  0.4964780000000 1.0
C      1  0.5515390000000  0.4845840000000  0.5037330000000 1.0
C      1  0.4546540000000  0.4720170000000  0.5592520000000 1.0
C      1  0.5509370000000  0.5261170000000  0.5685590000000 1.0
C      1  0.4579810000000  0.5281380000000  0.5528560000000 1.0
C      1  0.5481600000000  0.4745430000000  0.5603270000000 1.0
C      1  0.4816160000000  0.4675390000000  0.5994800000000 1.0
C      1  0.5110030000000  0.5339580000000  0.5917990000000 1.0
C      1  0.4816860000000  0.5362780000000  0.5968430000000 1.0
C      1  0.5107710000000  0.4642480000000  0.5926110000000 1.0
C      1  0.4893220000000  0.5785370000000  0.4946900000000 1.0
C      1  0.5128860000000  0.4043030000000  0.4926510000000 1.0
C      1  0.4822030000000  0.4121510000000  0.4976200000000 1.0
C      1  0.5133420000000  0.5971800000000  0.4825730000000 1.0
C      1  0.5340640000000  0.5768150000000  0.5615510000000 1.0
C      1  0.4659740000000  0.4263410000000  0.5757430000000 1.0
C      1  0.5330170000000  0.4206310000000  0.5699940000000 1.0
C      1  0.4711730000000  0.5752320000000  0.5674220000000 1.0
C      1  0.4090790000000  0.5613280000000  0.4724860000000 1.0
C      1  0.5921240000000  0.4385640000000  0.4646520000000 1.0
C      1  0.4130380000000  0.4341510000000  0.4586440000000 1.0
C      1  0.5821970000000  0.5669060000000  0.4734700000000 1.0
C      1  0.4853220000000  0.5579450000000  0.5430150000000 1.0
C      1  0.5162120000000  0.4361840000000  0.5477080000000 1.0
C      1  0.4854390000000  0.4374360000000  0.5517330000000 1.0
C      1  0.5165720000000  0.5555710000000  0.5437650000000 1.0
C      1  0.4839460000000  0.5261880000000  0.3966400000000 1.0
C      1  0.5191330000000  0.4848410000000  0.4016600000000 1.0
C      1  0.4866820000000  0.4925520000000  0.4009120000000 1.0
C      1  0.5162360000000  0.5212130000000  0.3997250000000 1.0
C      1  0.4795510000000  0.5339770000000  0.4294430000000 1.0
C      1  0.5172440000000  0.4789720000000  0.4351020000000 1.0
C      1  0.4769010000000  0.4780750000000  0.4297830000000 1.0
C      1  0.5190980000000  0.5295860000000  0.4325580000000 1.0
C      1  0.4855770000000  0.5235310000000  0.5228660000000 1.0
C      1  0.5164340000000  0.4803300000000  0.5270940000000 1.0
C      1  0.4853500000000  0.4910890000000  0.5203240000000 1.0
C      1  0.5177410000000  0.5132800000000  0.5269130000000 1.0
C      1  0.4822350000000  0.4005470000000  0.5664320000000 1.0
C      1  0.5161870000000  0.5954520000000  0.5423820000000 1.0
C      1  0.4884930000000  0.5971580000000  0.5480100000000 1.0
C      1  0.5123460000000  0.3980870000000  0.5586380000000 1.0
C      1  0.5326380000000  0.4853060000000  0.5876240000000 1.0
C      1  0.4638980000000  0.5171400000000  0.5845600000000 1.0
C      1  0.5340780000000  0.5124000000000  0.5911930000000 1.0
C      1  0.4663280000000  0.4883660000000  0.5861080000000 1.0
C      1  0.5774040000000  0.4483010000000  0.5533490000000 1.0
C      1  0.4283800000000  0.5450520000000  0.5553180000000 1.0
C      1  0.5765450000000  0.5463480000000  0.5634950000000 1.0
C      1  0.4252690000000  0.4548970000000  0.5603900000000 1.0
C      1  0.5808170000000  0.4796930000000  0.5656640000000 1.0
C      1  0.4139980000000  0.5165150000000  0.5665010000000 1.0
C      1  0.5790960000000  0.5124040000000  0.5612090000000 1.0
C      1  0.4188260000000  0.4881280000000  0.5636050000000 1.0
C      1  0.5369310000000  0.5157410000000  0.4550790000000 1.0
C      1  0.4537880000000  0.4854390000000  0.4511720000000 1.0
C      1  0.5457720000000  0.4849360000000  0.4526370000000 1.0
C      1  0.4539560000000  0.5169340000000  0.4432940000000 1.0
C      1  0.5617510000000  0.5825030000000  0.5096320000000 1.0
C      1  0.4434650000000  0.4178060000000  0.5042130000000 1.0
C      1  0.5533520000000  0.4202010000000  0.4975200000000 1.0
C      1  0.4382540000000  0.5842830000000  0.5120360000000 1.0
C      1  0.4892190000000  0.5830580000000  0.4314830000000 1.0
C      1  0.5154660000000  0.4065720000000  0.4604360000000 1.0
C      1  0.4926110000000  0.4286820000000  0.4561080000000 1.0
C      1  0.5141900000000  0.5862950000000  0.4532060000000 1.0
C      1  0.4536540000000  0.4850260000000  0.3979780000000 1.0
C      1  0.5472490000000  0.5140660000000  0.4088420000000 1.0
C      1  0.4537370000000  0.5152110000000  0.4002500000000 1.0
C      1  0.5502140000000  0.4832330000000  0.4106230000000 1.0
C      1  0.4188670000000  0.4874150000000  0.4314400000000 1.0
C      1  0.5861360000000  0.5060330000000  0.4331260000000 1.0
C      1  0.4156170000000  0.5186420000000  0.4357830000000 1.0
C      1  0.5884630000000  0.4813690000000  0.4218510000000 1.0
C      1  0.5257040000000  0.5568820000000  0.4772500000000 1.0
C      1  0.4482170000000  0.4473840000000  0.4731430000000 1.0
C      1  0.5380690000000  0.4497950000000  0.4754430000000 1.0
C      1  0.4468470000000  0.5493810000000  0.4704920000000 1.0
C      1  0.6004320000000  0.5609580000000  0.5518180000000 1.0
C      1  0.4033370000000  0.4492910000000  0.5382660000000 1.0
C      1  0.5944550000000  0.4461490000000  0.5308500000000 1.0
C      1  0.4075890000000  0.5515940000000  0.5313100000000 1.0
C      1  0.5976470000000  0.4796050000000  0.4855740000000 1.0
C      1  0.4051670000000  0.5094540000000  0.4857650000000 1.0
C      1  0.5976800000000  0.5094580000000  0.4795130000000 1.0
C      1  0.4061760000000  0.4812950000000  0.4827830000000 1.0
C      1  0.4226920000000  0.4748510000000  0.4599740000000 1.0
C      1  0.5703750000000  0.5176000000000  0.4609510000000 1.0
C      1  0.4298610000000  0.5136720000000  0.4662700000000 1.0
C      1  0.5663030000000  0.4779670000000  0.4769200000000 1.0
C      1  0.5652300000000  0.6027360000000  0.5345160000000 1.0
C      1  0.4359650000000  0.4130460000000  0.5371880000000 1.0
C      1  0.5623140000000  0.4112790000000  0.5295170000000 1.0
C      1  0.4335750000000  0.5930730000000  0.5419370000000 1.0
C      1  0.4740110000000  0.5626990000000  0.5954550000000 1.0
C      1  0.5246730000000  0.4355600000000  0.5966280000000 1.0
C      1  0.4688790000000  0.4430960000000  0.6014340000000 1.0
C      1  0.5254240000000  0.5632490000000  0.5894090000000 1.0
C      1  0.5642050000000  0.4592960000000  0.4281140000000 1.0
C      1  0.4346620000000  0.5320310000000  0.4118440000000 1.0
C      1  0.5681060000000  0.5282230000000  0.4226070000000 1.0
C      1  0.4367120000000  0.4708370000000  0.4138840000000 1.0
C      1  0.4759090000000  0.5919520000000  0.5226640000000 1.0
C      1  0.5126690000000  0.3999710000000  0.5254350000000 1.0
C      1  0.4803960000000  0.4015000000000  0.5355410000000 1.0
C      1  0.5225770000000  0.5882850000000  0.5140940000000 1.0
C      1  0.4963220000000  0.6265120000000  0.4813240000000 1.0
C      1  0.4800730000000  0.3836670000000  0.4828320000000 1.0
C      1  0.4979810000000  0.3798450000000  0.4648610000000 1.0
C      1  0.4747180000000  0.6066220000000  0.4856690000000 1.0
C      1  0.5893030000000  0.5727470000000  0.5270080000000 1.0
C      1  0.4131940000000  0.4270410000000  0.5162740000000 1.0
C      1  0.5849890000000  0.4242430000000  0.5093150000000 1.0
C      1  0.4101400000000  0.5728880000000  0.5048970000000 1.0
C      1  0.4802490000000  0.4570580000000  0.4702390000000 1.0
C      1  0.5055960000000  0.5533940000000  0.4527290000000 1.0
C      1  0.4754560000000  0.5449820000000  0.4613620000000 1.0
C      1  0.5117960000000  0.4662270000000  0.4657440000000 1.0
C      1  0.4732260000000  0.4897960000000  0.4762090000000 1.0
C      1  0.5186590000000  0.5131250000000  0.4792830000000 1.0
C      1  0.4869160000000  0.5189010000000  0.4777830000000 1.0
C      1  0.5233360000000  0.4855760000000  0.4882530000000 1.0
C      1  0.6009750000000  0.4460560000000  0.4916450000000 1.0
C      1  0.4253840000000  0.5436650000000  0.4965440000000 1.0
C      1  0.5897410000000  0.5556870000000  0.5000620000000 1.0
C      1  0.4176190000000  0.4433080000000  0.4876950000000 1.0
C      1  0.5160860000000  0.4456060000000  0.4286530000000 1.0
C      1  0.4695450000000  0.5655000000000  0.4255980000000 1.0
C      1  0.5377410000000  0.5539290000000  0.4228990000000 1.0
C      1  0.4837990000000  0.4491850000000  0.4311900000000 1.0
C      1  0.4411960000000  0.5739600000000  0.5603530000000 1.0
C      1  0.5604440000000  0.4255660000000  0.5547540000000 1.0
C      1  0.4382530000000  0.4270420000000  0.5628790000000 1.0
C      1  0.5637220000000  0.5759420000000  0.5526200000000 1.0
C      1  0.6099410000000  0.4695000000000  0.5145980000000 1.0
C      1  0.3993650000000  0.5262720000000  0.5101590000000 1.0
C      1  0.6016970000000  0.5270930000000  0.5018300000000 1.0
C      1  0.4063850000000  0.4658170000000  0.5095290000000 1.0
C      1  0.5418920000000  0.4345550000000  0.4340690000000 1.0
C      1  0.4418380000000  0.5605010000000  0.4205160000000 1.0
C      1  0.5432400000000  0.5729940000000  0.4451930000000 1.0
C      1  0.4613660000000  0.4261370000000  0.4422280000000 1.0
C      1  0.5913170000000  0.4868950000000  0.5333050000000 1.0
C      1  0.4189870000000  0.5133380000000  0.5330190000000 1.0
C      1  0.5891890000000  0.5195000000000  0.5302980000000 1.0
C      1  0.4260330000000  0.4810350000000  0.5304380000000 1.0
C      1  0.4451320000000  0.5318140000000  0.5215660000000 1.0
C      1  0.5611500000000  0.4779120000000  0.5310370000000 1.0
C      1  0.4525800000000  0.4604820000000  0.5273230000000 1.0
C      1  0.5648860000000  0.5369360000000  0.5137350000000 1.0
C      1  0.5285760000000  0.4292500000000  0.5186680000000 1.0
C      1  0.4622730000000  0.5609880000000  0.5181920000000 1.0
C      1  0.5389810000000  0.5587970000000  0.5183750000000 1.0
C      1  0.4687590000000  0.4308540000000  0.5228410000000 1.0
C      1  0.5509550000000  0.5758590000000  0.4781840000000 1.0
C      1  0.4512400000000  0.4141460000000  0.4724070000000 1.0
C      1  0.5447860000000  0.4194660000000  0.4645710000000 1.0
C      1  0.4486630000000  0.6064400000000  0.4928000000000 1.0
C      1  0.5676270000000  0.5495830000000  0.4490690000000 1.0
C      1  0.4371780000000  0.4504830000000  0.4411210000000 1.0
C      1  0.5675800000000  0.4519690000000  0.4586910000000 1.0
C      1  0.4246170000000  0.5497920000000  0.4460450000000 1.0
C      1  0.5153090000000  0.4663470000000  0.5572120000000 1.0
C      1  0.4881550000000  0.5124470000000  0.5537400000000 1.0
C      1  0.5187840000000  0.5272730000000  0.5575350000000 1.0
C      1  0.4850370000000  0.4808410000000  0.5517560000000 1.0
C      1  0.4958480000000  0.5052770000000  0.4376300000000 1.0
END
