TITL C-2622958-629-702 0.00489302703360746 125000 -544.297652483131 0 0 100 (C1) n - 1
REM
REM in /nfs/bkarasulu/CARBON/AIRSS/Generating-Clusters/AIREBO/with-SteepDescent/Higher-Symm/SD-CG/HFTN-CG
REM
REM
REM
REM
REM
REM ./C.cell (b20cbc046b6831c77cfcea5457e17084)
REM
REM compiler GCC version 9.2.1 20190827 (Red Hat 9.2.1-1)
REM options -cpp -mtune=generic -march=x86-64 -g -O0 -fpre-include=/usr/include/finclude/math-vector-fortran.h
REM seed 1791188535 -130070453 111491676 1941125641 684166038 -219793520 1345978551 -1012047280 -1092444912 815041849 1942364264 568677003 281011556 1878632832 -100558510 -756873006 -838119670 2118740209 -686020365 -1687760495 -19452918 -1163223939 -527222029 -1482531690 605271216 777703877 -1055871962 1334034006 -1183912697 1065963246 423851511 101089271 -122333799
REM
CELL 1.54180   50.00000   50.00000   50.00000   90.00000   90.00000   90.00000
LATT -1
SFAC C  
C      1  0.5672820000000  0.5509370000000  0.4837580000000 1.0
C      1  0.5746890000000  0.4661930000000  0.5026000000000 1.0
C      1  0.4297780000000  0.4464570000000  0.4885450000000 1.0
C      1  0.4344630000000  0.5568810000000  0.5116670000000 1.0
C      1  0.5709880000000  0.4876160000000  0.5363020000000 1.0
C      1  0.5650020000000  0.5136170000000  0.4388570000000 1.0
C      1  0.4380080000000  0.4789320000000  0.4367550000000 1.0
C      1  0.4239870000000  0.5092500000000  0.5418710000000 1.0
C      1  0.4836580000000  0.5086360000000  0.4024820000000 1.0
C      1  0.4668720000000  0.4938410000000  0.6035890000000 1.0
C      1  0.5310490000000  0.4986670000000  0.4003170000000 1.0
C      1  0.5172220000000  0.4943070000000  0.5923740000000 1.0
C      1  0.4861860000000  0.4092280000000  0.5151200000000 1.0
C      1  0.4630810000000  0.5932240000000  0.5020590000000 1.0
C      1  0.5357650000000  0.4053970000000  0.5077850000000 1.0
C      1  0.5114300000000  0.5903670000000  0.5012100000000 1.0
C      1  0.5463260000000  0.5272960000000  0.4963560000000 1.0
C      1  0.5445770000000  0.4664340000000  0.5151390000000 1.0
C      1  0.4596420000000  0.4607870000000  0.4849830000000 1.0
C      1  0.4606140000000  0.5378470000000  0.5171180000000 1.0
C      1  0.5393410000000  0.4938430000000  0.5345720000000 1.0
C      1  0.5520650000000  0.5100840000000  0.4701010000000 1.0
C      1  0.4535250000000  0.4879980000000  0.4655300000000 1.0
C      1  0.4550030000000  0.5192050000000  0.5436160000000 1.0
C      1  0.5375650000000  0.4281980000000  0.4905890000000 1.0
C      1  0.5344610000000  0.5782670000000  0.5165830000000 1.0
C      1  0.4575440000000  0.5835200000000  0.4735390000000 1.0
C      1  0.4573350000000  0.4179010000000  0.5274380000000 1.0
C      1  0.5394120000000  0.4828680000000  0.4218650000000 1.0
C      1  0.5429000000000  0.5160990000000  0.5870640000000 1.0
C      1  0.4592950000000  0.4834310000000  0.5789190000000 1.0
C      1  0.4641170000000  0.5212390000000  0.4194230000000 1.0
C      1  0.4841110000000  0.4308780000000  0.4687560000000 1.0
C      1  0.4862970000000  0.5630170000000  0.5343600000000 1.0
C      1  0.5164620000000  0.5538930000000  0.4758000000000 1.0
C      1  0.5067980000000  0.4375660000000  0.5343600000000 1.0
C      1  0.4880320000000  0.4688970000000  0.4338490000000 1.0
C      1  0.4945010000000  0.5202960000000  0.5722730000000 1.0
C      1  0.5223670000000  0.4621940000000  0.5519150000000 1.0
C      1  0.5134830000000  0.5310520000000  0.4329960000000 1.0
C      1  0.4907490000000  0.5340420000000  0.4872950000000 1.0
C      1  0.4875190000000  0.4713470000000  0.5114660000000 1.0
C      1  0.4992800000000  0.4580620000000  0.4824320000000 1.0
C      1  0.5000960000000  0.5354700000000  0.5199650000000 1.0
C      1  0.4971430000000  0.4818680000000  0.5400490000000 1.0
C      1  0.4954690000000  0.5170500000000  0.4582090000000 1.0
C      1  0.5027580000000  0.4839180000000  0.4606000000000 1.0
C      1  0.5057170000000  0.5147710000000  0.5404800000000 1.0
C      1  0.4956100000000  0.5831510000000  0.4467800000000 1.0
C      1  0.4803940000000  0.4394780000000  0.5513340000000 1.0
C      1  0.5103030000000  0.4289160000000  0.4512090000000 1.0
C      1  0.5178160000000  0.5591800000000  0.5465810000000 1.0
C      1  0.4850390000000  0.4528780000000  0.5796660000000 1.0
C      1  0.4929160000000  0.5544180000000  0.4353080000000 1.0
C      1  0.5165780000000  0.4545610000000  0.4372700000000 1.0
C      1  0.5165800000000  0.5408670000000  0.5702060000000 1.0
C      1  0.4593090000000  0.4583070000000  0.4394670000000 1.0
C      1  0.4303840000000  0.5388720000000  0.5563990000000 1.0
C      1  0.5427900000000  0.5352640000000  0.4405540000000 1.0
C      1  0.5552420000000  0.4625330000000  0.5531210000000 1.0
C      1  0.4519590000000  0.4376830000000  0.4622690000000 1.0
C      1  0.4530920000000  0.5590310000000  0.5408930000000 1.0
C      1  0.5703480000000  0.4487060000000  0.5285470000000 1.0
C      1  0.5441630000000  0.5500310000000  0.4635940000000 1.0
C      1  0.4828830000000  0.4802890000000  0.4046830000000 1.0
C      1  0.4902730000000  0.5079110000000  0.6018450000000 1.0
C      1  0.5102750000000  0.5173050000000  0.4062560000000 1.0
C      1  0.5092720000000  0.4664290000000  0.5798240000000 1.0
C      1  0.4837490000000  0.4040530000000  0.4844580000000 1.0
C      1  0.4877300000000  0.5880940000000  0.5165870000000 1.0
C      1  0.5151070000000  0.4069700000000  0.5257900000000 1.0
C      1  0.5080440000000  0.5826590000000  0.4727100000000 1.0
C      1  0.5462380000000  0.5357880000000  0.5617350000000 1.0
C      1  0.5496310000000  0.4592250000000  0.4440770000000 1.0
C      1  0.4524920000000  0.4557180000000  0.5704750000000 1.0
C      1  0.4602880000000  0.5465440000000  0.4413210000000 1.0
C      1  0.5495810000000  0.5543190000000  0.5351080000000 1.0
C      1  0.5378900000000  0.4336030000000  0.4633760000000 1.0
C      1  0.4648320000000  0.5790830000000  0.4476110000000 1.0
C      1  0.4497260000000  0.4472790000000  0.5387450000000 1.0
C      1  0.5273540000000  0.5007470000000  0.5610100000000 1.0
C      1  0.5314210000000  0.4942710000000  0.4487120000000 1.0
C      1  0.4732890000000  0.4992810000000  0.5569150000000 1.0
C      1  0.4684830000000  0.5078700000000  0.4461430000000 1.0
C      1  0.5237910000000  0.5485130000000  0.5052870000000 1.0
C      1  0.5210470000000  0.4501910000000  0.5063930000000 1.0
C      1  0.4700400000000  0.5601290000000  0.4941620000000 1.0
C      1  0.4742690000000  0.4402670000000  0.5080080000000 1.0
C      1  0.5722200000000  0.5379090000000  0.5156690000000 1.0
C      1  0.5823540000000  0.4885700000000  0.4860650000000 1.0
C      1  0.4362850000000  0.4647570000000  0.5170010000000 1.0
C      1  0.4250440000000  0.5467340000000  0.4872940000000 1.0
C      1  0.5786310000000  0.5046260000000  0.5128010000000 1.0
C      1  0.5692220000000  0.4843210000000  0.4560260000000 1.0
C      1  0.4447610000000  0.5367830000000  0.4699510000000 1.0
C      1  0.4165930000000  0.4866660000000  0.5299950000000 1.0
C      1  0.5169990000000  0.4908600000000  0.4903920000000 1.0
C      1  0.4629280000000  0.5145970000000  0.4850360000000 1.0
C      1  0.4587430000000  0.4873490000000  0.5049880000000 1.0
C      1  0.5320270000000  0.5035330000000  0.5074210000000 1.0
END
