TITL C-2622955-8511-12 -0.00128232902222667 125000 -798.955321638414 0 0 150 (C1) n - 1
REM
REM in /nfs/bkarasulu/CARBON/AIRSS/Generating-Clusters/AIREBO/with-SteepDescent/Higher-Symm/SD-CG/HFTN-CG
REM
REM
REM
REM
REM
REM ./C.cell (b20cbc046b6831c77cfcea5457e17084)
REM
REM compiler GCC version 9.2.1 20190827 (Red Hat 9.2.1-1)
REM options -cpp -mtune=generic -march=x86-64 -g -O0 -fpre-include=/usr/include/finclude/math-vector-fortran.h
REM seed 1949249716 1020076766 133766699 -598838622 -335920416 553856129 -1332017128 -15075727 -1571853808 -212799576 -2142220748 929451512 -1598287519 894568019 -898285252 1316661453 846498727 1712440673 1509908235 -48314684 1175381550 -745133458 396538527 -1346686350 137888587 1294444911 -553945995 -642198003 1160220209 1649475146 1021180875 1077559812 1336109217
REM
CELL 1.54180   50.00000   50.00000   50.00000   90.00000   90.00000   90.00000
LATT -1
SFAC C  
C      1  0.4529120000000  0.4751770000000  0.4718210000000 1.0
C      1  0.5562160000000  0.5198030000000  0.5320320000000 1.0
C      1  0.5194420000000  0.4443410000000  0.4187190000000 1.0
C      1  0.4771670000000  0.5535950000000  0.5724200000000 1.0
C      1  0.4004840000000  0.5140070000000  0.4976660000000 1.0
C      1  0.6043560000000  0.4800720000000  0.4948960000000 1.0
C      1  0.4568030000000  0.5761560000000  0.5598770000000 1.0
C      1  0.5412290000000  0.4218220000000  0.4319300000000 1.0
C      1  0.5586980000000  0.5315790000000  0.4230850000000 1.0
C      1  0.4350160000000  0.4752510000000  0.5794330000000 1.0
C      1  0.5600900000000  0.5483780000000  0.5304160000000 1.0
C      1  0.4367840000000  0.4487780000000  0.4750330000000 1.0
C      1  0.4919710000000  0.4526070000000  0.4708220000000 1.0
C      1  0.5018880000000  0.5399940000000  0.5378170000000 1.0
C      1  0.5497340000000  0.4516240000000  0.4443070000000 1.0
C      1  0.4465060000000  0.5467510000000  0.5476840000000 1.0
C      1  0.6106740000000  0.5070660000000  0.5013630000000 1.0
C      1  0.3952720000000  0.4862160000000  0.4970370000000 1.0
C      1  0.4743640000000  0.4805480000000  0.4931780000000 1.0
C      1  0.5335080000000  0.5150890000000  0.5085090000000 1.0
C      1  0.5041960000000  0.4236210000000  0.4951290000000 1.0
C      1  0.5000900000000  0.5739800000000  0.5117150000000 1.0
C      1  0.5379660000000  0.4811190000000  0.4684290000000 1.0
C      1  0.4638510000000  0.5071140000000  0.5238350000000 1.0
C      1  0.5813240000000  0.4472700000000  0.5226860000000 1.0
C      1  0.4188450000000  0.5542810000000  0.4628060000000 1.0
C      1  0.4420680000000  0.4180760000000  0.5281570000000 1.0
C      1  0.5637430000000  0.5794480000000  0.4762060000000 1.0
C      1  0.4426870000000  0.4951050000000  0.4173200000000 1.0
C      1  0.5592790000000  0.5047970000000  0.5868120000000 1.0
C      1  0.5842560000000  0.4205270000000  0.5272300000000 1.0
C      1  0.4161310000000  0.5864220000000  0.4621160000000 1.0
C      1  0.5934460000000  0.5167460000000  0.4503130000000 1.0
C      1  0.4030990000000  0.5022280000000  0.5393460000000 1.0
C      1  0.6059250000000  0.5102420000000  0.5287580000000 1.0
C      1  0.4072340000000  0.4773170000000  0.4729650000000 1.0
C      1  0.4427510000000  0.5638870000000  0.4426560000000 1.0
C      1  0.5366200000000  0.4355020000000  0.5638010000000 1.0
C      1  0.5414750000000  0.5255150000000  0.5852800000000 1.0
C      1  0.4551450000000  0.4719920000000  0.4215790000000 1.0
C      1  0.5952110000000  0.5240090000000  0.4841320000000 1.0
C      1  0.3984250000000  0.4698690000000  0.5256150000000 1.0
C      1  0.4429420000000  0.4301020000000  0.4519250000000 1.0
C      1  0.5448050000000  0.5629220000000  0.5484790000000 1.0
C      1  0.4371670000000  0.6002050000000  0.4583040000000 1.0
C      1  0.5652890000000  0.4048910000000  0.5394130000000 1.0
C      1  0.5629530000000  0.5581250000000  0.4253940000000 1.0
C      1  0.4429960000000  0.4436360000000  0.5697490000000 1.0
C      1  0.5257450000000  0.4493720000000  0.4685340000000 1.0
C      1  0.4708740000000  0.5382350000000  0.5273290000000 1.0
C      1  0.4657170000000  0.5849250000000  0.4565570000000 1.0
C      1  0.5406580000000  0.4164810000000  0.5445380000000 1.0
C      1  0.5560310000000  0.4239660000000  0.4630590000000 1.0
C      1  0.4494630000000  0.5732640000000  0.5266040000000 1.0
C      1  0.5252000000000  0.5055130000000  0.5549370000000 1.0
C      1  0.4853550000000  0.4972500000000  0.4473730000000 1.0
C      1  0.5062760000000  0.5082000000000  0.5276730000000 1.0
C      1  0.4989440000000  0.4836670000000  0.4730510000000 1.0
C      1  0.5761660000000  0.5046070000000  0.4252090000000 1.0
C      1  0.4130270000000  0.4999610000000  0.5715470000000 1.0
C      1  0.5290480000000  0.5851600000000  0.5381330000000 1.0
C      1  0.4676790000000  0.4165110000000  0.4604490000000 1.0
C      1  0.4844610000000  0.4928190000000  0.6110380000000 1.0
C      1  0.5107240000000  0.5184730000000  0.3825270000000 1.0
C      1  0.4907710000000  0.4359540000000  0.4209350000000 1.0
C      1  0.5033520000000  0.5661030000000  0.5731210000000 1.0
C      1  0.5143510000000  0.4752170000000  0.5295820000000 1.0
C      1  0.4887360000000  0.5262120000000  0.4746610000000 1.0
C      1  0.5552420000000  0.4663530000000  0.5130140000000 1.0
C      1  0.4460640000000  0.5423190000000  0.4765110000000 1.0
C      1  0.5838460000000  0.4748870000000  0.4705990000000 1.0
C      1  0.4221820000000  0.5223660000000  0.5196780000000 1.0
C      1  0.4594460000000  0.4237470000000  0.5496620000000 1.0
C      1  0.5557960000000  0.5773160000000  0.4476420000000 1.0
C      1  0.4704660000000  0.5909350000000  0.5135420000000 1.0
C      1  0.5368990000000  0.4165460000000  0.4884030000000 1.0
C      1  0.5194120000000  0.5268600000000  0.4599140000000 1.0
C      1  0.4805700000000  0.4717110000000  0.5315650000000 1.0
C      1  0.4482830000000  0.5198050000000  0.4292020000000 1.0
C      1  0.5550670000000  0.4785670000000  0.5742850000000 1.0
C      1  0.5077930000000  0.5204410000000  0.5800350000000 1.0
C      1  0.4897340000000  0.4691270000000  0.4287710000000 1.0
C      1  0.5406760000000  0.5288120000000  0.3881800000000 1.0
C      1  0.4525470000000  0.4827190000000  0.6063640000000 1.0
C      1  0.5328320000000  0.5809380000000  0.5057300000000 1.0
C      1  0.4705790000000  0.4205910000000  0.4909350000000 1.0
C      1  0.4912540000000  0.4299410000000  0.5393720000000 1.0
C      1  0.5190580000000  0.5553230000000  0.4785140000000 1.0
C      1  0.5607970000000  0.5160500000000  0.4597880000000 1.0
C      1  0.4315950000000  0.4861410000000  0.5393690000000 1.0
C      1  0.5283600000000  0.5207230000000  0.4188350000000 1.0
C      1  0.4692070000000  0.4725070000000  0.5785380000000 1.0
C      1  0.5623130000000  0.5239430000000  0.4927360000000 1.0
C      1  0.4292180000000  0.4675180000000  0.5110070000000 1.0
C      1  0.4683010000000  0.5525450000000  0.4981370000000 1.0
C      1  0.5354950000000  0.4470080000000  0.5010590000000 1.0
C      1  0.5244470000000  0.5446020000000  0.5628560000000 1.0
C      1  0.4662260000000  0.4547060000000  0.4486990000000 1.0
C      1  0.4865580000000  0.5428760000000  0.4455970000000 1.0
C      1  0.5102500000000  0.4532570000000  0.5552560000000 1.0
C      1  0.4724260000000  0.6182150000000  0.5307490000000 1.0
C      1  0.5200640000000  0.3928540000000  0.4752540000000 1.0
C      1  0.5054520000000  0.5885250000000  0.5548810000000 1.0
C      1  0.4888250000000  0.4191610000000  0.4433150000000 1.0
C      1  0.4812160000000  0.5683660000000  0.4333360000000 1.0
C      1  0.4914260000000  0.4521240000000  0.5835570000000 1.0
C      1  0.4294330000000  0.5281480000000  0.5614460000000 1.0
C      1  0.5708860000000  0.4743880000000  0.4398880000000 1.0
C      1  0.4612370000000  0.5157110000000  0.6072060000000 1.0
C      1  0.5359670000000  0.4962620000000  0.3883540000000 1.0
C      1  0.4435990000000  0.4375730000000  0.5034760000000 1.0
C      1  0.5564180000000  0.5570850000000  0.4999860000000 1.0
C      1  0.5150010000000  0.5877380000000  0.4775870000000 1.0
C      1  0.4791160000000  0.4059710000000  0.5198040000000 1.0
C      1  0.5515700000000  0.4859360000000  0.4142320000000 1.0
C      1  0.4386790000000  0.5145040000000  0.5864860000000 1.0
C      1  0.4914770000000  0.4536320000000  0.5048690000000 1.0
C      1  0.5166560000000  0.5445430000000  0.5077770000000 1.0
C      1  0.5213140000000  0.4261010000000  0.5238310000000 1.0
C      1  0.4820640000000  0.5799840000000  0.4835010000000 1.0
C      1  0.4326920000000  0.4997700000000  0.4708950000000 1.0
C      1  0.5764940000000  0.4965940000000  0.5356330000000 1.0
C      1  0.5462150000000  0.4823130000000  0.5416580000000 1.0
C      1  0.4599650000000  0.5164820000000  0.4593190000000 1.0
C      1  0.5938240000000  0.4730420000000  0.5206070000000 1.0
C      1  0.4103320000000  0.5253970000000  0.4708670000000 1.0
C      1  0.4969470000000  0.5194520000000  0.4277880000000 1.0
C      1  0.5153770000000  0.4818990000000  0.5728630000000 1.0
C      1  0.5198120000000  0.4550280000000  0.6019130000000 1.0
C      1  0.4743530000000  0.5537630000000  0.4053240000000 1.0
C      1  0.5805870000000  0.5455300000000  0.4636150000000 1.0
C      1  0.4202200000000  0.4560540000000  0.5477690000000 1.0
C      1  0.4915030000000  0.5307490000000  0.3990020000000 1.0
C      1  0.5075050000000  0.4835980000000  0.6020500000000 1.0
C      1  0.5268290000000  0.4995330000000  0.4453940000000 1.0
C      1  0.4719640000000  0.4958710000000  0.5539430000000 1.0
C      1  0.5164120000000  0.4197170000000  0.4547350000000 1.0
C      1  0.4794270000000  0.5990320000000  0.5516260000000 1.0
C      1  0.5438950000000  0.4540800000000  0.5850280000000 1.0
C      1  0.4497300000000  0.5466770000000  0.4218120000000 1.0
C      1  0.5467860000000  0.5470320000000  0.4602040000000 1.0
C      1  0.4532950000000  0.4625280000000  0.5429560000000 1.0
C      1  0.4392310000000  0.4990400000000  0.5030900000000 1.0
C      1  0.5617030000000  0.4899930000000  0.4905220000000 1.0
C      1  0.4365300000000  0.5472010000000  0.5090120000000 1.0
C      1  0.5810650000000  0.4416520000000  0.4668120000000 1.0
C      1  0.4866250000000  0.5100540000000  0.5001960000000 1.0
C      1  0.5222080000000  0.4845660000000  0.4978360000000 1.0
C      1  0.5223530000000  0.4755720000000  0.4216610000000 1.0
C      1  0.4771710000000  0.5200910000000  0.5774870000000 1.0
END
