TITL C-2622953-3516-114 0.00330936372910682 125000 -185.030031433341 0 0 35 (C1) n - 1
REM
REM in /nfs/bkarasulu/CARBON/AIRSS/Generating-Clusters/AIREBO/with-SteepDescent/Higher-Symm/SD-CG/HFTN-CG
REM
REM
REM
REM
REM
REM ./C.cell (b20cbc046b6831c77cfcea5457e17084)
REM
REM compiler GCC version 9.2.1 20190827 (Red Hat 9.2.1-1)
REM options -cpp -mtune=generic -march=x86-64 -g -O0 -fpre-include=/usr/include/finclude/math-vector-fortran.h
REM seed -190316964 -1525388948 1693470530 -1865420907 -708111261 -1101506863 -672141682 2077933619 828998911 1617324016 -283817810 2001843177 246939354 1173331777 375741036 -168715249 1813821118 -776110932 -268986216 -1996350489 305130873 -51694153 -975940436 -129140147 1008545902 -1076418255 2125393957 408865120 -750966038 236702226 1718844239 162376033 35071738
REM
CELL 1.54180   50.00000   50.00000   50.00000   90.00000   90.00000   90.00000
LATT -1
SFAC C  
C      1  0.4958990000000  0.4267220000000  0.5041560000000 1.0
C      1  0.4704860000000  0.5493350000000  0.5037640000000 1.0
C      1  0.4708770000000  0.4444710000000  0.4978630000000 1.0
C      1  0.4912590000000  0.5668550000000  0.5097280000000 1.0
C      1  0.5698690000000  0.4862600000000  0.4487760000000 1.0
C      1  0.4473920000000  0.5128980000000  0.4668610000000 1.0
C      1  0.4477460000000  0.4883120000000  0.4699530000000 1.0
C      1  0.5683010000000  0.5136630000000  0.4449010000000 1.0
C      1  0.4620560000000  0.4578890000000  0.5275060000000 1.0
C      1  0.5182270000000  0.5516520000000  0.5249960000000 1.0
C      1  0.5147380000000  0.4431570000000  0.5276430000000 1.0
C      1  0.4695380000000  0.5276560000000  0.5245650000000 1.0
C      1  0.4976990000000  0.4721980000000  0.4877920000000 1.0
C      1  0.5294730000000  0.5312360000000  0.4805140000000 1.0
C      1  0.5296700000000  0.4622590000000  0.4831180000000 1.0
C      1  0.4973370000000  0.5283280000000  0.4828880000000 1.0
C      1  0.4895730000000  0.4765750000000  0.5188050000000 1.0
C      1  0.5280520000000  0.5274400000000  0.5112690000000 1.0
C      1  0.5277550000000  0.4668050000000  0.5135380000000 1.0
C      1  0.4904730000000  0.5146370000000  0.5090720000000 1.0
C      1  0.4842780000000  0.5192860000000  0.4528740000000 1.0
C      1  0.5179650000000  0.4796820000000  0.4536560000000 1.0
C      1  0.5169910000000  0.5122270000000  0.4522140000000 1.0
C      1  0.4864480000000  0.4879940000000  0.4598640000000 1.0
C      1  0.4660550000000  0.5385910000000  0.4741190000000 1.0
C      1  0.5494380000000  0.4736490000000  0.4601100000000 1.0
C      1  0.5462550000000  0.5264760000000  0.4533710000000 1.0
C      1  0.4681750000000  0.4633160000000  0.4729240000000 1.0
C      1  0.4760020000000  0.5347440000000  0.5513680000000 1.0
C      1  0.5064550000000  0.4503210000000  0.5598310000000 1.0
C      1  0.4997100000000  0.5499820000000  0.5539090000000 1.0
C      1  0.4849690000000  0.4677320000000  0.5506170000000 1.0
C      1  0.4831670000000  0.4318860000000  0.5333580000000 1.0
C      1  0.5016630000000  0.5781440000000  0.5384110000000 1.0
C      1  0.5165240000000  0.4973050000000  0.5190410000000 1.0
END
