TITL C-2622960-5345-855 7.44981262895416e-05 125000 -1059.02236930613 0 0 195 (C1) n - 1
REM
REM in /nfs/bkarasulu/CARBON/AIRSS/Generating-Clusters/AIREBO/with-SteepDescent/Higher-Symm/SD-CG/HFTN-CG
REM
REM
REM
REM
REM
REM ./C.cell (b20cbc046b6831c77cfcea5457e17084)
REM
REM compiler GCC version 9.2.1 20190827 (Red Hat 9.2.1-1)
REM options -cpp -mtune=generic -march=x86-64 -g -O0 -fpre-include=/usr/include/finclude/math-vector-fortran.h
REM seed 1074298443 1982752134 1387869837 -1148028838 -1192139814 -838816763 -1625902647 -1354752374 566336568 709487011 610547724 -577832441 -1306238913 -1192626129 -1413474724 399784652 -1957337225 1310028767 -2005407125 876014036 -628823162 1557600541 -1498065917 106758585 678753742 -944360574 121815552 -1136260797 1641426845 -492077654 482358993 74236416 -32433313
REM
CELL 1.54180   50.00000   50.00000   50.00000   90.00000   90.00000   90.00000
LATT -1
SFAC C  
C      1  0.4928650000000  0.3905340000000  0.5449080000000 1.0
C      1  0.5025990000000  0.6130350000000  0.5382220000000 1.0
C      1  0.5313040000000  0.5968140000000  0.4580660000000 1.0
C      1  0.5409080000000  0.4033860000000  0.4633570000000 1.0
C      1  0.6014510000000  0.4896330000000  0.4709920000000 1.0
C      1  0.6057080000000  0.5184280000000  0.4623700000000 1.0
C      1  0.4387170000000  0.5076460000000  0.4227190000000 1.0
C      1  0.4302420000000  0.4766980000000  0.4311510000000 1.0
C      1  0.5831270000000  0.4340090000000  0.4842810000000 1.0
C      1  0.5776800000000  0.5739600000000  0.4745850000000 1.0
C      1  0.4959150000000  0.4363420000000  0.5868130000000 1.0
C      1  0.5143780000000  0.5827600000000  0.5889100000000 1.0
C      1  0.5655460000000  0.4366830000000  0.5255420000000 1.0
C      1  0.5584760000000  0.5596230000000  0.5237810000000 1.0
C      1  0.5985950000000  0.5055720000000  0.5378290000000 1.0
C      1  0.6013850000000  0.4722070000000  0.5320520000000 1.0
C      1  0.4180610000000  0.5218800000000  0.4438660000000 1.0
C      1  0.4026780000000  0.4630280000000  0.4382430000000 1.0
C      1  0.5298370000000  0.5177200000000  0.5758190000000 1.0
C      1  0.5398770000000  0.4801020000000  0.5668420000000 1.0
C      1  0.5241010000000  0.5139010000000  0.4455350000000 1.0
C      1  0.5095130000000  0.4843290000000  0.4465410000000 1.0
C      1  0.4080910000000  0.5037330000000  0.4634960000000 1.0
C      1  0.3907360000000  0.4780520000000  0.4593740000000 1.0
C      1  0.4547760000000  0.4833830000000  0.5111650000000 1.0
C      1  0.4391350000000  0.5129780000000  0.5171890000000 1.0
C      1  0.5812690000000  0.4101390000000  0.5157100000000 1.0
C      1  0.5713200000000  0.5888980000000  0.5110020000000 1.0
C      1  0.4465030000000  0.5540060000000  0.4889440000000 1.0
C      1  0.4399100000000  0.4587830000000  0.4771710000000 1.0
C      1  0.5669080000000  0.4858100000000  0.4512580000000 1.0
C      1  0.5574830000000  0.5125670000000  0.4433180000000 1.0
C      1  0.4786590000000  0.4543650000000  0.4048030000000 1.0
C      1  0.4576990000000  0.5346260000000  0.4003550000000 1.0
C      1  0.4847230000000  0.6102370000000  0.4924390000000 1.0
C      1  0.4825380000000  0.3876620000000  0.4940100000000 1.0
C      1  0.4983790000000  0.5369210000000  0.6043880000000 1.0
C      1  0.5063740000000  0.4657250000000  0.6004060000000 1.0
C      1  0.3937790000000  0.5260250000000  0.5240670000000 1.0
C      1  0.3992830000000  0.4924910000000  0.5252420000000 1.0
C      1  0.5246950000000  0.4923770000000  0.3841450000000 1.0
C      1  0.5151640000000  0.5153170000000  0.3868470000000 1.0
C      1  0.5360300000000  0.4127670000000  0.5372890000000 1.0
C      1  0.5418030000000  0.6069960000000  0.5417360000000 1.0
C      1  0.5534820000000  0.5570150000000  0.5632390000000 1.0
C      1  0.5425070000000  0.4388680000000  0.5580920000000 1.0
C      1  0.4301090000000  0.5572850000000  0.5470460000000 1.0
C      1  0.4244500000000  0.4539450000000  0.5335820000000 1.0
C      1  0.6021100000000  0.5236740000000  0.5588550000000 1.0
C      1  0.6038710000000  0.4740910000000  0.5647880000000 1.0
C      1  0.5096980000000  0.5647970000000  0.5348670000000 1.0
C      1  0.4997230000000  0.4607120000000  0.5239570000000 1.0
C      1  0.5748340000000  0.4388380000000  0.5648130000000 1.0
C      1  0.5851680000000  0.5523470000000  0.5546560000000 1.0
C      1  0.5105870000000  0.5375800000000  0.4329540000000 1.0
C      1  0.5245140000000  0.4593900000000  0.4299280000000 1.0
C      1  0.4892360000000  0.5547230000000  0.4531200000000 1.0
C      1  0.5027510000000  0.4395860000000  0.4422690000000 1.0
C      1  0.4631270000000  0.4801730000000  0.3888910000000 1.0
C      1  0.4456900000000  0.5046490000000  0.3895690000000 1.0
C      1  0.5847340000000  0.5309430000000  0.4449830000000 1.0
C      1  0.5925010000000  0.4700030000000  0.4478700000000 1.0
C      1  0.4543580000000  0.5790870000000  0.5105190000000 1.0
C      1  0.4496170000000  0.4158380000000  0.4883580000000 1.0
C      1  0.4804070000000  0.5688790000000  0.4245370000000 1.0
C      1  0.4826050000000  0.4222640000000  0.4282450000000 1.0
C      1  0.4742950000000  0.4872050000000  0.4651220000000 1.0
C      1  0.4804460000000  0.5190960000000  0.4759080000000 1.0
C      1  0.5722120000000  0.5251590000000  0.4915080000000 1.0
C      1  0.5739130000000  0.4909270000000  0.4902520000000 1.0
C      1  0.4816770000000  0.5591140000000  0.5070960000000 1.0
C      1  0.4952980000000  0.4395360000000  0.4849580000000 1.0
C      1  0.4914060000000  0.4197160000000  0.5572080000000 1.0
C      1  0.5175430000000  0.6056500000000  0.5658730000000 1.0
C      1  0.5342500000000  0.6037890000000  0.5117230000000 1.0
C      1  0.5225940000000  0.4074750000000  0.5140080000000 1.0
C      1  0.4197270000000  0.4190830000000  0.5026390000000 1.0
C      1  0.4218460000000  0.5841550000000  0.5190870000000 1.0
C      1  0.4070390000000  0.4326200000000  0.4402670000000 1.0
C      1  0.4243620000000  0.5497330000000  0.4562230000000 1.0
C      1  0.4533540000000  0.5635520000000  0.4179020000000 1.0
C      1  0.4549890000000  0.4349580000000  0.4196090000000 1.0
C      1  0.5513740000000  0.4717820000000  0.4737930000000 1.0
C      1  0.5506890000000  0.5303960000000  0.4701680000000 1.0
C      1  0.4423430000000  0.5394370000000  0.5732760000000 1.0
C      1  0.4355960000000  0.4532710000000  0.5653560000000 1.0
C      1  0.5041800000000  0.5312320000000  0.5343870000000 1.0
C      1  0.4922010000000  0.4839990000000  0.5457990000000 1.0
C      1  0.4113610000000  0.4414430000000  0.4707550000000 1.0
C      1  0.4147570000000  0.5610870000000  0.4872150000000 1.0
C      1  0.5912620000000  0.5653190000000  0.5252360000000 1.0
C      1  0.5952540000000  0.4313930000000  0.5386590000000 1.0
C      1  0.5272470000000  0.4339550000000  0.5880800000000 1.0
C      1  0.5390360000000  0.5686090000000  0.5918160000000 1.0
C      1  0.4373070000000  0.5744520000000  0.4393310000000 1.0
C      1  0.4294320000000  0.4155500000000  0.4308660000000 1.0
C      1  0.4840930000000  0.5529810000000  0.3886230000000 1.0
C      1  0.5081640000000  0.4378810000000  0.4007140000000 1.0
C      1  0.5571090000000  0.4133480000000  0.4920010000000 1.0
C      1  0.5513010000000  0.5935630000000  0.4841420000000 1.0
C      1  0.4874280000000  0.4831320000000  0.4207140000000 1.0
C      1  0.4726570000000  0.5093300000000  0.4174710000000 1.0
C      1  0.4274910000000  0.4860580000000  0.5443310000000 1.0
C      1  0.4200140000000  0.5192270000000  0.5446030000000 1.0
C      1  0.4456170000000  0.4109930000000  0.5224150000000 1.0
C      1  0.4477060000000  0.5848920000000  0.5433660000000 1.0
C      1  0.5294810000000  0.4528600000000  0.5120620000000 1.0
C      1  0.5324920000000  0.5704690000000  0.5105710000000 1.0
C      1  0.3765660000000  0.4945490000000  0.4855590000000 1.0
C      1  0.3698370000000  0.5149040000000  0.5027780000000 1.0
C      1  0.5322060000000  0.5775190000000  0.5536400000000 1.0
C      1  0.5107580000000  0.4442330000000  0.5506450000000 1.0
C      1  0.4989690000000  0.5871670000000  0.4548060000000 1.0
C      1  0.5083120000000  0.4102490000000  0.4564210000000 1.0
C      1  0.4964590000000  0.5290840000000  0.4078370000000 1.0
C      1  0.5149300000000  0.4701780000000  0.4000950000000 1.0
C      1  0.5722090000000  0.4814050000000  0.5211620000000 1.0
C      1  0.5717660000000  0.5149320000000  0.5218700000000 1.0
C      1  0.4493760000000  0.5924580000000  0.4609160000000 1.0
C      1  0.4529120000000  0.4173660000000  0.4554120000000 1.0
C      1  0.4580740000000  0.5478960000000  0.4602860000000 1.0
C      1  0.4429840000000  0.4489290000000  0.4462750000000 1.0
C      1  0.5076570000000  0.5685420000000  0.4076320000000 1.0
C      1  0.5314400000000  0.4237850000000  0.4134440000000 1.0
C      1  0.4906580000000  0.4609420000000  0.4622210000000 1.0
C      1  0.4992000000000  0.5451380000000  0.4839140000000 1.0
C      1  0.4671800000000  0.4457400000000  0.5754540000000 1.0
C      1  0.4890310000000  0.5642020000000  0.5863280000000 1.0
C      1  0.4574690000000  0.5698880000000  0.5730010000000 1.0
C      1  0.4513380000000  0.4269310000000  0.5519030000000 1.0
C      1  0.4979670000000  0.5133870000000  0.5815490000000 1.0
C      1  0.5089270000000  0.4838020000000  0.5739750000000 1.0
C      1  0.6127990000000  0.5361410000000  0.4827270000000 1.0
C      1  0.6144830000000  0.4707950000000  0.4943720000000 1.0
C      1  0.3914820000000  0.4200600000000  0.4885920000000 1.0
C      1  0.4330700000000  0.5915860000000  0.4871260000000 1.0
C      1  0.5604380000000  0.5853660000000  0.4463850000000 1.0
C      1  0.5699980000000  0.4191810000000  0.4555420000000 1.0
C      1  0.5518410000000  0.4438180000000  0.4301330000000 1.0
C      1  0.5343680000000  0.5574060000000  0.4255120000000 1.0
C      1  0.4261760000000  0.5107350000000  0.5760660000000 1.0
C      1  0.4213910000000  0.4797540000000  0.5781290000000 1.0
C      1  0.5431340000000  0.5586730000000  0.4583920000000 1.0
C      1  0.5468000000000  0.4425820000000  0.4639850000000 1.0
C      1  0.5242830000000  0.4820150000000  0.4771170000000 1.0
C      1  0.5242760000000  0.5144010000000  0.4795380000000 1.0
C      1  0.5539940000000  0.5327340000000  0.5392240000000 1.0
C      1  0.5489660000000  0.4643010000000  0.5364250000000 1.0
C      1  0.5250070000000  0.4883990000000  0.5378440000000 1.0
C      1  0.5287100000000  0.5180550000000  0.5458800000000 1.0
C      1  0.4476780000000  0.5215250000000  0.6006920000000 1.0
C      1  0.4295520000000  0.4689410000000  0.6061980000000 1.0
C      1  0.4790050000000  0.4194640000000  0.5024310000000 1.0
C      1  0.4924870000000  0.5882510000000  0.5172510000000 1.0
C      1  0.5206780000000  0.5132120000000  0.6143700000000 1.0
C      1  0.5315140000000  0.4877710000000  0.6066330000000 1.0
C      1  0.4261980000000  0.5022660000000  0.4905380000000 1.0
C      1  0.4030750000000  0.4804670000000  0.4971620000000 1.0
C      1  0.5884520000000  0.5535100000000  0.4945110000000 1.0
C      1  0.6002540000000  0.4472220000000  0.5089670000000 1.0
C      1  0.4762390000000  0.6014560000000  0.4674800000000 1.0
C      1  0.4808420000000  0.4015620000000  0.4667910000000 1.0
C      1  0.5831340000000  0.4625070000000  0.5788110000000 1.0
C      1  0.5769490000000  0.5280750000000  0.5774050000000 1.0
C      1  0.5260820000000  0.5602110000000  0.4839710000000 1.0
C      1  0.5278330000000  0.4304760000000  0.4895070000000 1.0
C      1  0.5280830000000  0.4015960000000  0.4316850000000 1.0
C      1  0.5169290000000  0.5931950000000  0.4273770000000 1.0
C      1  0.5636740000000  0.5465600000000  0.4231760000000 1.0
C      1  0.5819410000000  0.4488030000000  0.4249560000000 1.0
C      1  0.4768330000000  0.4360150000000  0.5311590000000 1.0
C      1  0.4837690000000  0.5657970000000  0.5532220000000 1.0
C      1  0.4096180000000  0.5528850000000  0.5200710000000 1.0
C      1  0.4104350000000  0.4517850000000  0.5031350000000 1.0
C      1  0.4612340000000  0.4902790000000  0.5413040000000 1.0
C      1  0.4755890000000  0.5200750000000  0.5492050000000 1.0
C      1  0.5013010000000  0.3899170000000  0.5173850000000 1.0
C      1  0.5085450000000  0.6230360000000  0.5075660000000 1.0
C      1  0.5064100000000  0.4867110000000  0.5030720000000 1.0
C      1  0.5068730000000  0.5206990000000  0.5062760000000 1.0
C      1  0.5970170000000  0.4381770000000  0.4535280000000 1.0
C      1  0.5851930000000  0.5637410000000  0.4431210000000 1.0
C      1  0.5559590000000  0.5119870000000  0.5848140000000 1.0
C      1  0.5604020000000  0.4800770000000  0.5903310000000 1.0
C      1  0.4619890000000  0.5478090000000  0.5399350000000 1.0
C      1  0.4474360000000  0.4443850000000  0.5162630000000 1.0
C      1  0.4479340000000  0.5168590000000  0.4698020000000 1.0
C      1  0.4438160000000  0.4865720000000  0.4584370000000 1.0
C      1  0.4576100000000  0.5354700000000  0.5113240000000 1.0
C      1  0.4672950000000  0.4566360000000  0.4942300000000 1.0
C      1  0.4818740000000  0.4858680000000  0.6094980000000 1.0
C      1  0.4762170000000  0.5141560000000  0.6150030000000 1.0
C      1  0.4661330000000  0.5043590000000  0.5778620000000 1.0
C      1  0.4588180000000  0.4736130000000  0.5906870000000 1.0
C      1  0.4784130000000  0.4948430000000  0.4955290000000 1.0
END
