TITL C-2622963-3633-222 0.00241075450854919 125000 -1056.02444866485 0 0 188 (C1) n - 1
REM
REM in /nfs/bkarasulu/CARBON/AIRSS/Generating-Clusters/AIREBO/with-SteepDescent/Higher-Symm/SD-CG/HFTN-CG
REM
REM
REM
REM
REM
REM ./C.cell (b20cbc046b6831c77cfcea5457e17084)
REM
REM compiler GCC version 9.2.1 20190827 (Red Hat 9.2.1-1)
REM options -cpp -mtune=generic -march=x86-64 -g -O0 -fpre-include=/usr/include/finclude/math-vector-fortran.h
REM seed -1730979043 -770974608 74188999 -690965924 -624979867 -1498164057 -1087626257 -1103626836 -707662580 1654741535 1325392568 -1121189145 798987030 -1398827727 733008310 335918710 141969782 -565032412 695798797 -173549355 984606848 -700348659 -456414407 -2002202746 726163893 1524364106 276085112 1717653801 179306038 -853762664 -1374755299 -811135909 -737527842
REM
CELL 1.54180   50.00000   50.00000   50.00000   90.00000   90.00000   90.00000
LATT -1
SFAC C  
C      1  0.5957660000000  0.5033310000000  0.5454490000000 1.0
C      1  0.5114990000000  0.5905130000000  0.5483920000000 1.0
C      1  0.4141430000000  0.5434700000000  0.5489620000000 1.0
C      1  0.4192980000000  0.4384800000000  0.5460740000000 1.0
C      1  0.5266330000000  0.4215600000000  0.5473890000000 1.0
C      1  0.4062350000000  0.5120960000000  0.4491700000000 1.0
C      1  0.4824240000000  0.5943920000000  0.4468160000000 1.0
C      1  0.5842130000000  0.5514350000000  0.4413800000000 1.0
C      1  0.5769160000000  0.4419510000000  0.4531850000000 1.0
C      1  0.4620510000000  0.4119590000000  0.4610410000000 1.0
C      1  0.4935010000000  0.4750790000000  0.5761680000000 1.0
C      1  0.5270020000000  0.4753400000000  0.5703500000000 1.0
C      1  0.5207830000000  0.5186460000000  0.5724830000000 1.0
C      1  0.4843910000000  0.5350150000000  0.5716510000000 1.0
C      1  0.4639350000000  0.5016570000000  0.5794330000000 1.0
C      1  0.5151120000000  0.4768550000000  0.4165940000000 1.0
C      1  0.4759570000000  0.4803910000000  0.4267850000000 1.0
C      1  0.4752260000000  0.5199840000000  0.4233760000000 1.0
C      1  0.5219020000000  0.5265050000000  0.4350450000000 1.0
C      1  0.5421230000000  0.4936580000000  0.4246010000000 1.0
C      1  0.4545780000000  0.4440500000000  0.5887040000000 1.0
C      1  0.5353040000000  0.4458680000000  0.5983350000000 1.0
C      1  0.5530740000000  0.5169150000000  0.5726710000000 1.0
C      1  0.5029050000000  0.5599730000000  0.5854690000000 1.0
C      1  0.4420970000000  0.5255060000000  0.5750970000000 1.0
C      1  0.5361980000000  0.4543930000000  0.4254230000000 1.0
C      1  0.4600870000000  0.4520590000000  0.4353380000000 1.0
C      1  0.4439300000000  0.5170920000000  0.4247430000000 1.0
C      1  0.4934780000000  0.5729730000000  0.4184840000000 1.0
C      1  0.5603680000000  0.5269930000000  0.4133390000000 1.0
C      1  0.5997620000000  0.4854080000000  0.4728110000000 1.0
C      1  0.5472910000000  0.5773530000000  0.4762170000000 1.0
C      1  0.4357390000000  0.5606390000000  0.4936120000000 1.0
C      1  0.4063170000000  0.4651690000000  0.4791820000000 1.0
C      1  0.5163370000000  0.3995350000000  0.4658350000000 1.0
C      1  0.4119580000000  0.4815920000000  0.5061260000000 1.0
C      1  0.4415960000000  0.5814760000000  0.5193430000000 1.0
C      1  0.5696210000000  0.5638060000000  0.5100090000000 1.0
C      1  0.5842050000000  0.4535610000000  0.5187440000000 1.0
C      1  0.4797750000000  0.4085820000000  0.5210090000000 1.0
C      1  0.5052660000000  0.4642680000000  0.4743240000000 1.0
C      1  0.5534440000000  0.5052980000000  0.4719450000000 1.0
C      1  0.5069990000000  0.5216990000000  0.4876830000000 1.0
C      1  0.4768220000000  0.5159500000000  0.4798180000000 1.0
C      1  0.4771830000000  0.4834340000000  0.4785750000000 1.0
C      1  0.4774160000000  0.4651890000000  0.5349700000000 1.0
C      1  0.4621360000000  0.4952820000000  0.5289470000000 1.0
C      1  0.4840660000000  0.5477490000000  0.5264190000000 1.0
C      1  0.5415730000000  0.5266550000000  0.5164210000000 1.0
C      1  0.5335120000000  0.4750680000000  0.5119180000000 1.0
C      1  0.5244720000000  0.5153930000000  0.6052810000000 1.0
C      1  0.4944710000000  0.5254980000000  0.6031750000000 1.0
C      1  0.4734590000000  0.5025420000000  0.6119000000000 1.0
C      1  0.4886590000000  0.4753320000000  0.6081090000000 1.0
C      1  0.5214120000000  0.4829770000000  0.6030580000000 1.0
C      1  0.4856770000000  0.5048180000000  0.3953410000000 1.0
C      1  0.5091300000000  0.5280530000000  0.4034870000000 1.0
C      1  0.5308350000000  0.5063880000000  0.3951570000000 1.0
C      1  0.5137970000000  0.4794320000000  0.3830470000000 1.0
C      1  0.4829020000000  0.4709310000000  0.3944370000000 1.0
C      1  0.5006640000000  0.4230260000000  0.4215460000000 1.0
C      1  0.5558780000000  0.4699540000000  0.4024470000000 1.0
C      1  0.5399450000000  0.5498100000000  0.4209040000000 1.0
C      1  0.4732140000000  0.5578580000000  0.4351370000000 1.0
C      1  0.4377510000000  0.4928140000000  0.4076800000000 1.0
C      1  0.5123170000000  0.4378550000000  0.5848090000000 1.0
C      1  0.4386400000000  0.4715910000000  0.5860690000000 1.0
C      1  0.4533880000000  0.5463730000000  0.5960480000000 1.0
C      1  0.5310190000000  0.5571080000000  0.5746770000000 1.0
C      1  0.5625390000000  0.4878050000000  0.5878250000000 1.0
C      1  0.5307180000000  0.4592820000000  0.6252470000000 1.0
C      1  0.5524780000000  0.5066290000000  0.6112900000000 1.0
C      1  0.4927530000000  0.5539120000000  0.6173510000000 1.0
C      1  0.4583560000000  0.5314070000000  0.6190770000000 1.0
C      1  0.4728080000000  0.4524210000000  0.6145260000000 1.0
C      1  0.4832320000000  0.4437360000000  0.4136110000000 1.0
C      1  0.4542980000000  0.4968260000000  0.3855180000000 1.0
C      1  0.5011450000000  0.5546940000000  0.3949870000000 1.0
C      1  0.5583450000000  0.5179800000000  0.3806170000000 1.0
C      1  0.5409230000000  0.4670600000000  0.3772590000000 1.0
C      1  0.4407260000000  0.5634880000000  0.5464710000000 1.0
C      1  0.4135070000000  0.4674920000000  0.5636670000000 1.0
C      1  0.4939480000000  0.4173680000000  0.5481880000000 1.0
C      1  0.5851490000000  0.4707310000000  0.5452470000000 1.0
C      1  0.5422830000000  0.5760040000000  0.5493810000000 1.0
C      1  0.5548890000000  0.5689570000000  0.4442610000000 1.0
C      1  0.5833510000000  0.4737300000000  0.4474070000000 1.0
C      1  0.4942440000000  0.4142400000000  0.4501030000000 1.0
C      1  0.4215430000000  0.4822130000000  0.4545870000000 1.0
C      1  0.4516530000000  0.5798660000000  0.4469990000000 1.0
C      1  0.4351980000000  0.4682690000000  0.4197970000000 1.0
C      1  0.5279840000000  0.4269180000000  0.4174080000000 1.0
C      1  0.5749480000000  0.4981220000000  0.4025920000000 1.0
C      1  0.5245010000000  0.5761640000000  0.4189580000000 1.0
C      1  0.4460070000000  0.5484310000000  0.4231440000000 1.0
C      1  0.5584880000000  0.4562500000000  0.5859240000000 1.0
C      1  0.4842910000000  0.4278410000000  0.5854450000000 1.0
C      1  0.4235290000000  0.5003270000000  0.5839300000000 1.0
C      1  0.4700060000000  0.5682870000000  0.5878210000000 1.0
C      1  0.5602140000000  0.5451600000000  0.5873660000000 1.0
C      1  0.4554950000000  0.4876340000000  0.4527150000000 1.0
C      1  0.4879790000000  0.4422800000000  0.4622530000000 1.0
C      1  0.5525080000000  0.4835520000000  0.4501420000000 1.0
C      1  0.5307900000000  0.5281870000000  0.4670800000000 1.0
C      1  0.4851130000000  0.5327340000000  0.4531070000000 1.0
C      1  0.5558730000000  0.4815630000000  0.5550720000000 1.0
C      1  0.4997710000000  0.4500270000000  0.5556370000000 1.0
C      1  0.4492490000000  0.4836500000000  0.5561560000000 1.0
C      1  0.4668540000000  0.5434770000000  0.5494300000000 1.0
C      1  0.5301890000000  0.5381030000000  0.5464900000000 1.0
C      1  0.4093440000000  0.5510740000000  0.4810740000000 1.0
C      1  0.4183300000000  0.4356630000000  0.4787490000000 1.0
C      1  0.5425820000000  0.4094220000000  0.4699990000000 1.0
C      1  0.6089050000000  0.5144410000000  0.4687090000000 1.0
C      1  0.5185320000000  0.5915930000000  0.4792680000000 1.0
C      1  0.5912520000000  0.5477880000000  0.5179980000000 1.0
C      1  0.5703740000000  0.4259350000000  0.5222390000000 1.0
C      1  0.4489770000000  0.4075120000000  0.5235280000000 1.0
C      1  0.3952340000000  0.5059460000000  0.5200960000000 1.0
C      1  0.4708670000000  0.5976980000000  0.5217480000000 1.0
C      1  0.4552620000000  0.4518240000000  0.5555890000000 1.0
C      1  0.5256890000000  0.4605420000000  0.5397230000000 1.0
C      1  0.5577110000000  0.5102690000000  0.5396490000000 1.0
C      1  0.5093210000000  0.5541960000000  0.5327680000000 1.0
C      1  0.4460370000000  0.5207710000000  0.5416540000000 1.0
C      1  0.5326000000000  0.4602260000000  0.4587520000000 1.0
C      1  0.4584610000000  0.4507050000000  0.4671810000000 1.0
C      1  0.4416110000000  0.5163130000000  0.4570170000000 1.0
C      1  0.4983440000000  0.5560240000000  0.4692450000000 1.0
C      1  0.5628880000000  0.5217260000000  0.4445230000000 1.0
C      1  0.5115410000000  0.6015260000000  0.4544600000000 1.0
C      1  0.4098430000000  0.5446900000000  0.4541670000000 1.0
C      1  0.4318480000000  0.4246020000000  0.4533750000000 1.0
C      1  0.5602920000000  0.4162840000000  0.4490960000000 1.0
C      1  0.6024520000000  0.5227070000000  0.4425760000000 1.0
C      1  0.4816560000000  0.5947790000000  0.5482310000000 1.0
C      1  0.5875790000000  0.5363650000000  0.5439690000000 1.0
C      1  0.5575000000000  0.4261930000000  0.5474660000000 1.0
C      1  0.4417320000000  0.4147770000000  0.5499780000000 1.0
C      1  0.3989170000000  0.5159890000000  0.5461730000000 1.0
C      1  0.6192730000000  0.4667530000000  0.4867470000000 1.0
C      1  0.5675960000000  0.5953280000000  0.4855540000000 1.0
C      1  0.4413280000000  0.5871120000000  0.4761810000000 1.0
C      1  0.3759690000000  0.4635160000000  0.4738940000000 1.0
C      1  0.5062660000000  0.3808120000000  0.4839590000000 1.0
C      1  0.4075050000000  0.4658150000000  0.5312580000000 1.0
C      1  0.4192650000000  0.6029180000000  0.5194550000000 1.0
C      1  0.5609880000000  0.5837890000000  0.5256930000000 1.0
C      1  0.6113930000000  0.4511800000000  0.5047130000000 1.0
C      1  0.4934270000000  0.3853310000000  0.5071770000000 1.0
C      1  0.5936010000000  0.4992010000000  0.4277550000000 1.0
C      1  0.5324490000000  0.5969200000000  0.4361710000000 1.0
C      1  0.4239740000000  0.5620110000000  0.4373780000000 1.0
C      1  0.4208130000000  0.4506980000000  0.4418090000000 1.0
C      1  0.5498280000000  0.4101490000000  0.4233920000000 1.0
C      1  0.3989840000000  0.4977380000000  0.5674340000000 1.0
C      1  0.4624070000000  0.5808300000000  0.5643930000000 1.0
C      1  0.5670800000000  0.5537540000000  0.5580930000000 1.0
C      1  0.5710520000000  0.4457590000000  0.5639270000000 1.0
C      1  0.4649170000000  0.4132400000000  0.5655320000000 1.0
C      1  0.4784760000000  0.5782520000000  0.4765090000000 1.0
C      1  0.4192310000000  0.5123920000000  0.4805920000000 1.0
C      1  0.4635080000000  0.4286460000000  0.4906460000000 1.0
C      1  0.5549170000000  0.4468960000000  0.4764660000000 1.0
C      1  0.5765210000000  0.5376810000000  0.4712780000000 1.0
C      1  0.5180330000000  0.5794060000000  0.5169180000000 1.0
C      1  0.5811780000000  0.5093090000000  0.5153220000000 1.0
C      1  0.5320770000000  0.4355700000000  0.5175290000000 1.0
C      1  0.4428540000000  0.4492020000000  0.5240000000000 1.0
C      1  0.4255360000000  0.5318290000000  0.5191580000000 1.0
C      1  0.4510380000000  0.5303920000000  0.4966890000000 1.0
C      1  0.4535250000000  0.4669010000000  0.4966900000000 1.0
C      1  0.5098730000000  0.4535690000000  0.5033230000000 1.0
C      1  0.5737960000000  0.4923600000000  0.4905770000000 1.0
C      1  0.5169710000000  0.5544470000000  0.4938360000000 1.0
C      1  0.5490770000000  0.5460880000000  0.4895050000000 1.0
C      1  0.5614480000000  0.4665450000000  0.5002710000000 1.0
C      1  0.4838010000000  0.4414800000000  0.5129910000000 1.0
C      1  0.4413800000000  0.4982010000000  0.5021640000000 1.0
C      1  0.4743650000000  0.5547810000000  0.5008420000000 1.0
C      1  0.4339290000000  0.4255120000000  0.5021280000000 1.0
C      1  0.5511840000000  0.4218450000000  0.4971950000000 1.0
C      1  0.4927860000000  0.5933720000000  0.5014080000000 1.0
C      1  0.5977380000000  0.5295070000000  0.4938150000000 1.0
C      1  0.3977780000000  0.5291680000000  0.4996990000000 1.0
C      1  0.4946200000000  0.5046220000000  0.5670140000000 1.0
C      1  0.5016870000000  0.5012290000000  0.4318020000000 1.0
C      1  0.5233510000000  0.5028440000000  0.5069290000000 1.0
END
