TITL C-2622964-2985-799 9.43366734622707e-05 125000 -509.645309240986 0 0 102 (C1) n - 1
REM
REM in /nfs/bkarasulu/CARBON/AIRSS/Generating-Clusters/AIREBO/with-SteepDescent/Higher-Symm/SD-CG/HFTN-CG
REM
REM
REM
REM
REM
REM ./C.cell (b20cbc046b6831c77cfcea5457e17084)
REM
REM compiler GCC version 9.2.1 20190827 (Red Hat 9.2.1-1)
REM options -cpp -mtune=generic -march=x86-64 -g -O0 -fpre-include=/usr/include/finclude/math-vector-fortran.h
REM seed 1651124808 1224261530 -312781890 1616600363 -544269696 -991011865 -475597519 121924670 -464619600 2033721000 558234736 764180460 -969289664 177036202 -1971343672 994102930 -975472990 1455829298 -132559463 -575899668 -630080889 201203051 -203462766 2083643132 1723117743 1957945093 1540170205 1070147518 -774470776 -1838537466 -372044005 2075908117 -1900930555
REM
CELL 1.54180   50.00000   50.00000   50.00000   90.00000   90.00000   90.00000
LATT -1
SFAC C  
C      1  0.4508210000000  0.4527880000000  0.4602300000000 1.0
C      1  0.4041010000000  0.4779460000000  0.5036520000000 1.0
C      1  0.4545100000000  0.4610880000000  0.5515790000000 1.0
C      1  0.5240970000000  0.4637250000000  0.5658070000000 1.0
C      1  0.5694620000000  0.4634380000000  0.5319650000000 1.0
C      1  0.5560410000000  0.4639940000000  0.4399220000000 1.0
C      1  0.5049660000000  0.4542130000000  0.4244810000000 1.0
C      1  0.5936790000000  0.4700930000000  0.5134030000000 1.0
C      1  0.5662880000000  0.4879860000000  0.4458020000000 1.0
C      1  0.4998140000000  0.4798540000000  0.4176730000000 1.0
C      1  0.4289250000000  0.4695240000000  0.4477460000000 1.0
C      1  0.3875790000000  0.4927050000000  0.5212300000000 1.0
C      1  0.4568480000000  0.4724980000000  0.5818470000000 1.0
C      1  0.5455020000000  0.4855620000000  0.5686390000000 1.0
C      1  0.5869960000000  0.5048080000000  0.5402220000000 1.0
C      1  0.5973350000000  0.5236390000000  0.4656030000000 1.0
C      1  0.5126160000000  0.5175810000000  0.4145940000000 1.0
C      1  0.4535530000000  0.4774860000000  0.4142970000000 1.0
C      1  0.4278920000000  0.5290310000000  0.4819490000000 1.0
C      1  0.4440400000000  0.5090560000000  0.5719060000000 1.0
C      1  0.5015410000000  0.4979160000000  0.6022310000000 1.0
C      1  0.4833080000000  0.5157200000000  0.5715300000000 1.0
C      1  0.5513010000000  0.5167760000000  0.5564680000000 1.0
C      1  0.5637150000000  0.5094470000000  0.5014840000000 1.0
C      1  0.5477380000000  0.5231920000000  0.4493880000000 1.0
C      1  0.4902070000000  0.4993510000000  0.4420750000000 1.0
C      1  0.4183730000000  0.4934950000000  0.4639310000000 1.0
C      1  0.4319040000000  0.5133920000000  0.5246750000000 1.0
C      1  0.4687760000000  0.5445750000000  0.4458130000000 1.0
C      1  0.4433340000000  0.5419910000000  0.5293990000000 1.0
C      1  0.4601710000000  0.5386830000000  0.5762020000000 1.0
C      1  0.5413700000000  0.5449570000000  0.5565680000000 1.0
C      1  0.5724770000000  0.5393060000000  0.5109000000000 1.0
C      1  0.5421160000000  0.5523180000000  0.4489020000000 1.0
C      1  0.4972030000000  0.5387630000000  0.4073000000000 1.0
C      1  0.4381730000000  0.5496890000000  0.5559670000000 1.0
C      1  0.4862100000000  0.5560190000000  0.5691430000000 1.0
C      1  0.5488520000000  0.5640270000000  0.5726740000000 1.0
C      1  0.5992120000000  0.5443400000000  0.5141510000000 1.0
C      1  0.5582660000000  0.5694880000000  0.4359810000000 1.0
C      1  0.4751080000000  0.5495470000000  0.4195610000000 1.0
C      1  0.4256240000000  0.5524540000000  0.4720110000000 1.0
C      1  0.5145000000000  0.4345780000000  0.4079280000000 1.0
C      1  0.4405640000000  0.4209270000000  0.4608190000000 1.0
C      1  0.3974660000000  0.4529500000000  0.4949860000000 1.0
C      1  0.4316460000000  0.4408530000000  0.5488140000000 1.0
C      1  0.5232540000000  0.4439290000000  0.5889660000000 1.0
C      1  0.5769300000000  0.4425360000000  0.5526710000000 1.0
C      1  0.5657320000000  0.4480770000000  0.4197510000000 1.0
C      1  0.5199480000000  0.5588090000000  0.4635960000000 1.0
C      1  0.5015030000000  0.5785510000000  0.4683080000000 1.0
C      1  0.4838290000000  0.5797290000000  0.4973950000000 1.0
C      1  0.4710780000000  0.5568110000000  0.5185180000000 1.0
C      1  0.4938290000000  0.5586560000000  0.5428540000000 1.0
C      1  0.5229770000000  0.5506090000000  0.5299720000000 1.0
C      1  0.5523090000000  0.5568990000000  0.5146360000000 1.0
C      1  0.5558690000000  0.4946030000000  0.5310820000000 1.0
C      1  0.5718130000000  0.5118640000000  0.4685460000000 1.0
C      1  0.5235560000000  0.5058310000000  0.4434600000000 1.0
C      1  0.4680020000000  0.4737410000000  0.4410420000000 1.0
C      1  0.4304080000000  0.4975690000000  0.4946040000000 1.0
C      1  0.4445140000000  0.4933850000000  0.5472760000000 1.0
C      1  0.5059680000000  0.4903970000000  0.5693680000000 1.0
C      1  0.5428370000000  0.4576100000000  0.5169560000000 1.0
C      1  0.5333100000000  0.4535390000000  0.4567340000000 1.0
C      1  0.4999150000000  0.4476270000000  0.4542650000000 1.0
C      1  0.4552700000000  0.4495870000000  0.4964510000000 1.0
C      1  0.4756900000000  0.4362640000000  0.5133990000000 1.0
C      1  0.4841170000000  0.4475890000000  0.5416330000000 1.0
C      1  0.5179660000000  0.4496290000000  0.5388710000000 1.0
C      1  0.5222390000000  0.4886580000000  0.5312720000000 1.0
C      1  0.5356390000000  0.4818950000000  0.4942560000000 1.0
C      1  0.5165950000000  0.4815380000000  0.4662160000000 1.0
C      1  0.4840150000000  0.4727470000000  0.4710230000000 1.0
C      1  0.4611100000000  0.4829070000000  0.4940640000000 1.0
C      1  0.4685160000000  0.4937000000000  0.5264130000000 1.0
C      1  0.4912890000000  0.4793770000000  0.5416200000000 1.0
C      1  0.5929100000000  0.4920260000000  0.5010220000000 1.0
C      1  0.5759440000000  0.5115580000000  0.4288610000000 1.0
C      1  0.4968530000000  0.4887300000000  0.3918850000000 1.0
C      1  0.4062190000000  0.4882470000000  0.4344870000000 1.0
C      1  0.4006920000000  0.5144470000000  0.5317160000000 1.0
C      1  0.4732770000000  0.4906130000000  0.5918950000000 1.0
C      1  0.5637550000000  0.5048720000000  0.5858800000000 1.0
C      1  0.5305830000000  0.4210550000000  0.5267290000000 1.0
C      1  0.5431420000000  0.4288210000000  0.5011540000000 1.0
C      1  0.5434750000000  0.4304190000000  0.4748460000000 1.0
C      1  0.4929520000000  0.4182960000000  0.4592510000000 1.0
C      1  0.4350010000000  0.4280930000000  0.4871110000000 1.0
C      1  0.4850830000000  0.4127160000000  0.5060490000000 1.0
C      1  0.4836290000000  0.4239850000000  0.5637790000000 1.0
C      1  0.4845220000000  0.5228420000000  0.4611240000000 1.0
C      1  0.4763230000000  0.5127280000000  0.4880980000000 1.0
C      1  0.4775580000000  0.5253210000000  0.5177750000000 1.0
C      1  0.4960570000000  0.5187860000000  0.5431560000000 1.0
C      1  0.5217300000000  0.5192930000000  0.5227180000000 1.0
C      1  0.5318830000000  0.5156430000000  0.4928660000000 1.0
C      1  0.5101700000000  0.5332350000000  0.4783820000000 1.0
C      1  0.4982940000000  0.4960080000000  0.5001680000000 1.0
C      1  0.5077380000000  0.4689550000000  0.5076460000000 1.0
C      1  0.4748350000000  0.6055190000000  0.5025320000000 1.0
C      1  0.5070570000000  0.5569230000000  0.5012720000000 1.0
END
