TITL C-2622964-2985-802 0.000784857167528031 125000 -390.88900354848 0 0 75 (C1) n - 1
REM
REM in /nfs/bkarasulu/CARBON/AIRSS/Generating-Clusters/AIREBO/with-SteepDescent/Higher-Symm/SD-CG/HFTN-CG
REM
REM
REM
REM
REM
REM ./C.cell (b20cbc046b6831c77cfcea5457e17084)
REM
REM compiler GCC version 9.2.1 20190827 (Red Hat 9.2.1-1)
REM options -cpp -mtune=generic -march=x86-64 -g -O0 -fpre-include=/usr/include/finclude/math-vector-fortran.h
REM seed -1227992208 -198854284 1093364167 413363459 96888933 -1016619510 -351047910 726565173 2038405423 1836788737 1770874688 51105402 1736226459 -1316396906 -1279183811 -1892624053 907676431 -1115469498 -439563262 600628306 -562522904 1286083528 896035236 579887724 -815675023 2128140980 566411543 -1789868376 -1812952224 -1999298452 1106210132 -876502800 1929602553
REM
CELL 1.54180   50.00000   50.00000   50.00000   90.00000   90.00000   90.00000
LATT -1
SFAC C  
C      1  0.4720510000000  0.4447610000000  0.5323240000000 1.0
C      1  0.5424300000000  0.4578590000000  0.5318430000000 1.0
C      1  0.5595560000000  0.5234980000000  0.5353390000000 1.0
C      1  0.4785070000000  0.5559560000000  0.5384600000000 1.0
C      1  0.4377950000000  0.5038870000000  0.5371540000000 1.0
C      1  0.5083500000000  0.5338560000000  0.5712820000000 1.0
C      1  0.4716530000000  0.5195010000000  0.5762260000000 1.0
C      1  0.4745710000000  0.4799290000000  0.5778210000000 1.0
C      1  0.5129830000000  0.4705400000000  0.5750160000000 1.0
C      1  0.5341910000000  0.5040570000000  0.5754330000000 1.0
C      1  0.4612870000000  0.5222650000000  0.5510470000000 1.0
C      1  0.4712400000000  0.4691580000000  0.5529630000000 1.0
C      1  0.5150950000000  0.4584710000000  0.5505990000000 1.0
C      1  0.5421310000000  0.5065710000000  0.5497620000000 1.0
C      1  0.5049980000000  0.5439040000000  0.5462070000000 1.0
C      1  0.4576750000000  0.5665160000000  0.4696280000000 1.0
C      1  0.4204320000000  0.4834970000000  0.4637670000000 1.0
C      1  0.4936210000000  0.4292250000000  0.4628470000000 1.0
C      1  0.5657420000000  0.4660390000000  0.4651000000000 1.0
C      1  0.5520080000000  0.5547180000000  0.4655270000000 1.0
C      1  0.4326180000000  0.4743320000000  0.5198430000000 1.0
C      1  0.4974710000000  0.4254810000000  0.5197900000000 1.0
C      1  0.5690960000000  0.4769530000000  0.5214410000000 1.0
C      1  0.5498720000000  0.5501820000000  0.5235340000000 1.0
C      1  0.4514300000000  0.5551840000000  0.5216870000000 1.0
C      1  0.5289160000000  0.4889470000000  0.5291170000000 1.0
C      1  0.5183590000000  0.5260030000000  0.5205670000000 1.0
C      1  0.4787200000000  0.5260840000000  0.5222140000000 1.0
C      1  0.4676340000000  0.4895510000000  0.5293500000000 1.0
C      1  0.4978400000000  0.4650670000000  0.5234460000000 1.0
C      1  0.4785800000000  0.4246600000000  0.4915320000000 1.0
C      1  0.5596610000000  0.4567580000000  0.4957670000000 1.0
C      1  0.5651440000000  0.5475200000000  0.4944330000000 1.0
C      1  0.4699950000000  0.5713030000000  0.4983810000000 1.0
C      1  0.4184460000000  0.4940970000000  0.4892840000000 1.0
C      1  0.4349270000000  0.5325140000000  0.5194630000000 1.0
C      1  0.4443440000000  0.4475120000000  0.5181330000000 1.0
C      1  0.5257450000000  0.4300900000000  0.5214120000000 1.0
C      1  0.5748470000000  0.5050790000000  0.5177780000000 1.0
C      1  0.5189900000000  0.5588980000000  0.5119510000000 1.0
C      1  0.5493170000000  0.5144970000000  0.4433240000000 1.0
C      1  0.5011180000000  0.5555050000000  0.4524670000000 1.0
C      1  0.4532610000000  0.5183670000000  0.4419450000000 1.0
C      1  0.4635380000000  0.4584950000000  0.4406480000000 1.0
C      1  0.5272730000000  0.4511820000000  0.4461510000000 1.0
C      1  0.5019080000000  0.5818590000000  0.4931060000000 1.0
C      1  0.4214190000000  0.5263970000000  0.4949490000000 1.0
C      1  0.4469700000000  0.4325830000000  0.4938310000000 1.0
C      1  0.5461850000000  0.4271280000000  0.4988470000000 1.0
C      1  0.5837210000000  0.5193670000000  0.4941720000000 1.0
C      1  0.5333300000000  0.4392200000000  0.4713800000000 1.0
C      1  0.5674250000000  0.5164630000000  0.4696570000000 1.0
C      1  0.5053230000000  0.5797370000000  0.4653990000000 1.0
C      1  0.4371740000000  0.5231570000000  0.4697640000000 1.0
C      1  0.4540750000000  0.4473210000000  0.4694950000000 1.0
C      1  0.4900060000000  0.4546530000000  0.4935060000000 1.0
C      1  0.5360090000000  0.4801860000000  0.4995710000000 1.0
C      1  0.5372830000000  0.5291320000000  0.4924890000000 1.0
C      1  0.4895820000000  0.5454600000000  0.5013830000000 1.0
C      1  0.4503860000000  0.4961900000000  0.5007830000000 1.0
C      1  0.5199400000000  0.4559420000000  0.4915470000000 1.0
C      1  0.5394860000000  0.5005670000000  0.4793480000000 1.0
C      1  0.5074310000000  0.5290380000000  0.4814620000000 1.0
C      1  0.4676890000000  0.5154240000000  0.4787200000000 1.0
C      1  0.4723750000000  0.4746950000000  0.4757060000000 1.0
C      1  0.4498870000000  0.4864460000000  0.4525120000000 1.0
C      1  0.4943540000000  0.4565690000000  0.4442710000000 1.0
C      1  0.5399490000000  0.4825730000000  0.4503380000000 1.0
C      1  0.5269160000000  0.5367570000000  0.4546600000000 1.0
C      1  0.4728170000000  0.5411970000000  0.4568130000000 1.0
C      1  0.5010040000000  0.4979950000000  0.4233220000000 1.0
C      1  0.5063610000000  0.4871680000000  0.4529680000000 1.0
C      1  0.4983300000000  0.4986200000000  0.5177110000000 1.0
C      1  0.4960920000000  0.4976990000000  0.4837490000000 1.0
C      1  0.5005220000000  0.5018460000000  0.5797750000000 1.0
END
