TITL C-2622955-8511-780 -0.00960172898183629 125000 -940.370541738041 0 0 173 (C1) n - 1
REM
REM in /nfs/bkarasulu/CARBON/AIRSS/Generating-Clusters/AIREBO/with-SteepDescent/Higher-Symm/SD-CG/HFTN-CG
REM
REM
REM
REM
REM
REM ./C.cell (b20cbc046b6831c77cfcea5457e17084)
REM
REM compiler GCC version 9.2.1 20190827 (Red Hat 9.2.1-1)
REM options -cpp -mtune=generic -march=x86-64 -g -O0 -fpre-include=/usr/include/finclude/math-vector-fortran.h
REM seed 580661733 1988462773 1088412948 -1237120453 -246827658 -1201001411 -753560207 277479920 -1342005523 -937337204 1256162890 118388432 -168041721 1717995237 399875047 790653891 1358125497 391877364 -338376070 -546030573 745581001 -43689952 -1444859253 -976481739 -923075728 -1656868276 276777101 62200316 -1098631256 1000292164 1167320111 -1906377457 -821378833
REM
CELL 1.54180   50.00000   50.00000   50.00000   90.00000   90.00000   90.00000
LATT -1
SFAC C  
C      1  0.5711140000000  0.5785150000000  0.5166250000000 1.0
C      1  0.5543730000000  0.4127890000000  0.4641130000000 1.0
C      1  0.5553310000000  0.4884120000000  0.4632960000000 1.0
C      1  0.5149740000000  0.5600560000000  0.4800830000000 1.0
C      1  0.5349320000000  0.4324710000000  0.4833130000000 1.0
C      1  0.4892730000000  0.4848830000000  0.3867220000000 1.0
C      1  0.4110010000000  0.5537510000000  0.5178880000000 1.0
C      1  0.4255360000000  0.4168930000000  0.5138770000000 1.0
C      1  0.5136150000000  0.4322840000000  0.5612890000000 1.0
C      1  0.4800110000000  0.4480360000000  0.5757220000000 1.0
C      1  0.5874870000000  0.5084870000000  0.5040960000000 1.0
C      1  0.4382140000000  0.5358700000000  0.4432410000000 1.0
C      1  0.4094900000000  0.4447320000000  0.4738140000000 1.0
C      1  0.5071560000000  0.5894450000000  0.5858320000000 1.0
C      1  0.4028830000000  0.4847230000000  0.4989200000000 1.0
C      1  0.5923900000000  0.5007800000000  0.5351340000000 1.0
C      1  0.5353110000000  0.5363840000000  0.4740250000000 1.0
C      1  0.5573500000000  0.5281290000000  0.5795490000000 1.0
C      1  0.5181550000000  0.4801340000000  0.5248240000000 1.0
C      1  0.5081400000000  0.5228470000000  0.4353570000000 1.0
C      1  0.4356340000000  0.5526270000000  0.4697630000000 1.0
C      1  0.5506240000000  0.4426640000000  0.5349720000000 1.0
C      1  0.5099950000000  0.6105350000000  0.5087450000000 1.0
C      1  0.5432430000000  0.5571160000000  0.4253750000000 1.0
C      1  0.5434660000000  0.5898540000000  0.5043030000000 1.0
C      1  0.4605010000000  0.5112770000000  0.4487410000000 1.0
C      1  0.5840530000000  0.4489600000000  0.5355100000000 1.0
C      1  0.3997700000000  0.5102610000000  0.5075750000000 1.0
C      1  0.4887270000000  0.4888720000000  0.5999850000000 1.0
C      1  0.5194160000000  0.4818500000000  0.5559690000000 1.0
C      1  0.4926240000000  0.5929870000000  0.5602480000000 1.0
C      1  0.4281320000000  0.4315320000000  0.4567960000000 1.0
C      1  0.4133790000000  0.4390820000000  0.5020600000000 1.0
C      1  0.4581160000000  0.6015870000000  0.4679240000000 1.0
C      1  0.4041510000000  0.5016200000000  0.4608350000000 1.0
C      1  0.5229730000000  0.5831660000000  0.4619440000000 1.0
C      1  0.4971310000000  0.4495350000000  0.5396130000000 1.0
C      1  0.4418380000000  0.5672240000000  0.5543310000000 1.0
C      1  0.5441800000000  0.4995790000000  0.5953440000000 1.0
C      1  0.4984350000000  0.4449750000000  0.4401800000000 1.0
C      1  0.6050070000000  0.4567020000000  0.4926680000000 1.0
C      1  0.5696100000000  0.5704730000000  0.4634960000000 1.0
C      1  0.5216720000000  0.3771700000000  0.4750570000000 1.0
C      1  0.4233430000000  0.5236180000000  0.4782860000000 1.0
C      1  0.5845770000000  0.4484420000000  0.4472060000000 1.0
C      1  0.4616950000000  0.5861440000000  0.4986550000000 1.0
C      1  0.5968480000000  0.5394990000000  0.5061450000000 1.0
C      1  0.5170840000000  0.4751330000000  0.4730860000000 1.0
C      1  0.5341150000000  0.6105130000000  0.5269970000000 1.0
C      1  0.5108010000000  0.5197390000000  0.5475760000000 1.0
C      1  0.5098910000000  0.6112770000000  0.4753430000000 1.0
C      1  0.5755010000000  0.4778250000000  0.4376850000000 1.0
C      1  0.5004640000000  0.4824270000000  0.4249810000000 1.0
C      1  0.5397070000000  0.5058450000000  0.4116400000000 1.0
C      1  0.5215300000000  0.4365270000000  0.4177740000000 1.0
C      1  0.4254100000000  0.4688340000000  0.5132930000000 1.0
C      1  0.5727590000000  0.4745610000000  0.5697560000000 1.0
C      1  0.4528670000000  0.4161330000000  0.4695900000000 1.0
C      1  0.5024790000000  0.4392920000000  0.4908360000000 1.0
C      1  0.4542590000000  0.4699140000000  0.4948170000000 1.0
C      1  0.3976250000000  0.4712110000000  0.4728250000000 1.0
C      1  0.4519640000000  0.4629180000000  0.4616190000000 1.0
C      1  0.4857150000000  0.4752010000000  0.5233310000000 1.0
C      1  0.4536170000000  0.5610720000000  0.5785710000000 1.0
C      1  0.4349220000000  0.4922860000000  0.5352440000000 1.0
C      1  0.4811520000000  0.6119240000000  0.4906990000000 1.0
C      1  0.5565920000000  0.4765650000000  0.4120860000000 1.0
C      1  0.4797080000000  0.5473480000000  0.5945990000000 1.0
C      1  0.4862650000000  0.4165100000000  0.4784450000000 1.0
C      1  0.4475190000000  0.5106370000000  0.5861230000000 1.0
C      1  0.4234410000000  0.4093280000000  0.5403340000000 1.0
C      1  0.5264090000000  0.5649250000000  0.5097500000000 1.0
C      1  0.4689950000000  0.5236840000000  0.5020500000000 1.0
C      1  0.5643170000000  0.4239910000000  0.5100660000000 1.0
C      1  0.4699220000000  0.4374960000000  0.4232320000000 1.0
C      1  0.5195980000000  0.4940120000000  0.4464020000000 1.0
C      1  0.4533830000000  0.4143740000000  0.5009180000000 1.0
C      1  0.5070650000000  0.5408800000000  0.5140490000000 1.0
C      1  0.6093140000000  0.5367230000000  0.5377870000000 1.0
C      1  0.4717100000000  0.5035390000000  0.5679050000000 1.0
C      1  0.5875950000000  0.5439900000000  0.4735460000000 1.0
C      1  0.5547520000000  0.5590120000000  0.5654790000000 1.0
C      1  0.4835400000000  0.4964350000000  0.4688460000000 1.0
C      1  0.4428310000000  0.4491300000000  0.4327970000000 1.0
C      1  0.4559050000000  0.4431300000000  0.5157190000000 1.0
C      1  0.5371190000000  0.4071920000000  0.5060370000000 1.0
C      1  0.3908770000000  0.5286710000000  0.4870460000000 1.0
C      1  0.5353420000000  0.4992800000000  0.4885770000000 1.0
C      1  0.4849480000000  0.5478680000000  0.5360150000000 1.0
C      1  0.4325080000000  0.4481210000000  0.5393070000000 1.0
C      1  0.5018980000000  0.5136490000000  0.5798650000000 1.0
C      1  0.4244090000000  0.5236040000000  0.5267000000000 1.0
C      1  0.5299820000000  0.5577370000000  0.5422040000000 1.0
C      1  0.5569780000000  0.4541040000000  0.4971790000000 1.0
C      1  0.5994010000000  0.4896610000000  0.4840370000000 1.0
C      1  0.5437000000000  0.5158900000000  0.4518840000000 1.0
C      1  0.5769500000000  0.4655510000000  0.4755880000000 1.0
C      1  0.5214150000000  0.4468980000000  0.5180360000000 1.0
C      1  0.5828230000000  0.5245710000000  0.4506550000000 1.0
C      1  0.4579780000000  0.5756270000000  0.5260100000000 1.0
C      1  0.4364920000000  0.4959330000000  0.4346650000000 1.0
C      1  0.5265300000000  0.4493340000000  0.4551900000000 1.0
C      1  0.4103850000000  0.5259160000000  0.4405370000000 1.0
C      1  0.5473970000000  0.5743830000000  0.4472460000000 1.0
C      1  0.5505340000000  0.5848200000000  0.5429610000000 1.0
C      1  0.5933150000000  0.5662680000000  0.5352220000000 1.0
C      1  0.5924890000000  0.4990670000000  0.4537240000000 1.0
C      1  0.5350380000000  0.4547800000000  0.3955050000000 1.0
C      1  0.4164890000000  0.5561280000000  0.5483370000000 1.0
C      1  0.4410730000000  0.5034260000000  0.4033980000000 1.0
C      1  0.4879060000000  0.4700050000000  0.4898020000000 1.0
C      1  0.5885960000000  0.4304590000000  0.4908080000000 1.0
C      1  0.5125490000000  0.3985870000000  0.5241680000000 1.0
C      1  0.5011850000000  0.3908520000000  0.4929890000000 1.0
C      1  0.5081080000000  0.5162540000000  0.4773190000000 1.0
C      1  0.4634740000000  0.5635490000000  0.4765670000000 1.0
C      1  0.4928810000000  0.4769260000000  0.5684230000000 1.0
C      1  0.5803670000000  0.4246810000000  0.4641730000000 1.0
C      1  0.5588790000000  0.5293770000000  0.4269770000000 1.0
C      1  0.4134620000000  0.5611320000000  0.4923210000000 1.0
C      1  0.5200400000000  0.4821530000000  0.3971550000000 1.0
C      1  0.4818260000000  0.5147950000000  0.5302470000000 1.0
C      1  0.4763680000000  0.4143170000000  0.4459890000000 1.0
C      1  0.4846490000000  0.5912160000000  0.4296550000000 1.0
C      1  0.5424140000000  0.3877290000000  0.4607490000000 1.0
C      1  0.4608870000000  0.5759710000000  0.4455280000000 1.0
C      1  0.4401490000000  0.4579330000000  0.5775390000000 1.0
C      1  0.5634780000000  0.5570300000000  0.4934620000000 1.0
C      1  0.4789520000000  0.4706200000000  0.4471920000000 1.0
C      1  0.5137070000000  0.5506710000000  0.4179760000000 1.0
C      1  0.5318290000000  0.4160000000000  0.5446110000000 1.0
C      1  0.5186790000000  0.5117800000000  0.5154590000000 1.0
C      1  0.4223580000000  0.5072240000000  0.5747020000000 1.0
C      1  0.4845350000000  0.4599440000000  0.4059120000000 1.0
C      1  0.4332820000000  0.4717600000000  0.4131960000000 1.0
C      1  0.4860850000000  0.5421210000000  0.4801600000000 1.0
C      1  0.4830560000000  0.4050570000000  0.5389780000000 1.0
C      1  0.4333590000000  0.4874430000000  0.4657000000000 1.0
C      1  0.4603510000000  0.5487180000000  0.4208560000000 1.0
C      1  0.4508600000000  0.5360130000000  0.5982460000000 1.0
C      1  0.4481170000000  0.5033550000000  0.4905160000000 1.0
C      1  0.4854300000000  0.5128660000000  0.3907840000000 1.0
C      1  0.5717080000000  0.5407520000000  0.5290130000000 1.0
C      1  0.5606240000000  0.4982260000000  0.5362750000000 1.0
C      1  0.5597580000000  0.5232030000000  0.4933700000000 1.0
C      1  0.4132940000000  0.5274080000000  0.5586060000000 1.0
C      1  0.5902650000000  0.4726000000000  0.5483280000000 1.0
C      1  0.5083990000000  0.5571320000000  0.5906960000000 1.0
C      1  0.4684950000000  0.5964720000000  0.5488360000000 1.0
C      1  0.5436710000000  0.5266080000000  0.5420510000000 1.0
C      1  0.4014920000000  0.4591780000000  0.5441490000000 1.0
C      1  0.5458780000000  0.4933770000000  0.5638430000000 1.0
C      1  0.5506240000000  0.4741600000000  0.5199070000000 1.0
C      1  0.4608490000000  0.5231290000000  0.3995710000000 1.0
C      1  0.5345670000000  0.4670180000000  0.5911030000000 1.0
C      1  0.4835690000000  0.5314070000000  0.4496990000000 1.0
C      1  0.5041140000000  0.6027730000000  0.4441950000000 1.0
C      1  0.4210170000000  0.4786600000000  0.5622720000000 1.0
C      1  0.5821780000000  0.5249990000000  0.5567200000000 1.0
C      1  0.4611980000000  0.4736970000000  0.5923590000000 1.0
C      1  0.5264800000000  0.5285870000000  0.5938140000000 1.0
C      1  0.5119910000000  0.4474820000000  0.5874130000000 1.0
C      1  0.5503100000000  0.4538500000000  0.5671400000000 1.0
C      1  0.4645660000000  0.4914660000000  0.5394440000000 1.0
C      1  0.5030590000000  0.5618820000000  0.5574100000000 1.0
C      1  0.4868050000000  0.5651180000000  0.4171820000000 1.0
C      1  0.4690390000000  0.4338100000000  0.5468450000000 1.0
C      1  0.5476390000000  0.4502490000000  0.4316800000000 1.0
C      1  0.5118000000000  0.5227630000000  0.4018660000000 1.0
C      1  0.4748930000000  0.3969150000000  0.5113350000000 1.0
C      1  0.4400080000000  0.4276320000000  0.5634330000000 1.0
C      1  0.4531270000000  0.5419560000000  0.5254790000000 1.0
C      1  0.5280940000000  0.5311620000000  0.6266360000000 1.0
END
