TITL C-2622961-1971-589 -0.00799355787383616 125000 -481.09807417078 0 0 87 (C1) n - 1
REM
REM in /nfs/bkarasulu/CARBON/AIRSS/Generating-Clusters/AIREBO/with-SteepDescent/Higher-Symm/SD-CG/HFTN-CG
REM
REM
REM
REM
REM
REM ./C.cell (b20cbc046b6831c77cfcea5457e17084)
REM
REM compiler GCC version 9.2.1 20190827 (Red Hat 9.2.1-1)
REM options -cpp -mtune=generic -march=x86-64 -g -O0 -fpre-include=/usr/include/finclude/math-vector-fortran.h
REM seed 588804189 -588176899 1950008834 717393141 -213037397 -1966597245 915247138 -998687343 1047243732 -993831536 1731748833 1378471531 -1719291053 -2139524625 1265039288 -796155236 -333468105 -844622953 -1320454160 1148867761 -576957870 -925719527 175303514 96015743 -548834133 1532535086 -1585284543 1695036526 1758476297 -2112679186 2001232229 -822033087 -1445353901
REM
CELL 1.54180   50.00000   50.00000   50.00000   90.00000   90.00000   90.00000
LATT -1
SFAC C  
C      1  0.5241420000000  0.5393950000000  0.5090470000000 1.0
C      1  0.4946070000000  0.5327330000000  0.5179710000000 1.0
C      1  0.4770870000000  0.5358770000000  0.4930590000000 1.0
C      1  0.5161370000000  0.5181490000000  0.4575350000000 1.0
C      1  0.5276090000000  0.5393580000000  0.4774710000000 1.0
C      1  0.4698740000000  0.4314190000000  0.5486840000000 1.0
C      1  0.4423690000000  0.4298190000000  0.4973260000000 1.0
C      1  0.4943720000000  0.4263090000000  0.4448040000000 1.0
C      1  0.5479980000000  0.4211270000000  0.4733290000000 1.0
C      1  0.5451210000000  0.4300590000000  0.5402280000000 1.0
C      1  0.4283950000000  0.4494860000000  0.5091280000000 1.0
C      1  0.4802870000000  0.4451460000000  0.4314560000000 1.0
C      1  0.5543890000000  0.4412350000000  0.4537970000000 1.0
C      1  0.5655790000000  0.4472270000000  0.5386120000000 1.0
C      1  0.4756010000000  0.4418600000000  0.5730900000000 1.0
C      1  0.5369730000000  0.5706860000000  0.5134260000000 1.0
C      1  0.4856800000000  0.5533200000000  0.5399940000000 1.0
C      1  0.4331290000000  0.5760050000000  0.5184230000000 1.0
C      1  0.4877520000000  0.5635160000000  0.4768600000000 1.0
C      1  0.5349270000000  0.5699030000000  0.4644270000000 1.0
C      1  0.5189540000000  0.4599910000000  0.5438260000000 1.0
C      1  0.4779540000000  0.4780830000000  0.5236500000000 1.0
C      1  0.4579070000000  0.4619690000000  0.4795110000000 1.0
C      1  0.5047050000000  0.4643490000000  0.4614120000000 1.0
C      1  0.5407070000000  0.4593370000000  0.5030600000000 1.0
C      1  0.4273090000000  0.5092440000000  0.4927100000000 1.0
C      1  0.4756560000000  0.5066990000000  0.4266560000000 1.0
C      1  0.5573900000000  0.5031640000000  0.4481340000000 1.0
C      1  0.5521510000000  0.5037090000000  0.5459640000000 1.0
C      1  0.4768590000000  0.4989240000000  0.5727310000000 1.0
C      1  0.4336580000000  0.4733200000000  0.4605430000000 1.0
C      1  0.5127260000000  0.4712780000000  0.4298300000000 1.0
C      1  0.5846410000000  0.4804690000000  0.4894440000000 1.0
C      1  0.5332830000000  0.4682860000000  0.5762930000000 1.0
C      1  0.4428490000000  0.4690910000000  0.5606430000000 1.0
C      1  0.5079190000000  0.5581960000000  0.5567590000000 1.0
C      1  0.4366150000000  0.5558990000000  0.5382250000000 1.0
C      1  0.4567280000000  0.5651740000000  0.4688920000000 1.0
C      1  0.5209130000000  0.5660380000000  0.4378120000000 1.0
C      1  0.5633040000000  0.5560990000000  0.5011580000000 1.0
C      1  0.5539460000000  0.5029350000000  0.5120150000000 1.0
C      1  0.5055960000000  0.5088550000000  0.5646180000000 1.0
C      1  0.4456070000000  0.5075610000000  0.5213250000000 1.0
C      1  0.4565180000000  0.5164410000000  0.4509750000000 1.0
C      1  0.5333130000000  0.5174230000000  0.4295240000000 1.0
C      1  0.5318890000000  0.5597270000000  0.5425950000000 1.0
C      1  0.4605270000000  0.5504750000000  0.5527420000000 1.0
C      1  0.4384030000000  0.5660690000000  0.4926440000000 1.0
C      1  0.4944280000000  0.5581090000000  0.4452580000000 1.0
C      1  0.5624500000000  0.5583120000000  0.4733940000000 1.0
C      1  0.5710990000000  0.4642970000000  0.5111960000000 1.0
C      1  0.5047350000000  0.4555600000000  0.5732900000000 1.0
C      1  0.4456590000000  0.4685560000000  0.5286790000000 1.0
C      1  0.4722920000000  0.4689500000000  0.4522180000000 1.0
C      1  0.5358160000000  0.4628190000000  0.4715680000000 1.0
C      1  0.5083310000000  0.5380170000000  0.5767190000000 1.0
C      1  0.4244450000000  0.5310050000000  0.5310210000000 1.0
C      1  0.4503790000000  0.5471730000000  0.4492260000000 1.0
C      1  0.5333610000000  0.5480210000000  0.4205060000000 1.0
C      1  0.5721930000000  0.5315910000000  0.5102860000000 1.0
C      1  0.4784920000000  0.4718880000000  0.5845810000000 1.0
C      1  0.4195520000000  0.4808190000000  0.5097030000000 1.0
C      1  0.4744410000000  0.4748720000000  0.4188200000000 1.0
C      1  0.5585900000000  0.4730780000000  0.4505030000000 1.0
C      1  0.5720860000000  0.4792770000000  0.5412720000000 1.0
C      1  0.5672540000000  0.5029440000000  0.4807020000000 1.0
C      1  0.5332920000000  0.4961940000000  0.5680920000000 1.0
C      1  0.4507200000000  0.5008840000000  0.5515150000000 1.0
C      1  0.4321310000000  0.5009590000000  0.4632460000000 1.0
C      1  0.5083140000000  0.4979420000000  0.4229640000000 1.0
C      1  0.4608800000000  0.4884770000000  0.4976480000000 1.0
C      1  0.4734200000000  0.5086940000000  0.4774730000000 1.0
C      1  0.5001580000000  0.4967260000000  0.4707860000000 1.0
C      1  0.5270600000000  0.4843920000000  0.5215690000000 1.0
C      1  0.5001990000000  0.5023580000000  0.5321910000000 1.0
C      1  0.5606030000000  0.5324570000000  0.4613250000000 1.0
C      1  0.5425420000000  0.5319170000000  0.5366460000000 1.0
C      1  0.4587770000000  0.5274690000000  0.5688540000000 1.0
C      1  0.4449540000000  0.5366480000000  0.4941900000000 1.0
C      1  0.4924610000000  0.5302290000000  0.4402070000000 1.0
C      1  0.5247410000000  0.4309190000000  0.4929690000000 1.0
C      1  0.5169340000000  0.4341750000000  0.5238090000000 1.0
C      1  0.4846120000000  0.4447290000000  0.5237810000000 1.0
C      1  0.4739710000000  0.4371270000000  0.4938780000000 1.0
C      1  0.4990140000000  0.4343240000000  0.4763230000000 1.0
C      1  0.5141450000000  0.5749440000000  0.4888980000000 1.0
C      1  0.5123010000000  0.4859350000000  0.4941670000000 1.0
END
