TITL C-2622959-7779-742 -0.0061125532230911 125000 -655.350767850828 0 0 122 (C1) n - 1
REM
REM in /nfs/bkarasulu/CARBON/AIRSS/Generating-Clusters/AIREBO/with-SteepDescent/Higher-Symm/SD-CG/HFTN-CG
REM
REM
REM
REM
REM
REM ./C.cell (b20cbc046b6831c77cfcea5457e17084)
REM
REM compiler GCC version 9.2.1 20190827 (Red Hat 9.2.1-1)
REM options -cpp -mtune=generic -march=x86-64 -g -O0 -fpre-include=/usr/include/finclude/math-vector-fortran.h
REM seed 1085322555 -437328298 1803736089 47851422 -1153669946 -1182718610 -1585863630 -801107352 -636227436 -967070222 -361372108 1680232511 1120558548 1117539818 565664871 -1251486283 -1493344960 553253749 -536169673 1285923034 2110688814 -506630336 1753007087 -175449603 33767865 -314646630 488003255 -374671252 2098383909 -852637246 664258447 -1175893034 821666806
REM
CELL 1.54180   50.00000   50.00000   50.00000   90.00000   90.00000   90.00000
LATT -1
SFAC C  
C      1  0.5726060000000  0.4519860000000  0.4339950000000 1.0
C      1  0.5860690000000  0.5357110000000  0.5436740000000 1.0
C      1  0.4191180000000  0.4669780000000  0.4567870000000 1.0
C      1  0.4113940000000  0.5369270000000  0.5546190000000 1.0
C      1  0.4829480000000  0.5154780000000  0.4725860000000 1.0
C      1  0.4855890000000  0.4804740000000  0.5201290000000 1.0
C      1  0.5127210000000  0.5143870000000  0.4779510000000 1.0
C      1  0.5185960000000  0.4874160000000  0.5191820000000 1.0
C      1  0.4848140000000  0.4324740000000  0.4417230000000 1.0
C      1  0.4902550000000  0.5675890000000  0.5606790000000 1.0
C      1  0.5124600000000  0.4339430000000  0.4433340000000 1.0
C      1  0.5188730000000  0.5683390000000  0.5607530000000 1.0
C      1  0.5772680000000  0.5436980000000  0.4602270000000 1.0
C      1  0.5642260000000  0.4645210000000  0.5340510000000 1.0
C      1  0.4234020000000  0.5400360000000  0.4563490000000 1.0
C      1  0.4254900000000  0.4588500000000  0.5329700000000 1.0
C      1  0.5181530000000  0.3958510000000  0.5123130000000 1.0
C      1  0.5123220000000  0.5911190000000  0.4879870000000 1.0
C      1  0.4845570000000  0.3986610000000  0.5091040000000 1.0
C      1  0.4825350000000  0.5865910000000  0.4833540000000 1.0
C      1  0.5533280000000  0.4382800000000  0.4528560000000 1.0
C      1  0.5583420000000  0.5548030000000  0.5466040000000 1.0
C      1  0.4449370000000  0.4469680000000  0.4520600000000 1.0
C      1  0.4395040000000  0.5531880000000  0.5440080000000 1.0
C      1  0.5323960000000  0.4132990000000  0.5367410000000 1.0
C      1  0.5294300000000  0.5804350000000  0.4641660000000 1.0
C      1  0.4666790000000  0.4089940000000  0.5338300000000 1.0
C      1  0.4663430000000  0.5822810000000  0.4606230000000 1.0
C      1  0.4756940000000  0.5352830000000  0.5429300000000 1.0
C      1  0.4910180000000  0.4682520000000  0.4583980000000 1.0
C      1  0.5072940000000  0.5341060000000  0.5372340000000 1.0
C      1  0.5245800000000  0.4659270000000  0.4640090000000 1.0
C      1  0.4757310000000  0.4575390000000  0.4299690000000 1.0
C      1  0.4843090000000  0.5395440000000  0.5746830000000 1.0
C      1  0.5199810000000  0.4612710000000  0.4319330000000 1.0
C      1  0.5291190000000  0.5461860000000  0.5761650000000 1.0
C      1  0.5585090000000  0.5068770000000  0.4249710000000 1.0
C      1  0.5540100000000  0.4962170000000  0.5744630000000 1.0
C      1  0.4431380000000  0.5066360000000  0.4220710000000 1.0
C      1  0.4436480000000  0.4956140000000  0.5764570000000 1.0
C      1  0.5306110000000  0.5086980000000  0.4146130000000 1.0
C      1  0.5307820000000  0.5146570000000  0.5905250000000 1.0
C      1  0.4689580000000  0.5082490000000  0.4065160000000 1.0
C      1  0.4670190000000  0.4891150000000  0.5899450000000 1.0
C      1  0.5558970000000  0.4699260000000  0.4650590000000 1.0
C      1  0.5516640000000  0.5138890000000  0.5386830000000 1.0
C      1  0.4606800000000  0.4834520000000  0.4561660000000 1.0
C      1  0.4654380000000  0.5047980000000  0.5442680000000 1.0
C      1  0.5158960000000  0.5707120000000  0.4413450000000 1.0
C      1  0.5140860000000  0.4354160000000  0.5549820000000 1.0
C      1  0.4825040000000  0.5668890000000  0.4382830000000 1.0
C      1  0.4804370000000  0.4302200000000  0.5548240000000 1.0
C      1  0.5438790000000  0.5128900000000  0.4911570000000 1.0
C      1  0.5522090000000  0.4896360000000  0.5145240000000 1.0
C      1  0.4491760000000  0.5243720000000  0.5003040000000 1.0
C      1  0.4569030000000  0.4950760000000  0.5127860000000 1.0
C      1  0.5238880000000  0.5183040000000  0.5574220000000 1.0
C      1  0.5147670000000  0.4934000000000  0.4369490000000 1.0
C      1  0.4925980000000  0.5077270000000  0.5655510000000 1.0
C      1  0.4827920000000  0.4996260000000  0.4359880000000 1.0
C      1  0.5557810000000  0.5364310000000  0.4400520000000 1.0
C      1  0.5589950000000  0.4670670000000  0.5646720000000 1.0
C      1  0.4381010000000  0.5329770000000  0.4312740000000 1.0
C      1  0.4320830000000  0.4716800000000  0.5623160000000 1.0
C      1  0.4881550000000  0.5305150000000  0.4228630000000 1.0
C      1  0.4907300000000  0.4764560000000  0.5718430000000 1.0
C      1  0.5167220000000  0.5333960000000  0.4132230000000 1.0
C      1  0.5224710000000  0.4837560000000  0.5769390000000 1.0
C      1  0.5759060000000  0.5503160000000  0.4935500000000 1.0
C      1  0.5791290000000  0.4452400000000  0.5026280000000 1.0
C      1  0.4196070000000  0.5483820000000  0.4890920000000 1.0
C      1  0.4367000000000  0.4548400000000  0.5025690000000 1.0
C      1  0.4398390000000  0.4747760000000  0.4322450000000 1.0
C      1  0.4416900000000  0.5228590000000  0.5592400000000 1.0
C      1  0.5669260000000  0.4828240000000  0.4354040000000 1.0
C      1  0.5633130000000  0.5279140000000  0.5673820000000 1.0
C      1  0.4890320000000  0.5957550000000  0.5323170000000 1.0
C      1  0.4792150000000  0.3945910000000  0.4752520000000 1.0
C      1  0.5142350000000  0.5955610000000  0.5200560000000 1.0
C      1  0.5106200000000  0.3958090000000  0.4791030000000 1.0
C      1  0.5364370000000  0.5739620000000  0.5322620000000 1.0
C      1  0.5306850000000  0.4195780000000  0.4653070000000 1.0
C      1  0.4646870000000  0.5729400000000  0.5388970000000 1.0
C      1  0.4660380000000  0.4234850000000  0.4646970000000 1.0
C      1  0.4084360000000  0.4855380000000  0.5417110000000 1.0
C      1  0.4060040000000  0.5153140000000  0.4678010000000 1.0
C      1  0.5853410000000  0.4849210000000  0.5458550000000 1.0
C      1  0.5945190000000  0.5196920000000  0.4758010000000 1.0
C      1  0.5705940000000  0.4736800000000  0.4907730000000 1.0
C      1  0.5652730000000  0.5276630000000  0.5107300000000 1.0
C      1  0.4434310000000  0.4805230000000  0.4854710000000 1.0
C      1  0.4257240000000  0.5363160000000  0.5178510000000 1.0
C      1  0.5318870000000  0.5180370000000  0.4533690000000 1.0
C      1  0.5206690000000  0.4678500000000  0.5469300000000 1.0
C      1  0.4748640000000  0.5374120000000  0.4534110000000 1.0
C      1  0.4805910000000  0.4631670000000  0.5464190000000 1.0
C      1  0.4408040000000  0.4297640000000  0.5258390000000 1.0
C      1  0.4366930000000  0.5691500000000  0.4682860000000 1.0
C      1  0.5584750000000  0.4321550000000  0.5256920000000 1.0
C      1  0.5593700000000  0.5703430000000  0.4716000000000 1.0
C      1  0.5891290000000  0.5000260000000  0.4947330000000 1.0
C      1  0.5892620000000  0.5090890000000  0.5260930000000 1.0
C      1  0.4147680000000  0.4908120000000  0.4736210000000 1.0
C      1  0.4080200000000  0.5121530000000  0.5341370000000 1.0
C      1  0.4693230000000  0.4458580000000  0.5198880000000 1.0
C      1  0.4605420000000  0.5491390000000  0.4819520000000 1.0
C      1  0.5299770000000  0.4492170000000  0.5212190000000 1.0
C      1  0.5405630000000  0.5425800000000  0.4769700000000 1.0
C      1  0.5307430000000  0.4238710000000  0.4982270000000 1.0
C      1  0.5285620000000  0.5640060000000  0.5005340000000 1.0
C      1  0.4784550000000  0.4284770000000  0.4956020000000 1.0
C      1  0.4723150000000  0.5689170000000  0.5075570000000 1.0
C      1  0.4855910000000  0.4864320000000  0.4866270000000 1.0
C      1  0.4768470000000  0.5296090000000  0.5124270000000 1.0
C      1  0.5123260000000  0.4694300000000  0.4918500000000 1.0
C      1  0.5084290000000  0.5174640000000  0.5088980000000 1.0
C      1  0.4522890000000  0.4447700000000  0.5672800000000 1.0
C      1  0.4554540000000  0.5534680000000  0.4226030000000 1.0
C      1  0.5409250000000  0.4457900000000  0.5731920000000 1.0
C      1  0.5312470000000  0.5529810000000  0.4265600000000 1.0
C      1  0.5002720000000  0.5514480000000  0.5020570000000 1.0
C      1  0.5045900000000  0.4420510000000  0.5014250000000 1.0
END
