TITL C-2622955-8511-401 0.000548414663875835 125000 -407.388903288347 0 0 75 (C1) n - 1
REM
REM in /nfs/bkarasulu/CARBON/AIRSS/Generating-Clusters/AIREBO/with-SteepDescent/Higher-Symm/SD-CG/HFTN-CG
REM
REM
REM
REM
REM
REM ./C.cell (b20cbc046b6831c77cfcea5457e17084)
REM
REM compiler GCC version 9.2.1 20190827 (Red Hat 9.2.1-1)
REM options -cpp -mtune=generic -march=x86-64 -g -O0 -fpre-include=/usr/include/finclude/math-vector-fortran.h
REM seed 1516094948 -1176802314 -1510992963 1640184360 -1525319658 -1351253806 443015106 1349677411 1164139654 -1194936946 24894537 -488937469 -615365057 -1958894581 -1197752774 1766022357 -1779002774 -1239874883 472619038 1288554262 -411604056 1931218946 -1579634662 -439534830 -1793990124 -1496346343 1718438562 755176723 820955343 -1116754282 -386199199 -778267875 1476593186
REM
CELL 1.54180   50.00000   50.00000   50.00000   90.00000   90.00000   90.00000
LATT -1
SFAC C  
C      1  0.4626370000000  0.4294180000000  0.5338880000000 1.0
C      1  0.5425090000000  0.4269530000000  0.4709600000000 1.0
C      1  0.5100940000000  0.5532940000000  0.4645390000000 1.0
C      1  0.5013760000000  0.5503090000000  0.5302240000000 1.0
C      1  0.5831410000000  0.5006120000000  0.4960550000000 1.0
C      1  0.4192070000000  0.5062520000000  0.5030980000000 1.0
C      1  0.5057280000000  0.5444730000000  0.4354970000000 1.0
C      1  0.5042490000000  0.5608010000000  0.5570960000000 1.0
C      1  0.4668320000000  0.5260230000000  0.4544040000000 1.0
C      1  0.5433510000000  0.5397610000000  0.5383540000000 1.0
C      1  0.5243460000000  0.5330780000000  0.5019490000000 1.0
C      1  0.4713360000000  0.5381540000000  0.5001160000000 1.0
C      1  0.5304790000000  0.5113160000000  0.4792300000000 1.0
C      1  0.4766930000000  0.5085610000000  0.5112730000000 1.0
C      1  0.5498940000000  0.4796840000000  0.4059820000000 1.0
C      1  0.4602730000000  0.5160380000000  0.5829330000000 1.0
C      1  0.5282160000000  0.4904600000000  0.4565870000000 1.0
C      1  0.4890420000000  0.4982420000000  0.5388730000000 1.0
C      1  0.5011910000000  0.4406290000000  0.4392190000000 1.0
C      1  0.4883590000000  0.4544780000000  0.5695970000000 1.0
C      1  0.4543960000000  0.5007330000000  0.4649790000000 1.0
C      1  0.5450500000000  0.5101220000000  0.5271350000000 1.0
C      1  0.5139500000000  0.4230030000000  0.5218140000000 1.0
C      1  0.4807620000000  0.4217990000000  0.4675080000000 1.0
C      1  0.4083830000000  0.5311780000000  0.5058470000000 1.0
C      1  0.5978160000000  0.5223500000000  0.4883450000000 1.0
C      1  0.4569910000000  0.4739130000000  0.5107080000000 1.0
C      1  0.5383530000000  0.4735320000000  0.4891710000000 1.0
C      1  0.5334560000000  0.4852430000000  0.4248880000000 1.0
C      1  0.4817250000000  0.5116270000000  0.5675320000000 1.0
C      1  0.5243430000000  0.5384710000000  0.5606880000000 1.0
C      1  0.4903110000000  0.5205010000000  0.4313300000000 1.0
C      1  0.5456450000000  0.4579450000000  0.5187380000000 1.0
C      1  0.4466790000000  0.4582280000000  0.4820140000000 1.0
C      1  0.5745390000000  0.4544800000000  0.5059260000000 1.0
C      1  0.4210730000000  0.4585520000000  0.5022230000000 1.0
C      1  0.5237720000000  0.4873140000000  0.5617280000000 1.0
C      1  0.4828440000000  0.4677560000000  0.4368810000000 1.0
C      1  0.4671240000000  0.4471820000000  0.4589630000000 1.0
C      1  0.5239890000000  0.4464890000000  0.5314670000000 1.0
C      1  0.5121360000000  0.5127110000000  0.5681160000000 1.0
C      1  0.5023750000000  0.4921560000000  0.4344860000000 1.0
C      1  0.5564060000000  0.4467780000000  0.4820530000000 1.0
C      1  0.4428530000000  0.4449420000000  0.5196520000000 1.0
C      1  0.6115870000000  0.5423660000000  0.4785200000000 1.0
C      1  0.3985030000000  0.5548960000000  0.5110140000000 1.0
C      1  0.5536770000000  0.5018190000000  0.4999240000000 1.0
C      1  0.4478850000000  0.5011780000000  0.4964000000000 1.0
C      1  0.5128370000000  0.4306620000000  0.4688770000000 1.0
C      1  0.4814840000000  0.4549160000000  0.5211510000000 1.0
C      1  0.4651470000000  0.5527320000000  0.4742600000000 1.0
C      1  0.5373950000000  0.5595380000000  0.5157420000000 1.0
C      1  0.4530810000000  0.4804780000000  0.4422760000000 1.0
C      1  0.5479960000000  0.4891660000000  0.5492570000000 1.0
C      1  0.5013650000000  0.4673080000000  0.5457950000000 1.0
C      1  0.4751650000000  0.4758300000000  0.4752160000000 1.0
C      1  0.5930520000000  0.4755490000000  0.5041870000000 1.0
C      1  0.4054230000000  0.4815650000000  0.5035650000000 1.0
C      1  0.4952450000000  0.5271950000000  0.4699870000000 1.0
C      1  0.5115720000000  0.5179310000000  0.5283000000000 1.0
C      1  0.4753560000000  0.5779680000000  0.4737030000000 1.0
C      1  0.5288680000000  0.5826700000000  0.5048130000000 1.0
C      1  0.4961740000000  0.4460220000000  0.4945910000000 1.0
C      1  0.4869850000000  0.6155410000000  0.5097260000000 1.0
C      1  0.4925860000000  0.4123760000000  0.4979720000000 1.0
C      1  0.4793370000000  0.6390220000000  0.5190480000000 1.0
C      1  0.4989020000000  0.5047600000000  0.4900250000000 1.0
C      1  0.5078310000000  0.4743780000000  0.4845400000000 1.0
C      1  0.4968960000000  0.5902980000000  0.4968190000000 1.0
C      1  0.4833790000000  0.3566040000000  0.5011230000000 1.0
C      1  0.4777840000000  0.3310030000000  0.5016410000000 1.0
C      1  0.4864820000000  0.3828050000000  0.5003730000000 1.0
C      1  0.4710500000000  0.6614890000000  0.5307160000000 1.0
C      1  0.4998230000000  0.5564220000000  0.4968110000000 1.0
C      1  0.4618710000000  0.6842410000000  0.5399430000000 1.0
END
