TITL C-2622953-3516-417 0.000791195228422134 125000 -217.597812255826 0 0 42 (C1) n - 1
REM
REM in /nfs/bkarasulu/CARBON/AIRSS/Generating-Clusters/AIREBO/with-SteepDescent/Higher-Symm/SD-CG/HFTN-CG
REM
REM
REM
REM
REM
REM ./C.cell (b20cbc046b6831c77cfcea5457e17084)
REM
REM compiler GCC version 9.2.1 20190827 (Red Hat 9.2.1-1)
REM options -cpp -mtune=generic -march=x86-64 -g -O0 -fpre-include=/usr/include/finclude/math-vector-fortran.h
REM seed 1303663113 869438039 1276601603 -26218312 -825358622 -1311001241 359095173 -2138791807 -13211344 793400557 -1752070832 -1794795998 -1632295878 1733734971 -1042751079 -1571204212 -82407417 2072467893 801442624 758365107 -597943799 -1579999906 -1483869210 1097570176 10900181 -1084668165 945120904 1563611648 500643718 762715295 -792677582 1358878067 -257045758
REM
CELL 1.54180   50.00000   50.00000   50.00000   90.00000   90.00000   90.00000
LATT -1
SFAC C  
C      1  0.5377040000000  0.5248120000000  0.4768320000000 1.0
C      1  0.5456250000000  0.4979370000000  0.4694000000000 1.0
C      1  0.5267630000000  0.4734310000000  0.4720320000000 1.0
C      1  0.5264590000000  0.4638300000000  0.5011740000000 1.0
C      1  0.5260300000000  0.4848270000000  0.5279280000000 1.0
C      1  0.5411390000000  0.5117310000000  0.5296100000000 1.0
C      1  0.5312630000000  0.5325810000000  0.5121600000000 1.0
C      1  0.4604660000000  0.5642830000000  0.4885050000000 1.0
C      1  0.4653810000000  0.5372490000000  0.4340420000000 1.0
C      1  0.4558640000000  0.4670190000000  0.4429610000000 1.0
C      1  0.4638400000000  0.4420500000000  0.4903330000000 1.0
C      1  0.4798740000000  0.4548750000000  0.5412150000000 1.0
C      1  0.4637560000000  0.5028330000000  0.5630110000000 1.0
C      1  0.4536550000000  0.5446490000000  0.5371850000000 1.0
C      1  0.5573440000000  0.5502040000000  0.4744660000000 1.0
C      1  0.5708040000000  0.4933340000000  0.4628680000000 1.0
C      1  0.5374060000000  0.4523960000000  0.4554510000000 1.0
C      1  0.5542770000000  0.4591040000000  0.5166570000000 1.0
C      1  0.5504730000000  0.4656170000000  0.5432580000000 1.0
C      1  0.5583590000000  0.5160940000000  0.5489550000000 1.0
C      1  0.5496840000000  0.5544870000000  0.5007260000000 1.0
C      1  0.4633730000000  0.4848600000000  0.4690210000000 1.0
C      1  0.4611690000000  0.4691990000000  0.4941000000000 1.0
C      1  0.4718180000000  0.4785770000000  0.5203050000000 1.0
C      1  0.4620020000000  0.5057990000000  0.5329110000000 1.0
C      1  0.4644750000000  0.5288600000000  0.5103570000000 1.0
C      1  0.4523910000000  0.5367830000000  0.4838840000000 1.0
C      1  0.4602530000000  0.5179430000000  0.4617500000000 1.0
C      1  0.4730530000000  0.5407920000000  0.5547210000000 1.0
C      1  0.4845720000000  0.5672520000000  0.5029360000000 1.0
C      1  0.4911910000000  0.5403580000000  0.4499850000000 1.0
C      1  0.4836700000000  0.4641660000000  0.4414600000000 1.0
C      1  0.4889360000000  0.4302780000000  0.4892410000000 1.0
C      1  0.5006580000000  0.4383640000000  0.5340290000000 1.0
C      1  0.4879430000000  0.4928110000000  0.5695250000000 1.0
C      1  0.5076280000000  0.5312070000000  0.4784850000000 1.0
C      1  0.4930610000000  0.5093020000000  0.4605760000000 1.0
C      1  0.4992330000000  0.4806990000000  0.4610850000000 1.0
C      1  0.5086830000000  0.4396420000000  0.5069410000000 1.0
C      1  0.4984030000000  0.4901370000000  0.5381260000000 1.0
C      1  0.4937640000000  0.5228800000000  0.5413030000000 1.0
C      1  0.4975590000000  0.5367490000000  0.5104880000000 1.0
END
