TITL C-2622961-1971-491 0.000190890349231703 125000 -247.845863656458 0 0 42 (C3) n - 1
REM
REM in /nfs/bkarasulu/CARBON/AIRSS/Generating-Clusters/AIREBO/with-SteepDescent/Higher-Symm/SD-CG/HFTN-CG
REM
REM
REM
REM
REM
REM ./C.cell (b20cbc046b6831c77cfcea5457e17084)
REM
REM compiler GCC version 9.2.1 20190827 (Red Hat 9.2.1-1)
REM options -cpp -mtune=generic -march=x86-64 -g -O0 -fpre-include=/usr/include/finclude/math-vector-fortran.h
REM seed -1525117633 -194586544 1041769672 833212522 -34511555 655532298 1021875822 -1733174049 -362483059 -697012811 -669103312 660218879 -207260737 -1417503147 -876993384 -2075657615 2107657486 -1460442717 -730048753 -1380741815 -1977289794 1290957275 1127051279 352754544 -2122021662 -1517648941 -1687855826 -622281718 621763512 1926284859 -2117099148 607835322 661318080
REM
CELL 1.54180   50.00000   50.00000   50.00000   90.00000   90.00000   90.00000
LATT -1
SFAC C  
C      1  0.5339040000000  0.5278330000000  0.5237310000000 1.0
C      1  0.4867720000000  0.5528480000000  0.4814780000000 1.0
C      1  0.4589610000000  0.5154560000000  0.5237540000000 1.0
C      1  0.4608330000000  0.4621120000000  0.4815240000000 1.0
C      1  0.5071520000000  0.4567420000000  0.5237680000000 1.0
C      1  0.5523820000000  0.4850160000000  0.4814920000000 1.0
C      1  0.5369520000000  0.5371820000000  0.4568730000000 1.0
C      1  0.4970480000000  0.5526420000000  0.5421660000000 1.0
C      1  0.4492920000000  0.5133920000000  0.4569040000000 1.0
C      1  0.4559170000000  0.4711410000000  0.5422110000000 1.0
C      1  0.5137250000000  0.4493710000000  0.4569160000000 1.0
C      1  0.5470650000000  0.4762720000000  0.5421870000000 1.0
C      1  0.5493230000000  0.5446420000000  0.4333160000000 1.0
C      1  0.5009760000000  0.5652770000000  0.5663830000000 1.0
C      1  0.4366290000000  0.5203650000000  0.4333530000000 1.0
C      1  0.4430290000000  0.4682360000000  0.5664390000000 1.0
C      1  0.5140000000000  0.4349070000000  0.4333720000000 1.0
C      1  0.5560430000000  0.4665730000000  0.5664120000000 1.0
C      1  0.5174010000000  0.5525250000000  0.4683500000000 1.0
C      1  0.4732120000000  0.5416400000000  0.5339580000000 1.0
C      1  0.4457880000000  0.4887930000000  0.4683950000000 1.0
C      1  0.4773570000000  0.4559960000000  0.5339950000000 1.0
C      1  0.5367880000000  0.4586410000000  0.4683860000000 1.0
C      1  0.5494550000000  0.5024080000000  0.5339570000000 1.0
C      1  0.4324700000000  0.4671940000000  0.5904050000000 1.0
C      1  0.5140560000000  0.4234480000000  0.4098000000000 1.0
C      1  0.5622430000000  0.4579610000000  0.5903780000000 1.0
C      1  0.5592020000000  0.5504090000000  0.4097340000000 1.0
C      1  0.5053520000000  0.5749630000000  0.5903410000000 1.0
C      1  0.4266770000000  0.5260250000000  0.4097760000000 1.0
C      1  0.5139910000000  0.5614250000000  0.4982740000000 1.0
C      1  0.4648540000000  0.5397930000000  0.5019640000000 1.0
C      1  0.4398080000000  0.4814030000000  0.4983270000000 1.0
C      1  0.4831130000000  0.4496670000000  0.5019980000000 1.0
C      1  0.5462010000000  0.4571700000000  0.4983120000000 1.0
C      1  0.5520350000000  0.5105430000000  0.5019550000000 1.0
C      1  0.4909140000000  0.4554080000000  0.4700370000000 1.0
C      1  0.5338980000000  0.4593220000000  0.5231330000000 1.0
C      1  0.5431390000000  0.5144140000000  0.4699990000000 1.0
C      1  0.5182960000000  0.5497060000000  0.5230980000000 1.0
C      1  0.4659250000000  0.5301390000000  0.4700100000000 1.0
C      1  0.4478220000000  0.4910030000000  0.5231400000000 1.0
END
