TITL C-2622963-3633-543 -0.000884980225600688 125000 -775.006452567137 0 0 139 (C1) n - 1
REM
REM in /nfs/bkarasulu/CARBON/AIRSS/Generating-Clusters/AIREBO/with-SteepDescent/Higher-Symm/SD-CG/HFTN-CG
REM
REM
REM
REM
REM
REM ./C.cell (b20cbc046b6831c77cfcea5457e17084)
REM
REM compiler GCC version 9.2.1 20190827 (Red Hat 9.2.1-1)
REM options -cpp -mtune=generic -march=x86-64 -g -O0 -fpre-include=/usr/include/finclude/math-vector-fortran.h
REM seed -796519220 -975360012 2074349155 -1354942283 1891738138 1174792693 -1621361546 -596165862 560693043 233383751 1373376800 -722032989 -871640998 1782266451 558089801 -161042800 -807227055 -63903122 -1997705808 -785649647 1666529325 -544850824 -1367911832 2078943675 -2032590215 -449718826 1190640067 -1692343370 1954516992 -1164251062 1979625267 -746604421 -1013556976
REM
CELL 1.54180   50.00000   50.00000   50.00000   90.00000   90.00000   90.00000
LATT -1
SFAC C  
C      1  0.4922280000000  0.5022910000000  0.5886400000000 1.0
C      1  0.5920050000000  0.5035450000000  0.5359730000000 1.0
C      1  0.5567570000000  0.5007090000000  0.4302280000000 1.0
C      1  0.4582330000000  0.5064820000000  0.4242380000000 1.0
C      1  0.4099410000000  0.5014890000000  0.5200090000000 1.0
C      1  0.4221900000000  0.5527520000000  0.5343890000000 1.0
C      1  0.5107690000000  0.5519650000000  0.5792110000000 1.0
C      1  0.5841060000000  0.5529480000000  0.5149450000000 1.0
C      1  0.5409780000000  0.5511600000000  0.4250240000000 1.0
C      1  0.4418630000000  0.5551810000000  0.4384270000000 1.0
C      1  0.5458510000000  0.5905880000000  0.5064570000000 1.0
C      1  0.5179990000000  0.5893540000000  0.4710040000000 1.0
C      1  0.4758950000000  0.5872760000000  0.4769540000000 1.0
C      1  0.4576550000000  0.5907460000000  0.5188820000000 1.0
C      1  0.5032850000000  0.5863470000000  0.5269560000000 1.0
C      1  0.5343360000000  0.5735630000000  0.5335560000000 1.0
C      1  0.5475430000000  0.5736240000000  0.4770340000000 1.0
C      1  0.4941370000000  0.5708810000000  0.4533900000000 1.0
C      1  0.4472160000000  0.5749530000000  0.4906300000000 1.0
C      1  0.4755420000000  0.5721350000000  0.5410170000000 1.0
C      1  0.4900600000000  0.5679870000000  0.5714900000000 1.0
C      1  0.5676940000000  0.5669810000000  0.5324080000000 1.0
C      1  0.5534310000000  0.5665800000000  0.4442740000000 1.0
C      1  0.4651860000000  0.5688930000000  0.4356630000000 1.0
C      1  0.4213740000000  0.5687040000000  0.5118430000000 1.0
C      1  0.4513410000000  0.5306610000000  0.5182530000000 1.0
C      1  0.5030020000000  0.5300290000000  0.5467040000000 1.0
C      1  0.5497890000000  0.5328670000000  0.5114780000000 1.0
C      1  0.5313200000000  0.5335840000000  0.4596250000000 1.0
C      1  0.4701570000000  0.5336830000000  0.4668600000000 1.0
C      1  0.4402060000000  0.4257080000000  0.4888990000000 1.0
C      1  0.4717120000000  0.4242340000000  0.5542660000000 1.0
C      1  0.5456240000000  0.4208130000000  0.5464260000000 1.0
C      1  0.5570610000000  0.4249570000000  0.4723120000000 1.0
C      1  0.4920450000000  0.4266860000000  0.4405090000000 1.0
C      1  0.5268130000000  0.5013770000000  0.4039760000000 1.0
C      1  0.4247980000000  0.5047740000000  0.4456090000000 1.0
C      1  0.4245430000000  0.5030210000000  0.5568370000000 1.0
C      1  0.5317680000000  0.5023330000000  0.5843060000000 1.0
C      1  0.5888860000000  0.5017350000000  0.4963210000000 1.0
C      1  0.5685260000000  0.4867370000000  0.5269830000000 1.0
C      1  0.5327910000000  0.4854770000000  0.4489950000000 1.0
C      1  0.4627360000000  0.4865320000000  0.4514490000000 1.0
C      1  0.4389440000000  0.4855260000000  0.5229450000000 1.0
C      1  0.5017870000000  0.4848960000000  0.5612430000000 1.0
C      1  0.5848890000000  0.5250920000000  0.5781360000000 1.0
C      1  0.5994940000000  0.5221440000000  0.4428250000000 1.0
C      1  0.4794010000000  0.5197930000000  0.4008990000000 1.0
C      1  0.3862610000000  0.5228430000000  0.4833420000000 1.0
C      1  0.4521190000000  0.5262780000000  0.6041460000000 1.0
C      1  0.4656580000000  0.4922160000000  0.3942810000000 1.0
C      1  0.3894360000000  0.5016880000000  0.5008060000000 1.0
C      1  0.4694880000000  0.5045810000000  0.6053090000000 1.0
C      1  0.5989060000000  0.5070950000000  0.5628450000000 1.0
C      1  0.5848470000000  0.5009910000000  0.4326060000000 1.0
C      1  0.4967460000000  0.4623440000000  0.4649490000000 1.0
C      1  0.4611410000000  0.4610850000000  0.4976190000000 1.0
C      1  0.4831400000000  0.4618700000000  0.5335060000000 1.0
C      1  0.5141880000000  0.4617750000000  0.5202450000000 1.0
C      1  0.5308210000000  0.4668950000000  0.4946730000000 1.0
C      1  0.4466670000000  0.5609360000000  0.5550960000000 1.0
C      1  0.5370630000000  0.5584270000000  0.5638880000000 1.0
C      1  0.5782540000000  0.5607170000000  0.4839240000000 1.0
C      1  0.5087330000000  0.5593870000000  0.4247790000000 1.0
C      1  0.4281590000000  0.5622820000000  0.4654470000000 1.0
C      1  0.4541760000000  0.4639680000000  0.5700300000000 1.0
C      1  0.5493250000000  0.4640090000000  0.5601510000000 1.0
C      1  0.5873190000000  0.4607420000000  0.4666820000000 1.0
C      1  0.4941870000000  0.4674280000000  0.4183370000000 1.0
C      1  0.4192890000000  0.4651770000000  0.4776800000000 1.0
C      1  0.4437980000000  0.5111270000000  0.4933100000000 1.0
C      1  0.4747500000000  0.5117540000000  0.5516280000000 1.0
C      1  0.5410250000000  0.5063530000000  0.5308760000000 1.0
C      1  0.5460460000000  0.5122930000000  0.4749290000000 1.0
C      1  0.4903500000000  0.5148410000000  0.4532880000000 1.0
C      1  0.4494490000000  0.4257770000000  0.4616310000000 1.0
C      1  0.4511300000000  0.4271210000000  0.5344930000000 1.0
C      1  0.5192690000000  0.4241330000000  0.5600350000000 1.0
C      1  0.5642360000000  0.4254710000000  0.5003810000000 1.0
C      1  0.5203670000000  0.4300400000000  0.4432080000000 1.0
C      1  0.4498480000000  0.4556690000000  0.4452430000000 1.0
C      1  0.4308330000000  0.4540710000000  0.5299700000000 1.0
C      1  0.5082090000000  0.4536190000000  0.5729400000000 1.0
C      1  0.5722660000000  0.4550090000000  0.5152420000000 1.0
C      1  0.5393890000000  0.4563470000000  0.4365160000000 1.0
C      1  0.5067700000000  0.5281760000000  0.4091130000000 1.0
C      1  0.4054260000000  0.5389430000000  0.4751680000000 1.0
C      1  0.4491080000000  0.5403210000000  0.5820340000000 1.0
C      1  0.5630220000000  0.5377950000000  0.5714180000000 1.0
C      1  0.5900680000000  0.5378840000000  0.4616600000000 1.0
C      1  0.5280340000000  0.4783800000000  0.5433420000000 1.0
C      1  0.5537710000000  0.4897660000000  0.4968510000000 1.0
C      1  0.5022530000000  0.4865670000000  0.4425880000000 1.0
C      1  0.4450480000000  0.4832670000000  0.4774920000000 1.0
C      1  0.4605570000000  0.4829750000000  0.5457010000000 1.0
C      1  0.4988500000000  0.4002650000000  0.5233060000000 1.0
C      1  0.5275930000000  0.4139870000000  0.5114080000000 1.0
C      1  0.5157620000000  0.4023380000000  0.4821360000000 1.0
C      1  0.4851030000000  0.3963300000000  0.4779490000000 1.0
C      1  0.4739760000000  0.3951530000000  0.5042060000000 1.0
C      1  0.4221960000000  0.4760840000000  0.4460530000000 1.0
C      1  0.4243260000000  0.4732580000000  0.5580010000000 1.0
C      1  0.5331670000000  0.4747150000000  0.5835700000000 1.0
C      1  0.5889750000000  0.4718020000000  0.4921270000000 1.0
C      1  0.5240730000000  0.4742980000000  0.4116380000000 1.0
C      1  0.4520550000000  0.4115780000000  0.5102320000000 1.0
C      1  0.4958750000000  0.4100100000000  0.5507390000000 1.0
C      1  0.5549270000000  0.4045390000000  0.5218920000000 1.0
C      1  0.5333080000000  0.4138200000000  0.4619090000000 1.0
C      1  0.4741560000000  0.4117350000000  0.4572780000000 1.0
C      1  0.4608930000000  0.5470970000000  0.4930270000000 1.0
C      1  0.4789550000000  0.5435900000000  0.5281920000000 1.0
C      1  0.5245880000000  0.5445060000000  0.5255580000000 1.0
C      1  0.5319530000000  0.5478370000000  0.4866700000000 1.0
C      1  0.4989880000000  0.5478500000000  0.4779460000000 1.0
C      1  0.4777090000000  0.4472970000000  0.4275540000000 1.0
C      1  0.4225900000000  0.4459120000000  0.4978290000000 1.0
C      1  0.4750300000000  0.4455470000000  0.5727070000000 1.0
C      1  0.5616870000000  0.4446250000000  0.5458740000000 1.0
C      1  0.5657870000000  0.4462140000000  0.4552830000000 1.0
C      1  0.5464040000000  0.5250870000000  0.4131000000000 1.0
C      1  0.4363240000000  0.5297610000000  0.4279290000000 1.0
C      1  0.4102270000000  0.5267420000000  0.5380380000000 1.0
C      1  0.5110990000000  0.5264220000000  0.5912010000000 1.0
C      1  0.5960570000000  0.5271030000000  0.5178120000000 1.0
C      1  0.4479860000000  0.5269760000000  0.5507790000000 1.0
C      1  0.5343340000000  0.5246280000000  0.5587600000000 1.0
C      1  0.5703180000000  0.5275690000000  0.4873450000000 1.0
C      1  0.5102900000000  0.5314950000000  0.4411530000000 1.0
C      1  0.4366780000000  0.5277860000000  0.4677280000000 1.0
C      1  0.5180610000000  0.4932430000000  0.4786750000000 1.0
C      1  0.4840550000000  0.4917670000000  0.4774640000000 1.0
C      1  0.4685550000000  0.4926870000000  0.5077620000000 1.0
C      1  0.4945300000000  0.4950480000000  0.5295810000000 1.0
C      1  0.5148660000000  0.5078850000000  0.5092090000000 1.0
C      1  0.4921980000000  0.4550830000000  0.4951890000000 1.0
C      1  0.4989100000000  0.4261020000000  0.5007100000000 1.0
C      1  0.4996180000000  0.5914590000000  0.4981710000000 1.0
C      1  0.5001860000000  0.5357540000000  0.5072160000000 1.0
END
