TITL C-2622963-3633-250 -0.00455965435087461 125000 -586.765724212357 0 0 106 (C1) n - 1
REM
REM in /nfs/bkarasulu/CARBON/AIRSS/Generating-Clusters/AIREBO/with-SteepDescent/Higher-Symm/SD-CG/HFTN-CG
REM
REM
REM
REM
REM
REM ./C.cell (b20cbc046b6831c77cfcea5457e17084)
REM
REM compiler GCC version 9.2.1 20190827 (Red Hat 9.2.1-1)
REM options -cpp -mtune=generic -march=x86-64 -g -O0 -fpre-include=/usr/include/finclude/math-vector-fortran.h
REM seed 1103272222 1531394677 -1989302504 -383840748 -544660503 -68191746 1101980913 -866003799 2145317386 235748417 1426538625 -1631970804 -72153052 1124970051 1118870249 106298341 794265342 -690347463 -1206432794 1451464034 870529174 1143449045 722663353 260541264 924530012 -1366386382 -1060179296 980049375 -243594409 56818275 -1888054409 1587229833 2088117466
REM
CELL 1.54180   50.00000   50.00000   50.00000   90.00000   90.00000   90.00000
LATT -1
SFAC C  
C      1  0.5579210000000  0.4663190000000  0.4627140000000 1.0
C      1  0.4387160000000  0.4627700000000  0.4589190000000 1.0
C      1  0.5252790000000  0.4978290000000  0.5542300000000 1.0
C      1  0.4758900000000  0.5045590000000  0.5618870000000 1.0
C      1  0.5174150000000  0.5308330000000  0.5520070000000 1.0
C      1  0.4832270000000  0.5335570000000  0.5502120000000 1.0
C      1  0.5348280000000  0.5765220000000  0.4912980000000 1.0
C      1  0.4571160000000  0.5717850000000  0.4861690000000 1.0
C      1  0.4708020000000  0.5223690000000  0.4246770000000 1.0
C      1  0.5307930000000  0.5240850000000  0.4300490000000 1.0
C      1  0.5741080000000  0.5149650000000  0.4617430000000 1.0
C      1  0.4281950000000  0.5109370000000  0.4479980000000 1.0
C      1  0.5313630000000  0.4400920000000  0.4471090000000 1.0
C      1  0.4828830000000  0.4422200000000  0.4584020000000 1.0
C      1  0.4907300000000  0.4583640000000  0.4308500000000 1.0
C      1  0.5227990000000  0.4559840000000  0.4229820000000 1.0
C      1  0.5143070000000  0.5350070000000  0.4555520000000 1.0
C      1  0.4877270000000  0.5250890000000  0.4518700000000 1.0
C      1  0.4606240000000  0.5548950000000  0.4602680000000 1.0
C      1  0.5463960000000  0.5635630000000  0.4634770000000 1.0
C      1  0.4882060000000  0.5529800000000  0.5776830000000 1.0
C      1  0.5174790000000  0.5524050000000  0.5783000000000 1.0
C      1  0.5127350000000  0.5663430000000  0.4595680000000 1.0
C      1  0.4865130000000  0.5642090000000  0.4439200000000 1.0
C      1  0.4814000000000  0.4858150000000  0.3990050000000 1.0
C      1  0.5095260000000  0.4941660000000  0.4050950000000 1.0
C      1  0.4668810000000  0.4396880000000  0.5047480000000 1.0
C      1  0.5295130000000  0.4419130000000  0.5019960000000 1.0
C      1  0.5704340000000  0.5336970000000  0.5040980000000 1.0
C      1  0.4285720000000  0.5358930000000  0.5069220000000 1.0
C      1  0.5907950000000  0.4878340000000  0.5181540000000 1.0
C      1  0.4097530000000  0.4892450000000  0.5204750000000 1.0
C      1  0.4846080000000  0.4686020000000  0.5923370000000 1.0
C      1  0.5183290000000  0.4645950000000  0.5906240000000 1.0
C      1  0.4506110000000  0.4466940000000  0.5365200000000 1.0
C      1  0.5448870000000  0.4392920000000  0.5386660000000 1.0
C      1  0.5147600000000  0.4670030000000  0.4890530000000 1.0
C      1  0.4812040000000  0.4631020000000  0.4851920000000 1.0
C      1  0.4231170000000  0.4918690000000  0.5449630000000 1.0
C      1  0.5748090000000  0.4903500000000  0.5414270000000 1.0
C      1  0.4929520000000  0.4169340000000  0.4594350000000 1.0
C      1  0.5199730000000  0.4154080000000  0.4535970000000 1.0
C      1  0.5656810000000  0.5433020000000  0.5344350000000 1.0
C      1  0.4413730000000  0.5423810000000  0.5351750000000 1.0
C      1  0.5502960000000  0.4721710000000  0.5366680000000 1.0
C      1  0.4447870000000  0.4711420000000  0.5558720000000 1.0
C      1  0.5189780000000  0.5703730000000  0.5378220000000 1.0
C      1  0.4901650000000  0.5644600000000  0.5378200000000 1.0
C      1  0.4305990000000  0.5183540000000  0.5530960000000 1.0
C      1  0.5699540000000  0.5162970000000  0.5543280000000 1.0
C      1  0.5131590000000  0.4416850000000  0.5452300000000 1.0
C      1  0.4831880000000  0.4470420000000  0.5403580000000 1.0
C      1  0.4659480000000  0.4829380000000  0.4621650000000 1.0
C      1  0.5243680000000  0.4709390000000  0.4596560000000 1.0
C      1  0.4729990000000  0.4795730000000  0.5388620000000 1.0
C      1  0.5260760000000  0.4670940000000  0.5600470000000 1.0
C      1  0.4569420000000  0.4656250000000  0.5871700000000 1.0
C      1  0.5435220000000  0.4711170000000  0.6069850000000 1.0
C      1  0.5839460000000  0.5096550000000  0.4999680000000 1.0
C      1  0.4080530000000  0.5132880000000  0.5042920000000 1.0
C      1  0.4347760000000  0.4436590000000  0.5086730000000 1.0
C      1  0.5600030000000  0.4450860000000  0.5091100000000 1.0
C      1  0.5897120000000  0.4615870000000  0.5066050000000 1.0
C      1  0.4084800000000  0.4642130000000  0.5074280000000 1.0
C      1  0.5177720000000  0.5136580000000  0.4961120000000 1.0
C      1  0.4890640000000  0.5089930000000  0.4984250000000 1.0
C      1  0.4368180000000  0.4852140000000  0.4338580000000 1.0
C      1  0.5528200000000  0.4946780000000  0.4456090000000 1.0
C      1  0.4626000000000  0.5628840000000  0.5179600000000 1.0
C      1  0.5434630000000  0.5614120000000  0.5159940000000 1.0
C      1  0.5105190000000  0.5881380000000  0.4941490000000 1.0
C      1  0.4848150000000  0.5807100000000  0.4989360000000 1.0
C      1  0.4219540000000  0.4525790000000  0.4798980000000 1.0
C      1  0.5755140000000  0.4476840000000  0.4801490000000 1.0
C      1  0.4899020000000  0.4228820000000  0.5186870000000 1.0
C      1  0.5141980000000  0.4205770000000  0.5078020000000 1.0
C      1  0.4699560000000  0.4849800000000  0.5086770000000 1.0
C      1  0.5398270000000  0.4812180000000  0.5054240000000 1.0
C      1  0.5138710000000  0.5427160000000  0.4103540000000 1.0
C      1  0.4887820000000  0.5486890000000  0.4198090000000 1.0
C      1  0.5139590000000  0.4957790000000  0.4387960000000 1.0
C      1  0.4808790000000  0.4908670000000  0.4326300000000 1.0
C      1  0.5562050000000  0.5372220000000  0.4449870000000 1.0
C      1  0.4457500000000  0.5320510000000  0.4420830000000 1.0
C      1  0.5425680000000  0.4764150000000  0.4187120000000 1.0
C      1  0.4579220000000  0.4582770000000  0.4317520000000 1.0
C      1  0.5642350000000  0.4907300000000  0.4836400000000 1.0
C      1  0.4202090000000  0.5083970000000  0.4750970000000 1.0
C      1  0.5300210000000  0.5043080000000  0.5249330000000 1.0
C      1  0.4452990000000  0.5015340000000  0.4970590000000 1.0
C      1  0.4483590000000  0.5111340000000  0.5739260000000 1.0
C      1  0.5473260000000  0.5095400000000  0.5737970000000 1.0
C      1  0.4776980000000  0.5259980000000  0.5189080000000 1.0
C      1  0.5263860000000  0.5358590000000  0.5191410000000 1.0
C      1  0.5371810000000  0.4919730000000  0.3932310000000 1.0
C      1  0.4526620000000  0.4869570000000  0.4045590000000 1.0
C      1  0.4611700000000  0.5584670000000  0.5572680000000 1.0
C      1  0.5428220000000  0.5532450000000  0.5549750000000 1.0
C      1  0.4743130000000  0.5115140000000  0.4724310000000 1.0
C      1  0.5349780000000  0.5128810000000  0.4682000000000 1.0
C      1  0.5587980000000  0.4900600000000  0.5986150000000 1.0
C      1  0.4408940000000  0.4905770000000  0.5919820000000 1.0
C      1  0.5209850000000  0.5013440000000  0.5936950000000 1.0
C      1  0.4945570000000  0.4954280000000  0.5837460000000 1.0
C      1  0.4508960000000  0.5323440000000  0.4837920000000 1.0
C      1  0.5508740000000  0.5383180000000  0.4842440000000 1.0
END
