TITL C-2622968-4806-443 -0.000860284877141606 125000 -831.75643320695 0 0 151 (C1) n - 1
REM
REM in /nfs/bkarasulu/CARBON/AIRSS/Generating-Clusters/AIREBO/with-SteepDescent/Higher-Symm/SD-CG/HFTN-CG
REM
REM
REM
REM
REM
REM ./C.cell (b20cbc046b6831c77cfcea5457e17084)
REM
REM compiler GCC version 9.2.1 20190827 (Red Hat 9.2.1-1)
REM options -cpp -mtune=generic -march=x86-64 -g -O0 -fpre-include=/usr/include/finclude/math-vector-fortran.h
REM seed -1258332946 -1706047880 1434064494 -1162873251 1665690350 1321597259 -9295561 1193199195 -521199643 556919203 -666514121 -322730418 2141032242 484340459 -1965890504 1264921007 -603936750 -998902361 1612551576 1103744061 -1259344201 1143755310 882303920 -1143173412 -2130844141 -852147962 344171444 375890767 1497194858 -304120561 -837962462 438464698 -1152451309
REM
CELL 1.54180   50.00000   50.00000   50.00000   90.00000   90.00000   90.00000
LATT -1
SFAC C  
C      1  0.4273650000000  0.4903940000000  0.4043770000000 1.0
C      1  0.5723180000000  0.5104590000000  0.5968460000000 1.0
C      1  0.5493540000000  0.4621340000000  0.4189110000000 1.0
C      1  0.4572520000000  0.5352540000000  0.5826150000000 1.0
C      1  0.5444120000000  0.5135930000000  0.4123520000000 1.0
C      1  0.4525760000000  0.4844060000000  0.5876660000000 1.0
C      1  0.5241220000000  0.4151670000000  0.4282280000000 1.0
C      1  0.4779230000000  0.5876820000000  0.5703860000000 1.0
C      1  0.4611840000000  0.5803560000000  0.4362950000000 1.0
C      1  0.5368780000000  0.4204570000000  0.5631950000000 1.0
C      1  0.4509060000000  0.5327200000000  0.4226990000000 1.0
C      1  0.5493430000000  0.4673400000000  0.5769160000000 1.0
C      1  0.5223410000000  0.5030910000000  0.3887170000000 1.0
C      1  0.4824720000000  0.4964000000000  0.6113170000000 1.0
C      1  0.4695460000000  0.5066710000000  0.5748980000000 1.0
C      1  0.5294130000000  0.4864550000000  0.4242440000000 1.0
C      1  0.4639970000000  0.5195290000000  0.6120470000000 1.0
C      1  0.5446750000000  0.4774490000000  0.3887750000000 1.0
C      1  0.5772310000000  0.5408190000000  0.4762680000000 1.0
C      1  0.4224840000000  0.4606970000000  0.5228380000000 1.0
C      1  0.4680720000000  0.5626190000000  0.4911620000000 1.0
C      1  0.5323710000000  0.4380160000000  0.5095680000000 1.0
C      1  0.5081150000000  0.5896130000000  0.4649530000000 1.0
C      1  0.4918880000000  0.4101850000000  0.5342560000000 1.0
C      1  0.4632870000000  0.4830370000000  0.4976270000000 1.0
C      1  0.5385500000000  0.5166310000000  0.5024200000000 1.0
C      1  0.4886980000000  0.4296240000000  0.4386660000000 1.0
C      1  0.5125580000000  0.5712530000000  0.5596690000000 1.0
C      1  0.4932740000000  0.4974210000000  0.4021430000000 1.0
C      1  0.5079540000000  0.5025810000000  0.5988210000000 1.0
C      1  0.6176660000000  0.4895040000000  0.5151790000000 1.0
C      1  0.3795020000000  0.5076980000000  0.5095020000000 1.0
C      1  0.4732520000000  0.4681100000000  0.6035420000000 1.0
C      1  0.5125540000000  0.5337120000000  0.3998150000000 1.0
C      1  0.4160300000000  0.5144460000000  0.5628450000000 1.0
C      1  0.5877740000000  0.4838790000000  0.4395550000000 1.0
C      1  0.5817280000000  0.4970630000000  0.5001700000000 1.0
C      1  0.4181360000000  0.5051820000000  0.4996470000000 1.0
C      1  0.5169300000000  0.5380070000000  0.4281050000000 1.0
C      1  0.4801360000000  0.4602930000000  0.5717450000000 1.0
C      1  0.4474910000000  0.5389680000000  0.4836580000000 1.0
C      1  0.5531090000000  0.4614680000000  0.5168200000000 1.0
C      1  0.4268780000000  0.5459130000000  0.4430520000000 1.0
C      1  0.5733090000000  0.4534940000000  0.5568930000000 1.0
C      1  0.4765380000000  0.5292350000000  0.5263490000000 1.0
C      1  0.5261140000000  0.4701010000000  0.4738740000000 1.0
C      1  0.4826220000000  0.4100510000000  0.4650440000000 1.0
C      1  0.5174340000000  0.5905000000000  0.5330370000000 1.0
C      1  0.5978750000000  0.5430860000000  0.5139550000000 1.0
C      1  0.4026710000000  0.4593400000000  0.4880570000000 1.0
C      1  0.4371580000000  0.4717670000000  0.5684990000000 1.0
C      1  0.5656950000000  0.5269850000000  0.4308460000000 1.0
C      1  0.5542710000000  0.4131020000000  0.5420050000000 1.0
C      1  0.4436910000000  0.5871780000000  0.4576450000000 1.0
C      1  0.5838850000000  0.4340260000000  0.5113030000000 1.0
C      1  0.4145430000000  0.5644420000000  0.4879480000000 1.0
C      1  0.4392980000000  0.5181310000000  0.4580660000000 1.0
C      1  0.5624890000000  0.4820820000000  0.5421800000000 1.0
C      1  0.5754830000000  0.4319610000000  0.5386760000000 1.0
C      1  0.4231970000000  0.5674600000000  0.4608630000000 1.0
C      1  0.5339100000000  0.5804150000000  0.4841570000000 1.0
C      1  0.4666670000000  0.4193420000000  0.5141140000000 1.0
C      1  0.5297660000000  0.4462420000000  0.5667210000000 1.0
C      1  0.4691010000000  0.5547790000000  0.4335070000000 1.0
C      1  0.5462750000000  0.5497860000000  0.5997690000000 1.0
C      1  0.4480020000000  0.4485100000000  0.4009330000000 1.0
C      1  0.6074190000000  0.5188870000000  0.5046290000000 1.0
C      1  0.3931940000000  0.4834060000000  0.4973160000000 1.0
C      1  0.5368630000000  0.5000450000000  0.5284510000000 1.0
C      1  0.4644900000000  0.4998600000000  0.4720720000000 1.0
C      1  0.4555650000000  0.5930190000000  0.4824630000000 1.0
C      1  0.5430390000000  0.4064830000000  0.5165070000000 1.0
C      1  0.5799780000000  0.5096380000000  0.4477840000000 1.0
C      1  0.4223560000000  0.4889660000000  0.5523330000000 1.0
C      1  0.5324950000000  0.3985590000000  0.4884970000000 1.0
C      1  0.4671190000000  0.6001790000000  0.5101660000000 1.0
C      1  0.5226520000000  0.5527850000000  0.4675970000000 1.0
C      1  0.4766920000000  0.4467110000000  0.5316670000000 1.0
C      1  0.4506370000000  0.4805340000000  0.4505380000000 1.0
C      1  0.5505780000000  0.5194090000000  0.5500080000000 1.0
C      1  0.4377600000000  0.4144640000000  0.5046230000000 1.0
C      1  0.5625760000000  0.5858420000000  0.4939120000000 1.0
C      1  0.5717830000000  0.5387340000000  0.5926430000000 1.0
C      1  0.4245810000000  0.4625980000000  0.4094920000000 1.0
C      1  0.5834490000000  0.5422800000000  0.5667410000000 1.0
C      1  0.4129190000000  0.4607630000000  0.4352960000000 1.0
C      1  0.5760190000000  0.5664050000000  0.5068020000000 1.0
C      1  0.4243890000000  0.4346160000000  0.4927960000000 1.0
C      1  0.4710830000000  0.4852550000000  0.5522360000000 1.0
C      1  0.5313350000000  0.5120330000000  0.4445570000000 1.0
C      1  0.4715130000000  0.4545480000000  0.4130700000000 1.0
C      1  0.5255500000000  0.5424530000000  0.5836890000000 1.0
C      1  0.5597500000000  0.5372750000000  0.5040030000000 1.0
C      1  0.4415330000000  0.4632380000000  0.4958340000000 1.0
C      1  0.5346160000000  0.5460090000000  0.5539640000000 1.0
C      1  0.4675060000000  0.4555370000000  0.4452970000000 1.0
C      1  0.5436780000000  0.5499070000000  0.4429630000000 1.0
C      1  0.4549070000000  0.4471350000000  0.5554220000000 1.0
C      1  0.4449080000000  0.5401730000000  0.5325330000000 1.0
C      1  0.5577370000000  0.4583640000000  0.4688950000000 1.0
C      1  0.4252170000000  0.5793660000000  0.5106630000000 1.0
C      1  0.5730650000000  0.4174060000000  0.4909970000000 1.0
C      1  0.4264780000000  0.4632400000000  0.4654590000000 1.0
C      1  0.5725970000000  0.5386990000000  0.5350690000000 1.0
C      1  0.4932390000000  0.5471460000000  0.5066110000000 1.0
C      1  0.5072540000000  0.4524380000000  0.4935010000000 1.0
C      1  0.3906110000000  0.5324190000000  0.5162480000000 1.0
C      1  0.6125200000000  0.4672320000000  0.4992750000000 1.0
C      1  0.5789650000000  0.4635470000000  0.4951600000000 1.0
C      1  0.4228480000000  0.5372120000000  0.5065530000000 1.0
C      1  0.4569410000000  0.4234560000000  0.4492120000000 1.0
C      1  0.5441170000000  0.5782560000000  0.5487130000000 1.0
C      1  0.4837910000000  0.5706680000000  0.5415390000000 1.0
C      1  0.5166720000000  0.4296560000000  0.4580100000000 1.0
C      1  0.5224630000000  0.4474180000000  0.4285420000000 1.0
C      1  0.4783120000000  0.5558660000000  0.5725730000000 1.0
C      1  0.5695740000000  0.4636300000000  0.4412320000000 1.0
C      1  0.4347820000000  0.5341220000000  0.5608080000000 1.0
C      1  0.5682210000000  0.5094120000000  0.4766740000000 1.0
C      1  0.4324240000000  0.4915390000000  0.5225120000000 1.0
C      1  0.4965600000000  0.5154090000000  0.5468850000000 1.0
C      1  0.5039620000000  0.4849240000000  0.4549020000000 1.0
C      1  0.5717910000000  0.5576540000000  0.4555140000000 1.0
C      1  0.4264090000000  0.4429780000000  0.5430050000000 1.0
C      1  0.4420230000000  0.5021600000000  0.4281710000000 1.0
C      1  0.5597860000000  0.4979110000000  0.5721530000000 1.0
C      1  0.5897640000000  0.4977660000000  0.5332210000000 1.0
C      1  0.4126770000000  0.5020010000000  0.4674280000000 1.0
C      1  0.5053030000000  0.3965180000000  0.4837890000000 1.0
C      1  0.4942720000000  0.6028890000000  0.5141240000000 1.0
C      1  0.4634610000000  0.4985640000000  0.5262790000000 1.0
C      1  0.5371070000000  0.5015910000000  0.4722050000000 1.0
C      1  0.4923510000000  0.5383670000000  0.4460410000000 1.0
C      1  0.5059420000000  0.4615660000000  0.5543920000000 1.0
C      1  0.5300870000000  0.4874170000000  0.5964880000000 1.0
C      1  0.4706440000000  0.5133610000000  0.4028780000000 1.0
C      1  0.3996870000000  0.4870350000000  0.4483620000000 1.0
C      1  0.5991360000000  0.5182580000000  0.5563000000000 1.0
C      1  0.5103710000000  0.5274610000000  0.4867730000000 1.0
C      1  0.4909800000000  0.4722750000000  0.5141760000000 1.0
C      1  0.4986930000000  0.4718840000000  0.4239420000000 1.0
C      1  0.4962520000000  0.5273820000000  0.5787130000000 1.0
C      1  0.4559160000000  0.5701600000000  0.5220220000000 1.0
C      1  0.5436870000000  0.4293200000000  0.4786940000000 1.0
C      1  0.4914990000000  0.5117910000000  0.4632140000000 1.0
C      1  0.5092560000000  0.4888290000000  0.5376070000000 1.0
C      1  0.5089130000000  0.4361040000000  0.5341500000000 1.0
C      1  0.4906760000000  0.5642290000000  0.4657910000000 1.0
C      1  0.5109740000000  0.5749480000000  0.5056870000000 1.0
C      1  0.4892540000000  0.4249790000000  0.4925880000000 1.0
C      1  0.5000720000000  0.5000140000000  0.5003570000000 1.0
END
