TITL C-2622953-3516-734 0.000309095548283943 125000 -873.252199548396 0 0 160 (C1) n - 1
REM
REM in /nfs/bkarasulu/CARBON/AIRSS/Generating-Clusters/AIREBO/with-SteepDescent/Higher-Symm/SD-CG/HFTN-CG
REM
REM
REM
REM
REM
REM ./C.cell (b20cbc046b6831c77cfcea5457e17084)
REM
REM compiler GCC version 9.2.1 20190827 (Red Hat 9.2.1-1)
REM options -cpp -mtune=generic -march=x86-64 -g -O0 -fpre-include=/usr/include/finclude/math-vector-fortran.h
REM seed -435435637 1533304319 16875057 -1299047492 -401421170 -2124588777 599002280 1038185521 2052312203 -1831573146 1702044938 -679475806 -1583940049 882099886 -54147121 -459806706 -436312020 1703859088 -2135684239 2098771201 -2009185945 -954190699 -911846899 1280384754 -1238134843 273962474 -245470573 458954507 -976752970 689302256 884468491 -1660094372 -857711380
REM
CELL 1.54180   50.00000   50.00000   50.00000   90.00000   90.00000   90.00000
LATT -1
SFAC C  
C      1  0.5250610000000  0.4860710000000  0.4300470000000 1.0
C      1  0.5035720000000  0.5341980000000  0.4352660000000 1.0
C      1  0.4674800000000  0.4889120000000  0.4278690000000 1.0
C      1  0.5289500000000  0.5126780000000  0.4422580000000 1.0
C      1  0.4940770000000  0.4757930000000  0.4358980000000 1.0
C      1  0.4756960000000  0.5190920000000  0.4316190000000 1.0
C      1  0.4841190000000  0.3783400000000  0.4580450000000 1.0
C      1  0.5991740000000  0.5305110000000  0.4755390000000 1.0
C      1  0.4121490000000  0.5749350000000  0.4554210000000 1.0
C      1  0.4754350000000  0.6196620000000  0.4670470000000 1.0
C      1  0.6008500000000  0.4697070000000  0.4825370000000 1.0
C      1  0.4196620000000  0.4331410000000  0.4771650000000 1.0
C      1  0.4367530000000  0.4358210000000  0.5566490000000 1.0
C      1  0.5848990000000  0.4742840000000  0.5635270000000 1.0
C      1  0.4765560000000  0.5819660000000  0.5575940000000 1.0
C      1  0.4391480000000  0.5601470000000  0.5593000000000 1.0
C      1  0.5889650000000  0.5219510000000  0.5599020000000 1.0
C      1  0.4805980000000  0.4146750000000  0.5557750000000 1.0
C      1  0.4017850000000  0.4644050000000  0.5076940000000 1.0
C      1  0.5792500000000  0.4344810000000  0.5087740000000 1.0
C      1  0.5135000000000  0.6062070000000  0.5069100000000 1.0
C      1  0.3961740000000  0.5461650000000  0.5046340000000 1.0
C      1  0.5833480000000  0.5674090000000  0.5027420000000 1.0
C      1  0.5205360000000  0.3858620000000  0.5037760000000 1.0
C      1  0.4343800000000  0.5178390000000  0.5707400000000 1.0
C      1  0.5184260000000  0.4350240000000  0.5707810000000 1.0
C      1  0.5480840000000  0.5500790000000  0.5721270000000 1.0
C      1  0.4327360000000  0.4844390000000  0.5776370000000 1.0
C      1  0.5201420000000  0.5667910000000  0.5617770000000 1.0
C      1  0.5472860000000  0.4529670000000  0.5745600000000 1.0
C      1  0.5318510000000  0.4088250000000  0.4515000000000 1.0
C      1  0.5565760000000  0.5930900000000  0.4498970000000 1.0
C      1  0.4104200000000  0.5228680000000  0.4546260000000 1.0
C      1  0.5339180000000  0.6024690000000  0.4560110000000 1.0
C      1  0.5578760000000  0.4134780000000  0.4578450000000 1.0
C      1  0.3893070000000  0.5011480000000  0.4525850000000 1.0
C      1  0.5608890000000  0.5185180000000  0.5719410000000 1.0
C      1  0.4585320000000  0.5412690000000  0.5763510000000 1.0
C      1  0.4851020000000  0.4409020000000  0.5741640000000 1.0
C      1  0.5583970000000  0.4848860000000  0.5790380000000 1.0
C      1  0.4519080000000  0.4569320000000  0.5715530000000 1.0
C      1  0.4892210000000  0.5570770000000  0.5725680000000 1.0
C      1  0.5001580000000  0.5523280000000  0.5247650000000 1.0
C      1  0.4622310000000  0.4667860000000  0.5274050000000 1.0
C      1  0.5481430000000  0.4832430000000  0.5295560000000 1.0
C      1  0.4927250000000  0.4519690000000  0.5246010000000 1.0
C      1  0.4538360000000  0.5257060000000  0.5318410000000 1.0
C      1  0.5524350000000  0.5181610000000  0.5268390000000 1.0
C      1  0.5038770000000  0.5463500000000  0.4037430000000 1.0
C      1  0.4538900000000  0.4700510000000  0.4030560000000 1.0
C      1  0.5335060000000  0.4687000000000  0.4016600000000 1.0
C      1  0.5054250000000  0.4585080000000  0.4089510000000 1.0
C      1  0.4535680000000  0.5210010000000  0.4085100000000 1.0
C      1  0.5325790000000  0.5502080000000  0.4070380000000 1.0
C      1  0.4978110000000  0.6145530000000  0.4815740000000 1.0
C      1  0.4052800000000  0.4562930000000  0.4794770000000 1.0
C      1  0.5958190000000  0.4418820000000  0.4855100000000 1.0
C      1  0.5123400000000  0.3880340000000  0.4700560000000 1.0
C      1  0.4031530000000  0.5508480000000  0.4720660000000 1.0
C      1  0.5910400000000  0.5575530000000  0.4747180000000 1.0
C      1  0.4350990000000  0.5193790000000  0.4348740000000 1.0
C      1  0.5209470000000  0.4295640000000  0.4366040000000 1.0
C      1  0.5425130000000  0.5436880000000  0.4388950000000 1.0
C      1  0.4372790000000  0.4862640000000  0.4435660000000 1.0
C      1  0.5153230000000  0.5620650000000  0.4497390000000 1.0
C      1  0.5376220000000  0.4545480000000  0.4323050000000 1.0
C      1  0.6086910000000  0.4832820000000  0.5735660000000 1.0
C      1  0.4581750000000  0.5988740000000  0.5686140000000 1.0
C      1  0.4360320000000  0.4099870000000  0.5654930000000 1.0
C      1  0.6105090000000  0.5107940000000  0.5718750000000 1.0
C      1  0.4607560000000  0.3977180000000  0.5644560000000 1.0
C      1  0.4339840000000  0.5853120000000  0.5694670000000 1.0
C      1  0.4113250000000  0.4515220000000  0.5301780000000 1.0
C      1  0.5844970000000  0.4451020000000  0.5336360000000 1.0
C      1  0.4986960000000  0.6003150000000  0.5294940000000 1.0
C      1  0.4136700000000  0.5501340000000  0.5286830000000 1.0
C      1  0.5865930000000  0.5578580000000  0.5281880000000 1.0
C      1  0.5062190000000  0.3979500000000  0.5294150000000 1.0
C      1  0.4621090000000  0.5955120000000  0.4529680000000 1.0
C      1  0.4409210000000  0.4196970000000  0.4587180000000 1.0
C      1  0.5928860000000  0.4778580000000  0.4534440000000 1.0
C      1  0.4628400000000  0.3986460000000  0.4578390000000 1.0
C      1  0.4372190000000  0.5765480000000  0.4441760000000 1.0
C      1  0.5971920000000  0.5113600000000  0.4495430000000 1.0
C      1  0.4936170000000  0.4317350000000  0.4361670000000 1.0
C      1  0.5675690000000  0.5208200000000  0.4365000000000 1.0
C      1  0.4504480000000  0.5497390000000  0.4357100000000 1.0
C      1  0.4850100000000  0.5731540000000  0.4411190000000 1.0
C      1  0.5658190000000  0.4733080000000  0.4292410000000 1.0
C      1  0.4467360000000  0.4553880000000  0.4329080000000 1.0
C      1  0.5543660000000  0.5598240000000  0.4897580000000 1.0
C      1  0.4093130000000  0.5147280000000  0.5106400000000 1.0
C      1  0.5314210000000  0.4180110000000  0.5060080000000 1.0
C      1  0.5498380000000  0.4403380000000  0.5002120000000 1.0
C      1  0.4214760000000  0.4887090000000  0.4960610000000 1.0
C      1  0.5332420000000  0.5795590000000  0.4993940000000 1.0
C      1  0.4705840000000  0.4803320000000  0.5876690000000 1.0
C      1  0.5261330000000  0.4829260000000  0.5895910000000 1.0
C      1  0.5008720000000  0.5268150000000  0.5780030000000 1.0
C      1  0.4716920000000  0.5114020000000  0.5835910000000 1.0
C      1  0.5297450000000  0.5144380000000  0.5838610000000 1.0
C      1  0.5001200000000  0.4692820000000  0.5799730000000 1.0
C      1  0.5701370000000  0.4356920000000  0.5575510000000 1.0
C      1  0.5128440000000  0.5977930000000  0.5530760000000 1.0
C      1  0.4132320000000  0.4678290000000  0.5563010000000 1.0
C      1  0.5728370000000  0.5658780000000  0.5544480000000 1.0
C      1  0.5206190000000  0.4095780000000  0.5532710000000 1.0
C      1  0.4082160000000  0.5353030000000  0.5560670000000 1.0
C      1  0.4746050000000  0.5160550000000  0.5500210000000 1.0
C      1  0.5013640000000  0.4718680000000  0.5465140000000 1.0
C      1  0.5275670000000  0.5172110000000  0.5500060000000 1.0
C      1  0.4740280000000  0.4849110000000  0.5540610000000 1.0
C      1  0.5004900000000  0.5311470000000  0.5442810000000 1.0
C      1  0.5265420000000  0.4864310000000  0.5556260000000 1.0
C      1  0.4490220000000  0.5419350000000  0.4957640000000 1.0
C      1  0.4824380000000  0.4323520000000  0.4913870000000 1.0
C      1  0.5801160000000  0.5140550000000  0.4983100000000 1.0
C      1  0.4487540000000  0.4349250000000  0.4945970000000 1.0
C      1  0.4862440000000  0.5699850000000  0.4917370000000 1.0
C      1  0.5928780000000  0.4856690000000  0.5043470000000 1.0
C      1  0.5252760000000  0.5691540000000  0.5282320000000 1.0
C      1  0.4343210000000  0.4830350000000  0.5380660000000 1.0
C      1  0.5442510000000  0.4516910000000  0.5416340000000 1.0
C      1  0.5214490000000  0.4348760000000  0.5309320000000 1.0
C      1  0.4265400000000  0.5130880000000  0.5379820000000 1.0
C      1  0.5475840000000  0.5498030000000  0.5383260000000 1.0
C      1  0.5630760000000  0.5636680000000  0.4572320000000 1.0
C      1  0.4241400000000  0.5272860000000  0.4841880000000 1.0
C      1  0.5102750000000  0.4167870000000  0.4840270000000 1.0
C      1  0.5654500000000  0.4401290000000  0.4718080000000 1.0
C      1  0.4138820000000  0.4829340000000  0.4634270000000 1.0
C      1  0.5113780000000  0.5842880000000  0.4738340000000 1.0
C      1  0.5686590000000  0.5060660000000  0.4672640000000 1.0
C      1  0.4581460000000  0.5351520000000  0.4646910000000 1.0
C      1  0.4805060000000  0.4230670000000  0.4587350000000 1.0
C      1  0.5606050000000  0.4726920000000  0.4628380000000 1.0
C      1  0.4527370000000  0.4510370000000  0.4646330000000 1.0
C      1  0.4675270000000  0.5659950000000  0.4680000000000 1.0
C      1  0.5851150000000  0.5272130000000  0.5294370000000 1.0
C      1  0.4466710000000  0.5579680000000  0.5262060000000 1.0
C      1  0.4836920000000  0.4190850000000  0.5226770000000 1.0
C      1  0.5812580000000  0.4756590000000  0.5310260000000 1.0
C      1  0.4408030000000  0.4405500000000  0.5244430000000 1.0
C      1  0.4756840000000  0.5758480000000  0.5241570000000 1.0
C      1  0.5342390000000  0.4665760000000  0.5033650000000 1.0
C      1  0.5017580000000  0.5418480000000  0.4942350000000 1.0
C      1  0.4535040000000  0.4859020000000  0.5006600000000 1.0
C      1  0.5493790000000  0.5280950000000  0.4944630000000 1.0
C      1  0.5022200000000  0.4599320000000  0.4934930000000 1.0
C      1  0.4643640000000  0.5134770000000  0.5058170000000 1.0
C      1  0.4730640000000  0.5066760000000  0.4631630000000 1.0
C      1  0.4987240000000  0.4761970000000  0.4665370000000 1.0
C      1  0.5303840000000  0.5135630000000  0.4761310000000 1.0
C      1  0.4665430000000  0.4769710000000  0.4744630000000 1.0
C      1  0.5007530000000  0.5245620000000  0.4679470000000 1.0
C      1  0.5302830000000  0.4817780000000  0.4753170000000 1.0
C      1  0.5630150000000  0.4991930000000  0.4168420000000 1.0
C      1  0.4769760000000  0.5565380000000  0.4155570000000 1.0
C      1  0.4750370000000  0.4468470000000  0.4161120000000 1.0
C      1  0.4922100000000  0.5159900000000  0.5059350000000 1.0
END
