TITL C-2622968-4806-148 -0.000877754601839119 125000 -795.245960098215 0 0 154 (C1) n - 1
REM
REM in /nfs/bkarasulu/CARBON/AIRSS/Generating-Clusters/AIREBO/with-SteepDescent/Higher-Symm/SD-CG/HFTN-CG
REM
REM
REM
REM
REM
REM ./C.cell (b20cbc046b6831c77cfcea5457e17084)
REM
REM compiler GCC version 9.2.1 20190827 (Red Hat 9.2.1-1)
REM options -cpp -mtune=generic -march=x86-64 -g -O0 -fpre-include=/usr/include/finclude/math-vector-fortran.h
REM seed 72242372 -1771227523 -196819975 -2066554718 -1575709 879680418 -1299457360 -1048469370 -809965777 -652450984 420110943 -1353154866 -1463212378 315889100 -1235278546 -386240125 -366794721 1882628614 -307387891 350686506 484213894 497730262 1995967167 -58677517 -1201885709 -451531344 -1334566317 1473514373 -640208676 -786694847 1751426074 -1394516781 -1524941816
REM
CELL 1.54180   50.00000   50.00000   50.00000   90.00000   90.00000   90.00000
LATT -1
SFAC C  
C      1  0.4427390000000  0.5842830000000  0.4808320000000 1.0
C      1  0.5919730000000  0.4797630000000  0.4511010000000 1.0
C      1  0.4815360000000  0.4439280000000  0.5881670000000 1.0
C      1  0.5667140000000  0.5797030000000  0.5186000000000 1.0
C      1  0.5549500000000  0.4203000000000  0.4808330000000 1.0
C      1  0.4330750000000  0.4127400000000  0.5028320000000 1.0
C      1  0.4113320000000  0.4887740000000  0.5664360000000 1.0
C      1  0.4098700000000  0.5159230000000  0.4422710000000 1.0
C      1  0.5773630000000  0.5155210000000  0.5714760000000 1.0
C      1  0.5141410000000  0.4589100000000  0.4064390000000 1.0
C      1  0.5165820000000  0.5598100000000  0.5861950000000 1.0
C      1  0.4637810000000  0.5591040000000  0.4267510000000 1.0
C      1  0.4541120000000  0.4370630000000  0.5091660000000 1.0
C      1  0.4390350000000  0.5010880000000  0.4515120000000 1.0
C      1  0.5170190000000  0.4523460000000  0.4362990000000 1.0
C      1  0.5353150000000  0.4421690000000  0.4979370000000 1.0
C      1  0.5527130000000  0.5539640000000  0.5013470000000 1.0
C      1  0.4587680000000  0.5553490000000  0.4818110000000 1.0
C      1  0.5557640000000  0.5111340000000  0.5495930000000 1.0
C      1  0.5665320000000  0.4871250000000  0.4391020000000 1.0
C      1  0.4401590000000  0.4831050000000  0.5493200000000 1.0
C      1  0.4881200000000  0.4610930000000  0.5610230000000 1.0
C      1  0.4887970000000  0.5412400000000  0.4396700000000 1.0
C      1  0.5127280000000  0.5362850000000  0.5617480000000 1.0
C      1  0.4853180000000  0.5283710000000  0.3950770000000 1.0
C      1  0.5171720000000  0.4074800000000  0.5048750000000 1.0
C      1  0.3975400000000  0.4864940000000  0.5105970000000 1.0
C      1  0.5012910000000  0.5209060000000  0.5967050000000 1.0
C      1  0.5045210000000  0.5055390000000  0.3932670000000 1.0
C      1  0.4855240000000  0.4927980000000  0.6073420000000 1.0
C      1  0.4835630000000  0.4032470000000  0.5019390000000 1.0
C      1  0.4815850000000  0.5930900000000  0.5021540000000 1.0
C      1  0.5122670000000  0.6032570000000  0.5129150000000 1.0
C      1  0.5985770000000  0.4993940000000  0.4868100000000 1.0
C      1  0.6039410000000  0.4926980000000  0.5204270000000 1.0
C      1  0.4031340000000  0.4964110000000  0.4783690000000 1.0
C      1  0.5653450000000  0.3936670000000  0.4992420000000 1.0
C      1  0.4080630000000  0.5033790000000  0.5381580000000 1.0
C      1  0.4700120000000  0.5744570000000  0.4019620000000 1.0
C      1  0.4481230000000  0.3970770000000  0.4846510000000 1.0
C      1  0.4342410000000  0.6060030000000  0.5028950000000 1.0
C      1  0.5553520000000  0.5927050000000  0.4920750000000 1.0
C      1  0.6102220000000  0.5000320000000  0.4486630000000 1.0
C      1  0.5981960000000  0.4965610000000  0.5686050000000 1.0
C      1  0.3871930000000  0.4946920000000  0.4417930000000 1.0
C      1  0.4932250000000  0.5651900000000  0.6056510000000 1.0
C      1  0.4860100000000  0.4534360000000  0.3987860000000 1.0
C      1  0.5059460000000  0.4426250000000  0.6051240000000 1.0
C      1  0.5414470000000  0.5629420000000  0.4273330000000 1.0
C      1  0.5775550000000  0.4524810000000  0.5543510000000 1.0
C      1  0.4503550000000  0.5442790000000  0.5679600000000 1.0
C      1  0.4563190000000  0.5739490000000  0.5476720000000 1.0
C      1  0.4557280000000  0.4270660000000  0.4446000000000 1.0
C      1  0.5493150000000  0.4324640000000  0.5586670000000 1.0
C      1  0.4278010000000  0.4453100000000  0.4512340000000 1.0
C      1  0.4297000000000  0.5545540000000  0.5429850000000 1.0
C      1  0.5822940000000  0.5456840000000  0.4592220000000 1.0
C      1  0.5604030000000  0.5447280000000  0.4397610000000 1.0
C      1  0.5569500000000  0.4555740000000  0.5817480000000 1.0
C      1  0.4416330000000  0.4467690000000  0.4203340000000 1.0
C      1  0.5261840000000  0.4621680000000  0.5943420000000 1.0
C      1  0.4562930000000  0.5896040000000  0.5180400000000 1.0
C      1  0.5998900000000  0.5239030000000  0.4632810000000 1.0
C      1  0.4825180000000  0.4703860000000  0.4280570000000 1.0
C      1  0.4797820000000  0.5443060000000  0.5850380000000 1.0
C      1  0.4949070000000  0.5562540000000  0.4019190000000 1.0
C      1  0.5281240000000  0.5831390000000  0.4895680000000 1.0
C      1  0.5459740000000  0.4086860000000  0.5178020000000 1.0
C      1  0.4695990000000  0.4144090000000  0.4729670000000 1.0
C      1  0.4380670000000  0.5163190000000  0.5276370000000 1.0
C      1  0.4084430000000  0.4733240000000  0.4540620000000 1.0
C      1  0.5959140000000  0.4783330000000  0.5478960000000 1.0
C      1  0.4973610000000  0.5431780000000  0.5126500000000 1.0
C      1  0.5323690000000  0.5223960000000  0.4663000000000 1.0
C      1  0.5285500000000  0.4706800000000  0.5406230000000 1.0
C      1  0.5262160000000  0.5495070000000  0.4843020000000 1.0
C      1  0.5159090000000  0.4521130000000  0.5199960000000 1.0
C      1  0.4779910000000  0.4525070000000  0.4810430000000 1.0
C      1  0.4657420000000  0.5327710000000  0.5196000000000 1.0
C      1  0.4436320000000  0.4854100000000  0.4788330000000 1.0
C      1  0.5506670000000  0.4893520000000  0.5264570000000 1.0
C      1  0.4668810000000  0.4717260000000  0.4581350000000 1.0
C      1  0.4841810000000  0.5298070000000  0.5480230000000 1.0
C      1  0.5091270000000  0.5187740000000  0.4427480000000 1.0
C      1  0.4692090000000  0.5137720000000  0.4905960000000 1.0
C      1  0.5087700000000  0.4907550000000  0.4606020000000 1.0
C      1  0.4893410000000  0.4730550000000  0.5165400000000 1.0
C      1  0.5393300000000  0.5141930000000  0.4975170000000 1.0
C      1  0.5365140000000  0.4821150000000  0.4963880000000 1.0
C      1  0.4614070000000  0.4838980000000  0.5052760000000 1.0
C      1  0.4855620000000  0.4968890000000  0.5405440000000 1.0
C      1  0.4779730000000  0.5012870000000  0.4602850000000 1.0
C      1  0.5154850000000  0.5008480000000  0.5410730000000 1.0
C      1  0.5056620000000  0.4714700000000  0.4867190000000 1.0
C      1  0.5212540000000  0.5242550000000  0.5215990000000 1.0
C      1  0.4974820000000  0.5313070000000  0.4835410000000 1.0
C      1  0.4860380000000  0.4390750000000  0.4408710000000 1.0
C      1  0.4449210000000  0.4450260000000  0.4783560000000 1.0
C      1  0.4302290000000  0.4777370000000  0.4284090000000 1.0
C      1  0.5197610000000  0.4488810000000  0.5637430000000 1.0
C      1  0.5130510000000  0.5693420000000  0.4231280000000 1.0
C      1  0.4835790000000  0.5626880000000  0.5566860000000 1.0
C      1  0.5631290000000  0.4361690000000  0.5282280000000 1.0
C      1  0.5783700000000  0.5608380000000  0.4824410000000 1.0
C      1  0.4447550000000  0.5586110000000  0.5126240000000 1.0
C      1  0.5570930000000  0.4864950000000  0.5895150000000 1.0
C      1  0.5488980000000  0.5161590000000  0.4393990000000 1.0
C      1  0.4405330000000  0.5148490000000  0.5615270000000 1.0
C      1  0.5914460000000  0.5543470000000  0.5103170000000 1.0
C      1  0.5600190000000  0.5142800000000  0.5969330000000 1.0
C      1  0.5141060000000  0.5756070000000  0.5558590000000 1.0
C      1  0.4198910000000  0.5573200000000  0.4894450000000 1.0
C      1  0.4164930000000  0.4383390000000  0.4960020000000 1.0
C      1  0.5758280000000  0.4410120000000  0.4985570000000 1.0
C      1  0.4308660000000  0.5084920000000  0.4133960000000 1.0
C      1  0.4378450000000  0.4923520000000  0.5874510000000 1.0
C      1  0.5463700000000  0.4941070000000  0.4135430000000 1.0
C      1  0.4974010000000  0.5821240000000  0.4448460000000 1.0
C      1  0.4969620000000  0.4237050000000  0.5618230000000 1.0
C      1  0.5055720000000  0.4156960000000  0.4474430000000 1.0
C      1  0.5350680000000  0.5848710000000  0.5302160000000 1.0
C      1  0.5935390000000  0.5248790000000  0.5168770000000 1.0
C      1  0.5338180000000  0.5319460000000  0.5953250000000 1.0
C      1  0.4754710000000  0.5897550000000  0.4706160000000 1.0
C      1  0.4902380000000  0.4145130000000  0.5333630000000 1.0
C      1  0.5223400000000  0.4140790000000  0.4728810000000 1.0
C      1  0.4115220000000  0.5291350000000  0.4742960000000 1.0
C      1  0.4125490000000  0.4597100000000  0.5141330000000 1.0
C      1  0.5896070000000  0.4671550000000  0.4807400000000 1.0
C      1  0.4588970000000  0.5191350000000  0.4045860000000 1.0
C      1  0.4665200000000  0.4744760000000  0.5920920000000 1.0
C      1  0.5258020000000  0.4839150000000  0.3984140000000 1.0
C      1  0.4447960000000  0.5279300000000  0.4715830000000 1.0
C      1  0.5351220000000  0.4776560000000  0.4480580000000 1.0
C      1  0.4769710000000  0.4458260000000  0.5327610000000 1.0
C      1  0.5609440000000  0.5274480000000  0.5202050000000 1.0
C      1  0.5562780000000  0.4606880000000  0.4788750000000 1.0
C      1  0.4422440000000  0.4642910000000  0.5255170000000 1.0
C      1  0.4674430000000  0.4853450000000  0.5616650000000 1.0
C      1  0.4627390000000  0.5204070000000  0.4366440000000 1.0
C      1  0.5289760000000  0.5094090000000  0.5703210000000 1.0
C      1  0.5197220000000  0.4467510000000  0.4680710000000 1.0
C      1  0.5313460000000  0.5520600000000  0.5383800000000 1.0
C      1  0.4880690000000  0.5583380000000  0.4672880000000 1.0
C      1  0.5040490000000  0.5706390000000  0.5098430000000 1.0
C      1  0.5735820000000  0.4918390000000  0.5072040000000 1.0
C      1  0.4962240000000  0.4346450000000  0.4995590000000 1.0
C      1  0.4261530000000  0.5022390000000  0.5026520000000 1.0
C      1  0.5147180000000  0.4898000000000  0.5933630000000 1.0
C      1  0.4973020000000  0.4968960000000  0.4229680000000 1.0
C      1  0.5545460000000  0.4505900000000  0.4490360000000 1.0
C      1  0.4473700000000  0.4409640000000  0.5497300000000 1.0
C      1  0.4420650000000  0.5466160000000  0.4431620000000 1.0
C      1  0.5623160000000  0.5503130000000  0.5453440000000 1.0
END
