TITL C-2622964-2985-174 0.000393133135678111 125000 -461.677578612334 0 0 83 (C1) n - 1
REM
REM in /nfs/bkarasulu/CARBON/AIRSS/Generating-Clusters/AIREBO/with-SteepDescent/Higher-Symm/SD-CG/HFTN-CG
REM
REM
REM
REM
REM
REM ./C.cell (b20cbc046b6831c77cfcea5457e17084)
REM
REM compiler GCC version 9.2.1 20190827 (Red Hat 9.2.1-1)
REM options -cpp -mtune=generic -march=x86-64 -g -O0 -fpre-include=/usr/include/finclude/math-vector-fortran.h
REM seed -1858807898 2049812113 -2070923663 -1219963884 1584019327 958492264 1929694666 -1242112372 1853560806 -268873591 1982170493 1505483472 -1120754857 -2064908431 -1315150629 -1565699216 1670814863 137824728 -1507702119 870017663 -1365571571 -853689589 -1945830071 -755257669 -859848870 1179754119 930834785 1248810158 1397156251 1215403363 -626909983 431522721 -1322016205
REM
CELL 1.54180   50.00000   50.00000   50.00000   90.00000   90.00000   90.00000
LATT -1
SFAC C  
C      1  0.5403570000000  0.4253600000000  0.4888560000000 1.0
C      1  0.4516340000000  0.4343990000000  0.4870470000000 1.0
C      1  0.4213500000000  0.4690510000000  0.4745780000000 1.0
C      1  0.4439320000000  0.5667710000000  0.4728830000000 1.0
C      1  0.4980940000000  0.5783560000000  0.4970220000000 1.0
C      1  0.5560800000000  0.5476410000000  0.4904360000000 1.0
C      1  0.5720910000000  0.4664000000000  0.4886640000000 1.0
C      1  0.4752920000000  0.4816020000000  0.5068490000000 1.0
C      1  0.4449430000000  0.4965960000000  0.5035950000000 1.0
C      1  0.4675130000000  0.5383030000000  0.5032010000000 1.0
C      1  0.5275280000000  0.5409250000000  0.5182370000000 1.0
C      1  0.5397750000000  0.5142520000000  0.5120750000000 1.0
C      1  0.5276590000000  0.4830360000000  0.5182940000000 1.0
C      1  0.5031340000000  0.4620710000000  0.5072930000000 1.0
C      1  0.4825470000000  0.5587610000000  0.4436130000000 1.0
C      1  0.5301010000000  0.5491710000000  0.4478760000000 1.0
C      1  0.5507950000000  0.5013350000000  0.4464730000000 1.0
C      1  0.5422670000000  0.4550440000000  0.4432030000000 1.0
C      1  0.4954430000000  0.4419400000000  0.4492320000000 1.0
C      1  0.4535860000000  0.4716390000000  0.4470620000000 1.0
C      1  0.4483820000000  0.5213170000000  0.4464040000000 1.0
C      1  0.4995460000000  0.5200310000000  0.5814730000000 1.0
C      1  0.5219710000000  0.5379400000000  0.5695100000000 1.0
C      1  0.5460740000000  0.5165910000000  0.5670090000000 1.0
C      1  0.5221500000000  0.4675940000000  0.5645900000000 1.0
C      1  0.4914990000000  0.4695230000000  0.5650600000000 1.0
C      1  0.4741860000000  0.4828420000000  0.5838660000000 1.0
C      1  0.4730930000000  0.5115060000000  0.5791810000000 1.0
C      1  0.5075290000000  0.5432610000000  0.5414240000000 1.0
C      1  0.5660040000000  0.5087110000000  0.5489290000000 1.0
C      1  0.5403590000000  0.4615490000000  0.5388310000000 1.0
C      1  0.4834520000000  0.4749750000000  0.5391940000000 1.0
C      1  0.4549240000000  0.4872120000000  0.5407300000000 1.0
C      1  0.4590080000000  0.5192510000000  0.5517510000000 1.0
C      1  0.4761650000000  0.5426530000000  0.5339270000000 1.0
C      1  0.5162580000000  0.4187270000000  0.5204980000000 1.0
C      1  0.4484630000000  0.4359250000000  0.5319610000000 1.0
C      1  0.4067360000000  0.4827700000000  0.5312120000000 1.0
C      1  0.4280780000000  0.5520180000000  0.5267130000000 1.0
C      1  0.4738110000000  0.5969020000000  0.5384400000000 1.0
C      1  0.5776290000000  0.5285330000000  0.5319890000000 1.0
C      1  0.5641230000000  0.4834010000000  0.5346730000000 1.0
C      1  0.5662410000000  0.4728930000000  0.4580510000000 1.0
C      1  0.5244300000000  0.4369150000000  0.4659050000000 1.0
C      1  0.4666520000000  0.4448730000000  0.4634680000000 1.0
C      1  0.4280850000000  0.4946780000000  0.4532200000000 1.0
C      1  0.4549440000000  0.5543810000000  0.4510990000000 1.0
C      1  0.5049060000000  0.5584560000000  0.4692550000000 1.0
C      1  0.5522480000000  0.5319520000000  0.4616240000000 1.0
C      1  0.5366440000000  0.5119970000000  0.4820400000000 1.0
C      1  0.5364590000000  0.4828070000000  0.4711170000000 1.0
C      1  0.5142080000000  0.4647950000000  0.4767970000000 1.0
C      1  0.4818270000000  0.4703570000000  0.4750690000000 1.0
C      1  0.4551690000000  0.4927300000000  0.4736980000000 1.0
C      1  0.4639620000000  0.5233610000000  0.4743460000000 1.0
C      1  0.4922910000000  0.5334720000000  0.4835240000000 1.0
C      1  0.4341770000000  0.4649600000000  0.5254880000000 1.0
C      1  0.4320590000000  0.5268350000000  0.5364480000000 1.0
C      1  0.4764310000000  0.5737170000000  0.5189420000000 1.0
C      1  0.5755410000000  0.5532740000000  0.5156510000000 1.0
C      1  0.5722580000000  0.4862800000000  0.5074480000000 1.0
C      1  0.5438940000000  0.4353170000000  0.5218020000000 1.0
C      1  0.4667390000000  0.4280700000000  0.5107370000000 1.0
C      1  0.4474840000000  0.5634800000000  0.5045540000000 1.0
C      1  0.5274440000000  0.5613510000000  0.4945600000000 1.0
C      1  0.5716530000000  0.5169970000000  0.5005680000000 1.0
C      1  0.5665900000000  0.4408380000000  0.4975490000000 1.0
C      1  0.4945340000000  0.4336410000000  0.5138830000000 1.0
C      1  0.4300030000000  0.4514700000000  0.4942320000000 1.0
C      1  0.4248650000000  0.5045180000000  0.5208360000000 1.0
C      1  0.4987360000000  0.4621330000000  0.4290870000000 1.0
C      1  0.4727070000000  0.4802050000000  0.4244430000000 1.0
C      1  0.4698520000000  0.5143810000000  0.4243340000000 1.0
C      1  0.4912110000000  0.5389980000000  0.4240070000000 1.0
C      1  0.5191070000000  0.5348950000000  0.4249090000000 1.0
C      1  0.5321710000000  0.5038450000000  0.4201130000000 1.0
C      1  0.5247780000000  0.4713800000000  0.4272230000000 1.0
C      1  0.5021920000000  0.5020100000000  0.5061420000000 1.0
C      1  0.5074010000000  0.5116800000000  0.5365350000000 1.0
C      1  0.5063440000000  0.5087840000000  0.4737160000000 1.0
C      1  0.5022180000000  0.5057130000000  0.4461570000000 1.0
C      1  0.5186810000000  0.4988300000000  0.5636700000000 1.0
C      1  0.4990830000000  0.4995860000000  0.4152390000000 1.0
END
