TITL C-2622966-9038-134 0.000111530269885657 125000 -563.68063224209 0 0 102 (C1) n - 1
REM
REM in /nfs/bkarasulu/CARBON/AIRSS/Generating-Clusters/AIREBO/with-SteepDescent/Higher-Symm/SD-CG/HFTN-CG
REM
REM
REM
REM
REM
REM ./C.cell (b20cbc046b6831c77cfcea5457e17084)
REM
REM compiler GCC version 9.2.1 20190827 (Red Hat 9.2.1-1)
REM options -cpp -mtune=generic -march=x86-64 -g -O0 -fpre-include=/usr/include/finclude/math-vector-fortran.h
REM seed 2048125834 1209104243 -1345049676 -1054260905 646756058 139324374 592721219 -1182631761 1991603693 -1835875005 1023499092 -968048117 605804953 999618008 1923659461 -821117051 1872933196 731121328 -423084098 845570470 800439103 1835238985 356528026 2100403174 662804517 -721428529 602441318 113461135 344112349 1001256739 1118018469 851631537 -914016967
REM
CELL 1.54180   50.00000   50.00000   50.00000   90.00000   90.00000   90.00000
LATT -1
SFAC C  
C      1  0.4923950000000  0.5367620000000  0.4400850000000 1.0
C      1  0.4392310000000  0.5482470000000  0.4913490000000 1.0
C      1  0.4777020000000  0.5397910000000  0.5686030000000 1.0
C      1  0.5524950000000  0.5426090000000  0.5410050000000 1.0
C      1  0.5652930000000  0.5584310000000  0.4657840000000 1.0
C      1  0.5771120000000  0.5118410000000  0.5475660000000 1.0
C      1  0.5590300000000  0.5007080000000  0.4235490000000 1.0
C      1  0.4686770000000  0.5164280000000  0.4069090000000 1.0
C      1  0.4166980000000  0.4992660000000  0.5287980000000 1.0
C      1  0.4743760000000  0.5134030000000  0.6030230000000 1.0
C      1  0.4750920000000  0.5218200000000  0.4965820000000 1.0
C      1  0.4855000000000  0.5208550000000  0.5267550000000 1.0
C      1  0.5122800000000  0.5344870000000  0.5315460000000 1.0
C      1  0.5282240000000  0.5275070000000  0.4727560000000 1.0
C      1  0.5244870000000  0.5038760000000  0.4506950000000 1.0
C      1  0.4387590000000  0.4419270000000  0.4553100000000 1.0
C      1  0.4399380000000  0.4375610000000  0.5460700000000 1.0
C      1  0.5106590000000  0.4573290000000  0.5757610000000 1.0
C      1  0.5725910000000  0.4505580000000  0.5053850000000 1.0
C      1  0.5285810000000  0.4402260000000  0.4241080000000 1.0
C      1  0.5201850000000  0.5939360000000  0.5196310000000 1.0
C      1  0.5185680000000  0.5887260000000  0.4892770000000 1.0
C      1  0.4873090000000  0.5914760000000  0.4938220000000 1.0
C      1  0.4717420000000  0.5842130000000  0.5227750000000 1.0
C      1  0.4970980000000  0.6030630000000  0.5307910000000 1.0
C      1  0.4788590000000  0.4140740000000  0.4839220000000 1.0
C      1  0.4797430000000  0.4111290000000  0.5163560000000 1.0
C      1  0.5111380000000  0.4146840000000  0.5254780000000 1.0
C      1  0.5292490000000  0.4232590000000  0.4993610000000 1.0
C      1  0.5105910000000  0.4152590000000  0.4746330000000 1.0
C      1  0.5439420000000  0.4504740000000  0.4526600000000 1.0
C      1  0.4686970000000  0.4405560000000  0.4382310000000 1.0
C      1  0.4335710000000  0.4453200000000  0.5135800000000 1.0
C      1  0.4883460000000  0.4441360000000  0.5651400000000 1.0
C      1  0.5545670000000  0.4585840000000  0.5301500000000 1.0
C      1  0.4617820000000  0.4801200000000  0.5418080000000 1.0
C      1  0.5170020000000  0.4878940000000  0.5507610000000 1.0
C      1  0.5467370000000  0.4826270000000  0.4782800000000 1.0
C      1  0.5048450000000  0.4708440000000  0.4339280000000 1.0
C      1  0.4440800000000  0.4824530000000  0.4836900000000 1.0
C      1  0.4315850000000  0.4739130000000  0.5318720000000 1.0
C      1  0.4961850000000  0.4953510000000  0.5697550000000 1.0
C      1  0.5476780000000  0.4881520000000  0.5185350000000 1.0
C      1  0.5381170000000  0.4778160000000  0.4332980000000 1.0
C      1  0.4673380000000  0.4851110000000  0.4440720000000 1.0
C      1  0.4625040000000  0.4365540000000  0.5021800000000 1.0
C      1  0.4889760000000  0.4379030000000  0.5345780000000 1.0
C      1  0.5269220000000  0.4442050000000  0.5238550000000 1.0
C      1  0.5240350000000  0.4466390000000  0.4760790000000 1.0
C      1  0.4889180000000  0.4352760000000  0.4608130000000 1.0
C      1  0.4356780000000  0.5271020000000  0.5641940000000 1.0
C      1  0.5340960000000  0.5254260000000  0.5870210000000 1.0
C      1  0.5733570000000  0.5216300000000  0.4952290000000 1.0
C      1  0.5233240000000  0.5287900000000  0.4047970000000 1.0
C      1  0.4399330000000  0.5225010000000  0.4506620000000 1.0
C      1  0.4754550000000  0.5541200000000  0.5073030000000 1.0
C      1  0.4741520000000  0.5629160000000  0.5457790000000 1.0
C      1  0.5262020000000  0.5626330000000  0.5185050000000 1.0
C      1  0.5267060000000  0.5614360000000  0.4745790000000 1.0
C      1  0.4877850000000  0.5695990000000  0.4727180000000 1.0
C      1  0.4895460000000  0.4690970000000  0.4642470000000 1.0
C      1  0.4699120000000  0.4661700000000  0.4906180000000 1.0
C      1  0.4834820000000  0.4653580000000  0.5201640000000 1.0
C      1  0.5157680000000  0.4759810000000  0.5191510000000 1.0
C      1  0.5147790000000  0.4780610000000  0.4852210000000 1.0
C      1  0.5487610000000  0.5162310000000  0.4022380000000 1.0
C      1  0.4557570000000  0.5108280000000  0.4316640000000 1.0
C      1  0.4136830000000  0.5132970000000  0.5529160000000 1.0
C      1  0.5077220000000  0.5119720000000  0.5958900000000 1.0
C      1  0.5709190000000  0.5086000000000  0.5195040000000 1.0
C      1  0.4987860000000  0.5128800000000  0.4017040000000 1.0
C      1  0.4180040000000  0.5112720000000  0.5047720000000 1.0
C      1  0.4541760000000  0.5116950000000  0.5835930000000 1.0
C      1  0.5542550000000  0.5117110000000  0.5681200000000 1.0
C      1  0.5723900000000  0.5103830000000  0.4452400000000 1.0
C      1  0.5197910000000  0.5448260000000  0.4286810000000 1.0
C      1  0.4486870000000  0.5482030000000  0.4619140000000 1.0
C      1  0.4440660000000  0.5490300000000  0.5491280000000 1.0
C      1  0.5329120000000  0.5451550000000  0.5641450000000 1.0
C      1  0.5695470000000  0.5494410000000  0.4933840000000 1.0
C      1  0.4712910000000  0.5096080000000  0.5542820000000 1.0
C      1  0.5363960000000  0.5126990000000  0.5391980000000 1.0
C      1  0.5572370000000  0.5101650000000  0.4726430000000 1.0
C      1  0.4948980000000  0.5033630000000  0.4341130000000 1.0
C      1  0.4443020000000  0.5149340000000  0.4835300000000 1.0
C      1  0.4978170000000  0.4406690000000  0.4223160000000 1.0
C      1  0.4335480000000  0.4529940000000  0.4804220000000 1.0
C      1  0.4604520000000  0.4526670000000  0.5581530000000 1.0
C      1  0.5354500000000  0.4616080000000  0.5581820000000 1.0
C      1  0.5623370000000  0.4572720000000  0.4804710000000 1.0
C      1  0.4118290000000  0.4501220000000  0.5466360000000 1.0
C      1  0.5060070000000  0.4779720000000  0.5972780000000 1.0
C      1  0.5970800000000  0.4391910000000  0.5099630000000 1.0
C      1  0.5426990000000  0.4587410000000  0.4046350000000 1.0
C      1  0.4467990000000  0.4638190000000  0.4336510000000 1.0
C      1  0.4753850000000  0.5543430000000  0.4540850000000 1.0
C      1  0.4454680000000  0.5532750000000  0.5196300000000 1.0
C      1  0.5047200000000  0.5548860000000  0.5563720000000 1.0
C      1  0.5568840000000  0.5583720000000  0.5165670000000 1.0
C      1  0.5394780000000  0.5551960000000  0.4462840000000 1.0
C      1  0.5045410000000  0.5520500000000  0.4965420000000 1.0
C      1  0.5033240000000  0.5098130000000  0.4853610000000 1.0
END
