TITL C-2622967-6265-627 -0.00391097906048961 125000 -62.2212726099706 0 0 12 (C1) n - 1
REM
REM in /nfs/bkarasulu/CARBON/AIRSS/Generating-Clusters/AIREBO/with-SteepDescent/Higher-Symm/SD-CG/HFTN-CG
REM
REM
REM
REM
REM
REM ./C.cell (b20cbc046b6831c77cfcea5457e17084)
REM
REM compiler GCC version 9.2.1 20190827 (Red Hat 9.2.1-1)
REM options -cpp -mtune=generic -march=x86-64 -g -O0 -fpre-include=/usr/include/finclude/math-vector-fortran.h
REM seed -770596280 -1292878496 869865199 137076517 424846941 -2046591544 416493308 -1603091723 1899226366 -343791173 1592122268 -266525308 678900432 639264537 513514473 -1029219756 518399853 -1774243438 -1798684269 1177524437 1198676466 -2000097785 2058503963 1412504478 203691295 1524972295 -1296425161 -1208333847 601632058 1886603369 1065491018 -1832504232 -700700507
REM
CELL 1.54180   50.00000   50.00000   50.00000   90.00000   90.00000   90.00000
LATT -1
SFAC C  
C      1  0.5390750000000  0.5246040000000  0.5173970000000 1.0
C      1  0.4794340000000  0.4749910000000  0.5377960000000 1.0
C      1  0.4641330000000  0.5231920000000  0.4812850000000 1.0
C      1  0.5169270000000  0.4774200000000  0.4635030000000 1.0
C      1  0.5100170000000  0.4859920000000  0.4868770000000 1.0
C      1  0.5135000000000  0.5134070000000  0.5105100000000 1.0
C      1  0.4927030000000  0.4869580000000  0.5154090000000 1.0
C      1  0.4856540000000  0.5140120000000  0.4921020000000 1.0
C      1  0.4422470000000  0.5325000000000  0.4702800000000 1.0
C      1  0.5258730000000  0.4674760000000  0.4409620000000 1.0
C      1  0.5605880000000  0.5358330000000  0.5253330000000 1.0
C      1  0.4698490000000  0.4636140000000  0.5585470000000 1.0
END
