TITL C-2622966-9038-353 0.000411698854974355 125000 -215.013047735842 0 0 42 (C1) n - 1
REM
REM in /nfs/bkarasulu/CARBON/AIRSS/Generating-Clusters/AIREBO/with-SteepDescent/Higher-Symm/SD-CG/HFTN-CG
REM
REM
REM
REM
REM
REM ./C.cell (b20cbc046b6831c77cfcea5457e17084)
REM
REM compiler GCC version 9.2.1 20190827 (Red Hat 9.2.1-1)
REM options -cpp -mtune=generic -march=x86-64 -g -O0 -fpre-include=/usr/include/finclude/math-vector-fortran.h
REM seed 1233603071 153563290 -1485732955 407300252 -1120790946 715343874 175118618 1092433470 -1707492870 1971323013 -1177996063 -948681238 -690948672 -1287328188 471943237 -1858540431 -510214561 1215413564 -2124205213 1374505727 -2080105833 -532392811 2108913969 58179827 -1497731211 -993383085 938704526 1273378849 423131909 1885778385 1172582388 -494670164 -1513987720
REM
CELL 1.54180   50.00000   50.00000   50.00000   90.00000   90.00000   90.00000
LATT -1
SFAC C  
C      1  0.4854800000000  0.4969040000000  0.5100150000000 1.0
C      1  0.5139260000000  0.5059430000000  0.4936820000000 1.0
C      1  0.5524760000000  0.5387660000000  0.5003310000000 1.0
C      1  0.4463170000000  0.4620690000000  0.5039430000000 1.0
C      1  0.5276030000000  0.5353990000000  0.4833570000000 1.0
C      1  0.4732350000000  0.4658780000000  0.5171720000000 1.0
C      1  0.5030660000000  0.4534760000000  0.5065730000000 1.0
C      1  0.4991930000000  0.5426270000000  0.4973870000000 1.0
C      1  0.5176320000000  0.5061200000000  0.5607340000000 1.0
C      1  0.4854800000000  0.4971330000000  0.4429350000000 1.0
C      1  0.4628860000000  0.5407200000000  0.4443720000000 1.0
C      1  0.5401890000000  0.4601310000000  0.5532450000000 1.0
C      1  0.4896590000000  0.4789110000000  0.5576600000000 1.0
C      1  0.5124830000000  0.5158020000000  0.4443880000000 1.0
C      1  0.5180890000000  0.4415830000000  0.5351280000000 1.0
C      1  0.4882290000000  0.5565090000000  0.4532640000000 1.0
C      1  0.4860570000000  0.5341260000000  0.5241390000000 1.0
C      1  0.5079720000000  0.4607930000000  0.4775780000000 1.0
C      1  0.5191370000000  0.5311710000000  0.5300670000000 1.0
C      1  0.4761010000000  0.4701560000000  0.4703040000000 1.0
C      1  0.4577990000000  0.5359530000000  0.5147720000000 1.0
C      1  0.5389330000000  0.4659660000000  0.4769280000000 1.0
C      1  0.4708850000000  0.5024150000000  0.4797840000000 1.0
C      1  0.5295920000000  0.4995460000000  0.5231790000000 1.0
C      1  0.4891540000000  0.5076620000000  0.5421500000000 1.0
C      1  0.5096440000000  0.4910640000000  0.4663590000000 1.0
C      1  0.4601960000000  0.5122440000000  0.4490250000000 1.0
C      1  0.5402140000000  0.4879510000000  0.5533300000000 1.0
C      1  0.5401700000000  0.5481160000000  0.5247820000000 1.0
C      1  0.4546490000000  0.4545380000000  0.4774980000000 1.0
C      1  0.4915180000000  0.5270660000000  0.4686990000000 1.0
C      1  0.5089680000000  0.4742470000000  0.5327040000000 1.0
C      1  0.4428920000000  0.5110620000000  0.4970430000000 1.0
C      1  0.5509960000000  0.4860090000000  0.5004880000000 1.0
C      1  0.4300080000000  0.4840790000000  0.5058400000000 1.0
C      1  0.5667680000000  0.5153890000000  0.5016170000000 1.0
C      1  0.5315410000000  0.5395230000000  0.4330310000000 1.0
C      1  0.4776370000000  0.4543870000000  0.5668300000000 1.0
C      1  0.4843390000000  0.4436360000000  0.5399800000000 1.0
C      1  0.5195370000000  0.5528610000000  0.4570150000000 1.0
C      1  0.5711330000000  0.4712130000000  0.4772910000000 1.0
C      1  0.4282180000000  0.5408570000000  0.5053800000000 1.0
END
