TITL C-2622959-7779-277 0.0016439700486371 125000 -513.80513676153 0 0 97 (C1) n - 1
REM
REM in /nfs/bkarasulu/CARBON/AIRSS/Generating-Clusters/AIREBO/with-SteepDescent/Higher-Symm/SD-CG/HFTN-CG
REM
REM
REM
REM
REM
REM ./C.cell (b20cbc046b6831c77cfcea5457e17084)
REM
REM compiler GCC version 9.2.1 20190827 (Red Hat 9.2.1-1)
REM options -cpp -mtune=generic -march=x86-64 -g -O0 -fpre-include=/usr/include/finclude/math-vector-fortran.h
REM seed -1509417443 1021684482 1356950339 -1886784427 -1430036486 1237030646 1082132384 -1506585717 -858750909 2142414696 -1101378954 505472956 1788621073 1023999993 -1444167820 -324796754 312724431 -1167899590 1198161499 1380180000 -453301334 1793200989 -1976400618 -1388420720 -260505369 1715528467 -1307208510 -2075032024 -1467152244 -475876221 -1019271884 117763129 -1640868208
REM
CELL 1.54180   50.00000   50.00000   50.00000   90.00000   90.00000   90.00000
LATT -1
SFAC C  
C      1  0.4574420000000  0.4963860000000  0.5149060000000 1.0
C      1  0.4790220000000  0.5214210000000  0.5126560000000 1.0
C      1  0.5006660000000  0.5337320000000  0.5308470000000 1.0
C      1  0.5305290000000  0.5183610000000  0.5252390000000 1.0
C      1  0.5344320000000  0.4754590000000  0.5157380000000 1.0
C      1  0.4867000000000  0.4815120000000  0.5099650000000 1.0
C      1  0.4537460000000  0.4871970000000  0.4834850000000 1.0
C      1  0.4789650000000  0.5316700000000  0.4842030000000 1.0
C      1  0.5065390000000  0.5242120000000  0.4726780000000 1.0
C      1  0.5333240000000  0.5141810000000  0.4915860000000 1.0
C      1  0.5195460000000  0.4722910000000  0.4843370000000 1.0
C      1  0.4911700000000  0.4582960000000  0.4889510000000 1.0
C      1  0.4841740000000  0.4196730000000  0.5177430000000 1.0
C      1  0.4212640000000  0.4797590000000  0.5118920000000 1.0
C      1  0.4336780000000  0.5463330000000  0.5030890000000 1.0
C      1  0.5142970000000  0.5844510000000  0.5273930000000 1.0
C      1  0.5781970000000  0.5262160000000  0.5059980000000 1.0
C      1  0.5627090000000  0.4461360000000  0.5116700000000 1.0
C      1  0.4813350000000  0.4139060000000  0.4854350000000 1.0
C      1  0.4155880000000  0.4789830000000  0.4779040000000 1.0
C      1  0.4380320000000  0.5510800000000  0.4697030000000 1.0
C      1  0.5118260000000  0.5805970000000  0.4737160000000 1.0
C      1  0.5822750000000  0.5270820000000  0.4785990000000 1.0
C      1  0.5541240000000  0.4525480000000  0.4838940000000 1.0
C      1  0.5556720000000  0.5406290000000  0.5198820000000 1.0
C      1  0.5667600000000  0.4798530000000  0.5100110000000 1.0
C      1  0.5156380000000  0.4245680000000  0.5208640000000 1.0
C      1  0.4482180000000  0.4662200000000  0.5276090000000 1.0
C      1  0.4343970000000  0.5211230000000  0.5186850000000 1.0
C      1  0.4912430000000  0.5639920000000  0.5185300000000 1.0
C      1  0.5306630000000  0.5458540000000  0.4805450000000 1.0
C      1  0.5503070000000  0.4864040000000  0.4809780000000 1.0
C      1  0.5099360000000  0.4318090000000  0.4898830000000 1.0
C      1  0.4635140000000  0.4607110000000  0.4743630000000 1.0
C      1  0.4474880000000  0.5192780000000  0.4771640000000 1.0
C      1  0.4834350000000  0.5653740000000  0.4845980000000 1.0
C      1  0.4452110000000  0.4705780000000  0.5590090000000 1.0
C      1  0.4438520000000  0.5204180000000  0.5493580000000 1.0
C      1  0.4638950000000  0.5668690000000  0.5340720000000 1.0
C      1  0.5525450000000  0.5538770000000  0.5510420000000 1.0
C      1  0.5911340000000  0.5014150000000  0.5454690000000 1.0
C      1  0.5290800000000  0.4284330000000  0.5502080000000 1.0
C      1  0.4556720000000  0.4585260000000  0.4454320000000 1.0
C      1  0.4435040000000  0.5122650000000  0.4441290000000 1.0
C      1  0.4787550000000  0.5652530000000  0.4509120000000 1.0
C      1  0.5453210000000  0.5560450000000  0.4526820000000 1.0
C      1  0.5689120000000  0.4961770000000  0.4575860000000 1.0
C      1  0.5361150000000  0.4301080000000  0.4469120000000 1.0
C      1  0.4696150000000  0.4346400000000  0.4303750000000 1.0
C      1  0.4308130000000  0.4811710000000  0.4494420000000 1.0
C      1  0.4620520000000  0.5414550000000  0.4474580000000 1.0
C      1  0.5273270000000  0.5779640000000  0.4515490000000 1.0
C      1  0.5563100000000  0.5270890000000  0.4565330000000 1.0
C      1  0.5358850000000  0.4547740000000  0.4309760000000 1.0
C      1  0.4580220000000  0.4476310000000  0.5769880000000 1.0
C      1  0.4248530000000  0.4927240000000  0.5439640000000 1.0
C      1  0.4562500000000  0.5510350000000  0.5550300000000 1.0
C      1  0.5385450000000  0.5355840000000  0.5668050000000 1.0
C      1  0.5710660000000  0.4995970000000  0.5647230000000 1.0
C      1  0.5233910000000  0.4469090000000  0.5681540000000 1.0
C      1  0.5276200000000  0.4809710000000  0.5477300000000 1.0
C      1  0.5009300000000  0.4720910000000  0.5668300000000 1.0
C      1  0.4712980000000  0.4852440000000  0.5742950000000 1.0
C      1  0.4681970000000  0.5159790000000  0.5698610000000 1.0
C      1  0.4928050000000  0.5311730000000  0.5603860000000 1.0
C      1  0.5435190000000  0.5076620000000  0.5548750000000 1.0
C      1  0.5246180000000  0.4789840000000  0.4513360000000 1.0
C      1  0.5019650000000  0.4691520000000  0.4290690000000 1.0
C      1  0.4743970000000  0.4816640000000  0.4289980000000 1.0
C      1  0.4741040000000  0.5151560000000  0.4295750000000 1.0
C      1  0.5052690000000  0.5200050000000  0.4423360000000 1.0
C      1  0.5345760000000  0.5073130000000  0.4404010000000 1.0
C      1  0.5530810000000  0.4589520000000  0.4082510000000 1.0
C      1  0.4937170000000  0.4402200000000  0.4229250000000 1.0
C      1  0.4431370000000  0.4829920000000  0.4173730000000 1.0
C      1  0.4733020000000  0.5240550000000  0.3993790000000 1.0
C      1  0.4999270000000  0.5447960000000  0.4224100000000 1.0
C      1  0.5443160000000  0.5044300000000  0.4113040000000 1.0
C      1  0.5390830000000  0.4711810000000  0.5783250000000 1.0
C      1  0.4830810000000  0.4475390000000  0.5803230000000 1.0
C      1  0.4683200000000  0.4808320000000  0.6050960000000 1.0
C      1  0.4586130000000  0.5284140000000  0.5967490000000 1.0
C      1  0.5128400000000  0.5388180000000  0.5769700000000 1.0
C      1  0.5745380000000  0.4911450000000  0.5905050000000 1.0
C      1  0.4043220000000  0.5089510000000  0.5160070000000 1.0
C      1  0.4432640000000  0.5721030000000  0.5157380000000 1.0
C      1  0.5454290000000  0.5723840000000  0.5255180000000 1.0
C      1  0.5840030000000  0.5018010000000  0.5185490000000 1.0
C      1  0.5490020000000  0.4269760000000  0.5255560000000 1.0
C      1  0.4596790000000  0.4401930000000  0.5195900000000 1.0
C      1  0.4161050000000  0.5091770000000  0.4855110000000 1.0
C      1  0.4524300000000  0.5767100000000  0.4869180000000 1.0
C      1  0.5258330000000  0.5700980000000  0.4994900000000 1.0
C      1  0.5978330000000  0.5043850000000  0.4626680000000 1.0
C      1  0.5352470000000  0.4342230000000  0.4735850000000 1.0
C      1  0.4592400000000  0.4343880000000  0.4904800000000 1.0
C      1  0.5083680000000  0.4944480000000  0.5155710000000 1.0
END
