TITL C-2622956-4641-742 0.000954955479103946 125000 -1044.41254685229 0 0 196 (C1) n - 1
REM
REM in /nfs/bkarasulu/CARBON/AIRSS/Generating-Clusters/AIREBO/with-SteepDescent/Higher-Symm/SD-CG/HFTN-CG
REM
REM
REM
REM
REM
REM ./C.cell (b20cbc046b6831c77cfcea5457e17084)
REM
REM compiler GCC version 9.2.1 20190827 (Red Hat 9.2.1-1)
REM options -cpp -mtune=generic -march=x86-64 -g -O0 -fpre-include=/usr/include/finclude/math-vector-fortran.h
REM seed 349525630 -1796731241 162558284 -1047294220 1086999570 1115737147 -722195318 1691381366 -186234147 20852734 1539696960 -194600964 1435371509 1453027917 1333242877 971709817 -1410070558 1243725671 -1086552461 599391126 1433296262 -894165137 -1188355855 -1137853930 -791538716 1275580395 1419785210 1623449142 590759196 1319760073 -1643288103 2069361432 932500429
REM
CELL 1.54180   50.00000   50.00000   50.00000   90.00000   90.00000   90.00000
LATT -1
SFAC C  
C      1  0.4620850000000  0.4450110000000  0.4947420000000 1.0
C      1  0.5597600000000  0.5229670000000  0.5950660000000 1.0
C      1  0.5275050000000  0.5384270000000  0.5028890000000 1.0
C      1  0.5893500000000  0.5204480000000  0.4495860000000 1.0
C      1  0.4107160000000  0.4929980000000  0.4854060000000 1.0
C      1  0.4739620000000  0.3860950000000  0.4810930000000 1.0
C      1  0.5378020000000  0.5931500000000  0.5535400000000 1.0
C      1  0.4319400000000  0.5157220000000  0.4991970000000 1.0
C      1  0.4789840000000  0.4684080000000  0.4766460000000 1.0
C      1  0.5134640000000  0.3917950000000  0.4823240000000 1.0
C      1  0.4720460000000  0.4971100000000  0.5179670000000 1.0
C      1  0.3966550000000  0.4876650000000  0.5340280000000 1.0
C      1  0.5511080000000  0.4783560000000  0.5213770000000 1.0
C      1  0.6105000000000  0.4388140000000  0.4708120000000 1.0
C      1  0.5658030000000  0.5339400000000  0.5208990000000 1.0
C      1  0.5073950000000  0.4896380000000  0.5640810000000 1.0
C      1  0.4411430000000  0.4773230000000  0.4848140000000 1.0
C      1  0.4046010000000  0.5447130000000  0.5538780000000 1.0
C      1  0.4262080000000  0.5569690000000  0.5677520000000 1.0
C      1  0.5138350000000  0.5182170000000  0.5510040000000 1.0
C      1  0.5954360000000  0.4535590000000  0.5321180000000 1.0
C      1  0.5100610000000  0.4777450000000  0.3966980000000 1.0
C      1  0.4371900000000  0.5473950000000  0.4125830000000 1.0
C      1  0.5498910000000  0.5297050000000  0.4171830000000 1.0
C      1  0.4016860000000  0.5632350000000  0.5057310000000 1.0
C      1  0.4743990000000  0.4945340000000  0.3900630000000 1.0
C      1  0.5644520000000  0.5778670000000  0.5376530000000 1.0
C      1  0.4646360000000  0.4153990000000  0.5262400000000 1.0
C      1  0.4003870000000  0.4979750000000  0.4254510000000 1.0
C      1  0.5110290000000  0.4658480000000  0.6025960000000 1.0
C      1  0.5219650000000  0.6131270000000  0.5315130000000 1.0
C      1  0.5118580000000  0.5222860000000  0.6014320000000 1.0
C      1  0.4456710000000  0.5963950000000  0.5352490000000 1.0
C      1  0.5064190000000  0.4409770000000  0.4845940000000 1.0
C      1  0.5419540000000  0.4866030000000  0.4902150000000 1.0
C      1  0.4011870000000  0.5014160000000  0.4538160000000 1.0
C      1  0.5014570000000  0.5987900000000  0.4670470000000 1.0
C      1  0.5374180000000  0.4116670000000  0.5715010000000 1.0
C      1  0.4437000000000  0.4528200000000  0.5173970000000 1.0
C      1  0.5531020000000  0.4379230000000  0.4936240000000 1.0
C      1  0.5341560000000  0.5771580000000  0.6066690000000 1.0
C      1  0.4240570000000  0.4814630000000  0.4116450000000 1.0
C      1  0.4269490000000  0.5312020000000  0.4472310000000 1.0
C      1  0.5014240000000  0.5106270000000  0.3946740000000 1.0
C      1  0.4504960000000  0.4210720000000  0.4282840000000 1.0
C      1  0.4859010000000  0.5348650000000  0.4080430000000 1.0
C      1  0.4612020000000  0.5047260000000  0.4866320000000 1.0
C      1  0.4240420000000  0.4950430000000  0.5692470000000 1.0
C      1  0.5316200000000  0.5209420000000  0.4594240000000 1.0
C      1  0.3999040000000  0.4607870000000  0.4868200000000 1.0
C      1  0.4723680000000  0.5363110000000  0.5772140000000 1.0
C      1  0.4580290000000  0.5259880000000  0.4600910000000 1.0
C      1  0.4415140000000  0.5732570000000  0.5492120000000 1.0
C      1  0.5553890000000  0.5760120000000  0.4437740000000 1.0
C      1  0.5033750000000  0.5042350000000  0.4490280000000 1.0
C      1  0.5893640000000  0.4228010000000  0.4864360000000 1.0
C      1  0.4425290000000  0.5153400000000  0.4214240000000 1.0
C      1  0.4627670000000  0.4513430000000  0.4160760000000 1.0
C      1  0.4964620000000  0.4520070000000  0.5390500000000 1.0
C      1  0.5327220000000  0.4757240000000  0.5820340000000 1.0
C      1  0.4282000000000  0.4034730000000  0.5364490000000 1.0
C      1  0.4741640000000  0.5806700000000  0.4238830000000 1.0
C      1  0.5256280000000  0.5454270000000  0.5349490000000 1.0
C      1  0.4450170000000  0.5455780000000  0.5896760000000 1.0
C      1  0.5482140000000  0.5917420000000  0.4917830000000 1.0
C      1  0.5738800000000  0.5655570000000  0.4605730000000 1.0
C      1  0.4250770000000  0.5035440000000  0.5301940000000 1.0
C      1  0.5408200000000  0.5622600000000  0.4826050000000 1.0
C      1  0.4923220000000  0.5613660000000  0.4764800000000 1.0
C      1  0.5931820000000  0.4786700000000  0.5443290000000 1.0
C      1  0.4810610000000  0.5965950000000  0.4941750000000 1.0
C      1  0.5714720000000  0.4787760000000  0.5657140000000 1.0
C      1  0.5938650000000  0.5250890000000  0.5479810000000 1.0
C      1  0.4477700000000  0.4147470000000  0.4886410000000 1.0
C      1  0.4984130000000  0.5929730000000  0.5434620000000 1.0
C      1  0.4456740000000  0.4482780000000  0.4676520000000 1.0
C      1  0.5709760000000  0.5895720000000  0.5080240000000 1.0
C      1  0.5380740000000  0.5047360000000  0.5990300000000 1.0
C      1  0.4300650000000  0.5725730000000  0.4934560000000 1.0
C      1  0.5036700000000  0.4785520000000  0.4977500000000 1.0
C      1  0.4864890000000  0.5034370000000  0.6161490000000 1.0
C      1  0.4435120000000  0.5452680000000  0.5044820000000 1.0
C      1  0.5762730000000  0.4510950000000  0.4279930000000 1.0
C      1  0.5212450000000  0.5926820000000  0.5827140000000 1.0
C      1  0.4572830000000  0.4848630000000  0.4181120000000 1.0
C      1  0.4984110000000  0.5296250000000  0.4999120000000 1.0
C      1  0.5464600000000  0.4921850000000  0.4044810000000 1.0
C      1  0.5473340000000  0.5561830000000  0.4227910000000 1.0
C      1  0.4572680000000  0.4045390000000  0.4578820000000 1.0
C      1  0.4730830000000  0.4687250000000  0.5551180000000 1.0
C      1  0.5718820000000  0.4029890000000  0.4885820000000 1.0
C      1  0.4205070000000  0.5616870000000  0.4336000000000 1.0
C      1  0.4542800000000  0.5584760000000  0.4649640000000 1.0
C      1  0.4564490000000  0.5457550000000  0.5359230000000 1.0
C      1  0.5748090000000  0.5093320000000  0.4850490000000 1.0
C      1  0.4496790000000  0.4802400000000  0.5332730000000 1.0
C      1  0.4912690000000  0.5394020000000  0.5544920000000 1.0
C      1  0.6060320000000  0.5140660000000  0.4971720000000 1.0
C      1  0.5107360000000  0.4172940000000  0.5014010000000 1.0
C      1  0.5535290000000  0.4450850000000  0.4115440000000 1.0
C      1  0.5935780000000  0.5558830000000  0.4789620000000 1.0
C      1  0.4870920000000  0.5088860000000  0.5828240000000 1.0
C      1  0.5547900000000  0.4531370000000  0.5693040000000 1.0
C      1  0.4682600000000  0.5679450000000  0.6006250000000 1.0
C      1  0.5091790000000  0.5785670000000  0.5005620000000 1.0
C      1  0.4116620000000  0.4473290000000  0.5122160000000 1.0
C      1  0.4859800000000  0.4097470000000  0.4426470000000 1.0
C      1  0.4860220000000  0.3982420000000  0.5060880000000 1.0
C      1  0.5429830000000  0.4294100000000  0.4509600000000 1.0
C      1  0.4962910000000  0.4075450000000  0.5695660000000 1.0
C      1  0.5321210000000  0.4981470000000  0.5345750000000 1.0
C      1  0.5583260000000  0.5084420000000  0.4424580000000 1.0
C      1  0.5293120000000  0.4579110000000  0.4952580000000 1.0
C      1  0.4473750000000  0.3899960000000  0.5119900000000 1.0
C      1  0.5191870000000  0.5635650000000  0.4335600000000 1.0
C      1  0.4043070000000  0.4608470000000  0.5392790000000 1.0
C      1  0.4479500000000  0.5949000000000  0.5024480000000 1.0
C      1  0.4754290000000  0.5538840000000  0.5017920000000 1.0
C      1  0.4831510000000  0.5289860000000  0.4396830000000 1.0
C      1  0.5750490000000  0.4825760000000  0.4685210000000 1.0
C      1  0.5090980000000  0.5646630000000  0.5575720000000 1.0
C      1  0.5921060000000  0.5575260000000  0.5390770000000 1.0
C      1  0.6041450000000  0.5316530000000  0.4703120000000 1.0
C      1  0.4448170000000  0.4585950000000  0.5891430000000 1.0
C      1  0.4616960000000  0.4357560000000  0.5910820000000 1.0
C      1  0.4829840000000  0.4693400000000  0.5876830000000 1.0
C      1  0.5596190000000  0.5364470000000  0.4709200000000 1.0
C      1  0.4995100000000  0.4520470000000  0.4569430000000 1.0
C      1  0.4741010000000  0.6072560000000  0.5256960000000 1.0
C      1  0.4029550000000  0.5284880000000  0.4688010000000 1.0
C      1  0.6193580000000  0.4853400000000  0.4981230000000 1.0
C      1  0.4325840000000  0.4641430000000  0.5578720000000 1.0
C      1  0.4060990000000  0.5317590000000  0.5300110000000 1.0
C      1  0.5515810000000  0.5036980000000  0.5612510000000 1.0
C      1  0.4714660000000  0.4402000000000  0.4470080000000 1.0
C      1  0.4918860000000  0.4220630000000  0.5397540000000 1.0
C      1  0.4631910000000  0.4970190000000  0.5667700000000 1.0
C      1  0.4424670000000  0.5199470000000  0.5525930000000 1.0
C      1  0.5301410000000  0.4552320000000  0.5353110000000 1.0
C      1  0.5534780000000  0.5420740000000  0.5510670000000 1.0
C      1  0.5408300000000  0.4649610000000  0.3897580000000 1.0
C      1  0.5773810000000  0.4989510000000  0.4086630000000 1.0
C      1  0.5439410000000  0.4819530000000  0.4585460000000 1.0
C      1  0.5775000000000  0.4560330000000  0.4839950000000 1.0
C      1  0.4422100000000  0.4331060000000  0.5450600000000 1.0
C      1  0.4749140000000  0.6184300000000  0.4634550000000 1.0
C      1  0.3956350000000  0.5324110000000  0.4976670000000 1.0
C      1  0.5239950000000  0.4404270000000  0.5653650000000 1.0
C      1  0.4060210000000  0.4592890000000  0.4534060000000 1.0
C      1  0.5007850000000  0.4845210000000  0.5311050000000 1.0
C      1  0.5183610000000  0.5533040000000  0.5882720000000 1.0
C      1  0.4442950000000  0.5115050000000  0.5910510000000 1.0
C      1  0.4265550000000  0.4717730000000  0.4400830000000 1.0
C      1  0.5261470000000  0.6079310000000  0.5029870000000 1.0
C      1  0.4936230000000  0.5758880000000  0.5941920000000 1.0
C      1  0.6006670000000  0.4425100000000  0.4434300000000 1.0
C      1  0.5259340000000  0.5826610000000  0.4597620000000 1.0
C      1  0.3886020000000  0.5022430000000  0.5095240000000 1.0
C      1  0.4906670000000  0.4525930000000  0.3985890000000 1.0
C      1  0.6099120000000  0.5337440000000  0.5212360000000 1.0
C      1  0.5475790000000  0.5150180000000  0.5021940000000 1.0
C      1  0.5760600000000  0.4378080000000  0.5473280000000 1.0
C      1  0.5219410000000  0.4067580000000  0.5439300000000 1.0
C      1  0.4255370000000  0.5676710000000  0.4626530000000 1.0
C      1  0.4915120000000  0.4231660000000  0.4152980000000 1.0
C      1  0.5158820000000  0.4545680000000  0.6255480000000 1.0
C      1  0.5424210000000  0.4094200000000  0.4784690000000 1.0
C      1  0.5074580000000  0.5435250000000  0.4550480000000 1.0
C      1  0.4600080000000  0.4851850000000  0.6047180000000 1.0
C      1  0.5717240000000  0.5031410000000  0.5340730000000 1.0
C      1  0.4485150000000  0.5101220000000  0.3885310000000 1.0
C      1  0.5766910000000  0.4806310000000  0.4356770000000 1.0
C      1  0.5097000000000  0.3953520000000  0.4522800000000 1.0
C      1  0.4948800000000  0.5046520000000  0.4819500000000 1.0
C      1  0.4614100000000  0.5582600000000  0.4063320000000 1.0
C      1  0.5268320000000  0.4574980000000  0.4422490000000 1.0
C      1  0.4749840000000  0.5811820000000  0.4549830000000 1.0
C      1  0.5643600000000  0.4169180000000  0.5344180000000 1.0
C      1  0.5330160000000  0.5754520000000  0.5248980000000 1.0
C      1  0.4753940000000  0.4850030000000  0.4469860000000 1.0
C      1  0.5313790000000  0.5181090000000  0.3954610000000 1.0
C      1  0.4214180000000  0.4184210000000  0.5089800000000 1.0
C      1  0.5496890000000  0.5447790000000  0.5786530000000 1.0
C      1  0.5355670000000  0.4253890000000  0.5199280000000 1.0
C      1  0.4446830000000  0.4858230000000  0.4556630000000 1.0
C      1  0.6062420000000  0.4558700000000  0.4999470000000 1.0
C      1  0.5808100000000  0.5150210000000  0.5744380000000 1.0
C      1  0.4157640000000  0.4350420000000  0.4712440000000 1.0
C      1  0.5207870000000  0.4869900000000  0.4264390000000 1.0
C      1  0.4811580000000  0.5685330000000  0.5294490000000 1.0
C      1  0.5831110000000  0.5594710000000  0.5069300000000 1.0
C      1  0.4991540000000  0.5659110000000  0.4127060000000 1.0
C      1  0.5197600000000  0.4413480000000  0.4133280000000 1.0
C      1  0.5327310000000  0.4040360000000  0.4401240000000 1.0
C      1  0.4819160000000  0.5246820000000  0.5279470000000 1.0
C      1  0.4935190000000  0.4387760000000  0.5794910000000 1.0
END
