TITL C-2622958-629-777 -0.0010976080938109 125000 -331.501528020483 0 0 59 (C1) n - 1
REM
REM in /nfs/bkarasulu/CARBON/AIRSS/Generating-Clusters/AIREBO/with-SteepDescent/Higher-Symm/SD-CG/HFTN-CG
REM
REM
REM
REM
REM
REM ./C.cell (b20cbc046b6831c77cfcea5457e17084)
REM
REM compiler GCC version 9.2.1 20190827 (Red Hat 9.2.1-1)
REM options -cpp -mtune=generic -march=x86-64 -g -O0 -fpre-include=/usr/include/finclude/math-vector-fortran.h
REM seed -1351640759 -359613844 -246632767 36326023 158820203 1561336320 237956081 -1426177807 1373625205 -327676493 -760411042 -361528350 1523077615 -1044666890 -1203331948 153435292 -1325937132 -1965754433 1107981679 -1876242359 -722049063 39227751 68846568 1474114000 -290702399 -819610079 1350171836 1117577890 -332251338 -575212424 -2100888671 -1800200754 68719766
REM
CELL 1.54180   50.00000   50.00000   50.00000   90.00000   90.00000   90.00000
LATT -1
SFAC C  
C      1  0.5680900000000  0.4904720000000  0.5145130000000 1.0
C      1  0.4286410000000  0.4928380000000  0.4796120000000 1.0
C      1  0.5607630000000  0.5139880000000  0.5322300000000 1.0
C      1  0.4381980000000  0.5155950000000  0.4649830000000 1.0
C      1  0.4303170000000  0.4919590000000  0.5120630000000 1.0
C      1  0.5716070000000  0.4988690000000  0.4839540000000 1.0
C      1  0.4393730000000  0.5145620000000  0.5291320000000 1.0
C      1  0.5590280000000  0.5193620000000  0.4674300000000 1.0
C      1  0.4701070000000  0.4409390000000  0.5258600000000 1.0
C      1  0.5328760000000  0.4451470000000  0.4781410000000 1.0
C      1  0.4732140000000  0.5710830000000  0.5104430000000 1.0
C      1  0.5509960000000  0.5754770000000  0.4985740000000 1.0
C      1  0.5287110000000  0.4304960000000  0.5023500000000 1.0
C      1  0.4615850000000  0.4362440000000  0.4960550000000 1.0
C      1  0.5337250000000  0.5752280000000  0.5177860000000 1.0
C      1  0.4723370000000  0.5705900000000  0.4843050000000 1.0
C      1  0.4894070000000  0.4640310000000  0.5645360000000 1.0
C      1  0.5120220000000  0.4660270000000  0.4378990000000 1.0
C      1  0.4859900000000  0.5344590000000  0.5522880000000 1.0
C      1  0.5138190000000  0.5344850000000  0.4455670000000 1.0
C      1  0.5129110000000  0.4713490000000  0.5790250000000 1.0
C      1  0.4881230000000  0.4716900000000  0.4234660000000 1.0
C      1  0.5152450000000  0.5349540000000  0.5537730000000 1.0
C      1  0.4856540000000  0.5336580000000  0.4444950000000 1.0
C      1  0.5358630000000  0.4869050000000  0.4717530000000 1.0
C      1  0.4645830000000  0.4835370000000  0.5302590000000 1.0
C      1  0.5239870000000  0.5085160000000  0.4887030000000 1.0
C      1  0.4751470000000  0.5057850000000  0.5137420000000 1.0
C      1  0.4639640000000  0.4797870000000  0.4661710000000 1.0
C      1  0.5238510000000  0.4868680000000  0.5354590000000 1.0
C      1  0.4731710000000  0.5047420000000  0.4807140000000 1.0
C      1  0.5224280000000  0.5107420000000  0.5216860000000 1.0
C      1  0.4423110000000  0.5387040000000  0.5120320000000 1.0
C      1  0.5540560000000  0.5467890000000  0.4840980000000 1.0
C      1  0.4438720000000  0.4619650000000  0.5206050000000 1.0
C      1  0.5578160000000  0.4677310000000  0.4832630000000 1.0
C      1  0.5538680000000  0.5360940000000  0.5155880000000 1.0
C      1  0.4415920000000  0.5386580000000  0.4835480000000 1.0
C      1  0.5518300000000  0.4640800000000  0.5164030000000 1.0
C      1  0.4444950000000  0.4641820000000  0.4872830000000 1.0
C      1  0.5217550000000  0.5447330000000  0.5225620000000 1.0
C      1  0.4743920000000  0.5380600000000  0.4746140000000 1.0
C      1  0.5192240000000  0.4563750000000  0.5222590000000 1.0
C      1  0.4812710000000  0.4522120000000  0.4762690000000 1.0
C      1  0.4750090000000  0.5389270000000  0.5213570000000 1.0
C      1  0.5241540000000  0.5371220000000  0.4753440000000 1.0
C      1  0.4929070000000  0.4473560000000  0.5408500000000 1.0
C      1  0.5102160000000  0.4495070000000  0.4613170000000 1.0
C      1  0.5301850000000  0.4869460000000  0.4428460000000 1.0
C      1  0.4703250000000  0.4850370000000  0.5595130000000 1.0
C      1  0.5391660000000  0.5161130000000  0.4448980000000 1.0
C      1  0.4609670000000  0.5154350000000  0.5533090000000 1.0
C      1  0.4672080000000  0.4855700000000  0.4358680000000 1.0
C      1  0.5301390000000  0.4880870000000  0.5644640000000 1.0
C      1  0.4600480000000  0.5138000000000  0.4441160000000 1.0
C      1  0.5405280000000  0.5159710000000  0.5569740000000 1.0
C      1  0.4994130000000  0.5386590000000  0.4976600000000 1.0
C      1  0.5012160000000  0.4657870000000  0.4966940000000 1.0
C      1  0.4984040000000  0.4943900000000  0.4947780000000 1.0
END
