TITL C-2622962-9663-274 -0.0017364879843431 125000 -870.184889550913 0 0 162 (C1) n - 1
REM
REM in /nfs/bkarasulu/CARBON/AIRSS/Generating-Clusters/AIREBO/with-SteepDescent/Higher-Symm/SD-CG/HFTN-CG
REM
REM
REM
REM
REM
REM ./C.cell (b20cbc046b6831c77cfcea5457e17084)
REM
REM compiler GCC version 9.2.1 20190827 (Red Hat 9.2.1-1)
REM options -cpp -mtune=generic -march=x86-64 -g -O0 -fpre-include=/usr/include/finclude/math-vector-fortran.h
REM seed -274750912 1416896271 832933061 -700484678 -2063049841 -1729441616 -1659541444 1370925890 1533716747 838399627 -632177866 -925794364 1169212630 -959872474 1761489509 -1102471073 -680069483 38416741 -436935540 1833493104 735439995 -749750063 -1096230739 1032778235 2090332551 685964397 757827112 -209253621 187367916 1676066925 1491350438 1532250036 -949312121
REM
CELL 1.54180   50.00000   50.00000   50.00000   90.00000   90.00000   90.00000
LATT -1
SFAC C  
C      1  0.5073290000000  0.5591590000000  0.4454940000000 1.0
C      1  0.4539870000000  0.5456630000000  0.4500550000000 1.0
C      1  0.4350720000000  0.4726520000000  0.4520340000000 1.0
C      1  0.4554740000000  0.4384470000000  0.4497460000000 1.0
C      1  0.5247970000000  0.4458620000000  0.4497640000000 1.0
C      1  0.5772450000000  0.4835590000000  0.4399920000000 1.0
C      1  0.5686220000000  0.5582100000000  0.4575610000000 1.0
C      1  0.5363840000000  0.5684720000000  0.5702020000000 1.0
C      1  0.4731100000000  0.5608120000000  0.5632240000000 1.0
C      1  0.4242010000000  0.5238450000000  0.5678930000000 1.0
C      1  0.4286350000000  0.4819850000000  0.5928340000000 1.0
C      1  0.4782410000000  0.4333210000000  0.5830200000000 1.0
C      1  0.5461470000000  0.4384510000000  0.5788830000000 1.0
C      1  0.5659460000000  0.5143050000000  0.5717330000000 1.0
C      1  0.5913610000000  0.4912850000000  0.5353700000000 1.0
C      1  0.5587710000000  0.5875540000000  0.5408620000000 1.0
C      1  0.4651940000000  0.5996670000000  0.5268600000000 1.0
C      1  0.4051620000000  0.5297020000000  0.5334760000000 1.0
C      1  0.3975660000000  0.4332750000000  0.5381330000000 1.0
C      1  0.4887360000000  0.3918990000000  0.5513860000000 1.0
C      1  0.5719110000000  0.4175870000000  0.5358100000000 1.0
C      1  0.5134440000000  0.4714740000000  0.4985820000000 1.0
C      1  0.5318230000000  0.5000180000000  0.5007190000000 1.0
C      1  0.5363550000000  0.5337370000000  0.5006130000000 1.0
C      1  0.5089660000000  0.5507580000000  0.5045340000000 1.0
C      1  0.4725200000000  0.5224090000000  0.5038000000000 1.0
C      1  0.4605500000000  0.4937380000000  0.5031570000000 1.0
C      1  0.4860380000000  0.4742910000000  0.5150900000000 1.0
C      1  0.5984570000000  0.4597520000000  0.4546620000000 1.0
C      1  0.5974180000000  0.5540170000000  0.4751690000000 1.0
C      1  0.5257050000000  0.6008440000000  0.4658200000000 1.0
C      1  0.4407800000000  0.5865440000000  0.4709360000000 1.0
C      1  0.4108800000000  0.4933500000000  0.4531700000000 1.0
C      1  0.4297850000000  0.4338250000000  0.4346240000000 1.0
C      1  0.5118490000000  0.4184660000000  0.4577960000000 1.0
C      1  0.5538500000000  0.4633640000000  0.4754060000000 1.0
C      1  0.5659900000000  0.5126700000000  0.4842270000000 1.0
C      1  0.5526610000000  0.5585010000000  0.4876530000000 1.0
C      1  0.4844950000000  0.5576660000000  0.4892360000000 1.0
C      1  0.4348220000000  0.5056170000000  0.4740900000000 1.0
C      1  0.4485380000000  0.4692310000000  0.4830970000000 1.0
C      1  0.4826380000000  0.4379320000000  0.4962700000000 1.0
C      1  0.4570760000000  0.5349650000000  0.4198890000000 1.0
C      1  0.4500000000000  0.4787150000000  0.3992340000000 1.0
C      1  0.4814210000000  0.4407800000000  0.4292630000000 1.0
C      1  0.5273690000000  0.4620920000000  0.3979560000000 1.0
C      1  0.5644200000000  0.4992230000000  0.4146290000000 1.0
C      1  0.5463750000000  0.5491810000000  0.4341640000000 1.0
C      1  0.4940010000000  0.5406520000000  0.3951820000000 1.0
C      1  0.4896200000000  0.4684860000000  0.4263810000000 1.0
C      1  0.5232610000000  0.4727040000000  0.4289450000000 1.0
C      1  0.5367290000000  0.5024320000000  0.4194000000000 1.0
C      1  0.5270980000000  0.5268390000000  0.4328330000000 1.0
C      1  0.4966710000000  0.5348020000000  0.4242560000000 1.0
C      1  0.4735170000000  0.5114990000000  0.4330760000000 1.0
C      1  0.4582500000000  0.4814090000000  0.4286720000000 1.0
C      1  0.4641610000000  0.4667010000000  0.5502590000000 1.0
C      1  0.4964100000000  0.4584400000000  0.5433290000000 1.0
C      1  0.5301620000000  0.4602000000000  0.5395860000000 1.0
C      1  0.5339970000000  0.5102880000000  0.5328380000000 1.0
C      1  0.5154090000000  0.5355160000000  0.5346180000000 1.0
C      1  0.4852600000000  0.5197790000000  0.5346100000000 1.0
C      1  0.4605720000000  0.4977450000000  0.5428940000000 1.0
C      1  0.5007130000000  0.4540140000000  0.4723630000000 1.0
C      1  0.5457250000000  0.4821620000000  0.4526800000000 1.0
C      1  0.5361920000000  0.5089720000000  0.4682010000000 1.0
C      1  0.5093130000000  0.5287440000000  0.4614870000000 1.0
C      1  0.4764320000000  0.5303260000000  0.4706780000000 1.0
C      1  0.4663850000000  0.4986560000000  0.4633840000000 1.0
C      1  0.4726590000000  0.4651060000000  0.4621340000000 1.0
C      1  0.4990340000000  0.5804780000000  0.5532690000000 1.0
C      1  0.4235380000000  0.5533370000000  0.5537990000000 1.0
C      1  0.4081780000000  0.4762470000000  0.5751370000000 1.0
C      1  0.4717190000000  0.4145210000000  0.5632210000000 1.0
C      1  0.5524300000000  0.4230850000000  0.5576040000000 1.0
C      1  0.5846370000000  0.4878060000000  0.5648070000000 1.0
C      1  0.5685640000000  0.5626800000000  0.5625360000000 1.0
C      1  0.5573210000000  0.4782730000000  0.5021550000000 1.0
C      1  0.5681550000000  0.5311880000000  0.5123870000000 1.0
C      1  0.5317740000000  0.5756770000000  0.5084010000000 1.0
C      1  0.4584050000000  0.5526660000000  0.5102750000000 1.0
C      1  0.4281260000000  0.4990400000000  0.5066960000000 1.0
C      1  0.4600650000000  0.4545310000000  0.5086740000000 1.0
C      1  0.5151830000000  0.4374900000000  0.5056950000000 1.0
C      1  0.4992900000000  0.4260210000000  0.5334860000000 1.0
C      1  0.5537080000000  0.4545820000000  0.5233060000000 1.0
C      1  0.5671120000000  0.5113960000000  0.5378550000000 1.0
C      1  0.5369780000000  0.5616070000000  0.5380300000000 1.0
C      1  0.4635650000000  0.5740990000000  0.5361600000000 1.0
C      1  0.4274550000000  0.5047980000000  0.5397360000000 1.0
C      1  0.4446300000000  0.4477330000000  0.5340940000000 1.0
C      1  0.5052900000000  0.5262390000000  0.3689060000000 1.0
C      1  0.4740900000000  0.5236750000000  0.3761380000000 1.0
C      1  0.4618180000000  0.4992200000000  0.3775760000000 1.0
C      1  0.4737730000000  0.4695340000000  0.3792960000000 1.0
C      1  0.4998510000000  0.4609150000000  0.3802030000000 1.0
C      1  0.5233680000000  0.4811610000000  0.3724320000000 1.0
C      1  0.5230390000000  0.5063690000000  0.3612220000000 1.0
C      1  0.4460530000000  0.5473230000000  0.5791970000000 1.0
C      1  0.4372990000000  0.4989130000000  0.6148770000000 1.0
C      1  0.4665930000000  0.4474800000000  0.6044440000000 1.0
C      1  0.5312240000000  0.4441200000000  0.6033620000000 1.0
C      1  0.5678340000000  0.4777330000000  0.5873470000000 1.0
C      1  0.5576210000000  0.5406270000000  0.5855240000000 1.0
C      1  0.5060260000000  0.5711980000000  0.5852330000000 1.0
C      1  0.5321360000000  0.4686070000000  0.5717850000000 1.0
C      1  0.5370610000000  0.5005760000000  0.5616660000000 1.0
C      1  0.5126350000000  0.5448290000000  0.5648180000000 1.0
C      1  0.4766160000000  0.5276930000000  0.5635120000000 1.0
C      1  0.4505680000000  0.5082600000000  0.5721550000000 1.0
C      1  0.4587260000000  0.4781620000000  0.5802260000000 1.0
C      1  0.5006040000000  0.4543670000000  0.5768230000000 1.0
C      1  0.5713630000000  0.5854690000000  0.4900510000000 1.0
C      1  0.4879100000000  0.5895880000000  0.4844640000000 1.0
C      1  0.4173870000000  0.5336310000000  0.4823290000000 1.0
C      1  0.4099510000000  0.4607340000000  0.4989060000000 1.0
C      1  0.4710210000000  0.4095960000000  0.4916160000000 1.0
C      1  0.5581290000000  0.4340240000000  0.4778820000000 1.0
C      1  0.5933210000000  0.4990850000000  0.4862420000000 1.0
C      1  0.5355900000000  0.6028750000000  0.4890990000000 1.0
C      1  0.4365730000000  0.5743760000000  0.4940850000000 1.0
C      1  0.3832820000000  0.4818800000000  0.4550010000000 1.0
C      1  0.4292390000000  0.4180210000000  0.4122900000000 1.0
C      1  0.5146530000000  0.4114430000000  0.4838440000000 1.0
C      1  0.6049260000000  0.4550450000000  0.4802840000000 1.0
C      1  0.5952130000000  0.5489780000000  0.5019950000000 1.0
C      1  0.5309530000000  0.5199050000000  0.5899030000000 1.0
C      1  0.5027260000000  0.5381590000000  0.5952530000000 1.0
C      1  0.4714000000000  0.5313810000000  0.5969100000000 1.0
C      1  0.4641230000000  0.5054690000000  0.6123760000000 1.0
C      1  0.4800960000000  0.4778380000000  0.6058900000000 1.0
C      1  0.5104660000000  0.4703130000000  0.6051980000000 1.0
C      1  0.5376480000000  0.4878940000000  0.5992570000000 1.0
C      1  0.4073080000000  0.4442550000000  0.4472790000000 1.0
C      1  0.4876610000000  0.4156390000000  0.4450850000000 1.0
C      1  0.5747980000000  0.4499850000000  0.4351120000000 1.0
C      1  0.5924290000000  0.5327460000000  0.4517780000000 1.0
C      1  0.5359370000000  0.5777680000000  0.4454880000000 1.0
C      1  0.4585400000000  0.5746610000000  0.4523360000000 1.0
C      1  0.4136000000000  0.5204120000000  0.4378250000000 1.0
C      1  0.5639470000000  0.5918690000000  0.4587390000000 1.0
C      1  0.4853250000000  0.5801110000000  0.4562710000000 1.0
C      1  0.4248230000000  0.5387970000000  0.4542620000000 1.0
C      1  0.4119140000000  0.4584380000000  0.4725040000000 1.0
C      1  0.4649970000000  0.4090630000000  0.4641740000000 1.0
C      1  0.5549660000000  0.4349540000000  0.4475120000000 1.0
C      1  0.5940320000000  0.5058900000000  0.4566640000000 1.0
C      1  0.4752330000000  0.4071750000000  0.5240920000000 1.0
C      1  0.5566800000000  0.4253980000000  0.5064320000000 1.0
C      1  0.5965130000000  0.4833430000000  0.5095440000000 1.0
C      1  0.5794570000000  0.5866850000000  0.5167450000000 1.0
C      1  0.4883100000000  0.6023280000000  0.5101780000000 1.0
C      1  0.4086090000000  0.5417120000000  0.5058950000000 1.0
C      1  0.4147330000000  0.4545140000000  0.5300720000000 1.0
C      1  0.5826450000000  0.4557270000000  0.5047160000000 1.0
C      1  0.5803150000000  0.5562520000000  0.5318920000000 1.0
C      1  0.5083400000000  0.5908790000000  0.5277940000000 1.0
C      1  0.4282020000000  0.5603320000000  0.5238990000000 1.0
C      1  0.4110700000000  0.4789180000000  0.5483300000000 1.0
C      1  0.4504250000000  0.4197430000000  0.5422820000000 1.0
C      1  0.5328360000000  0.4213560000000  0.5304200000000 1.0
C      1  0.5020590000000  0.5122060000000  0.4971300000000 1.0
END
