TITL C-2622954-8726-192 0.000904828491716888 125000 -309.227937173027 0 0 57 (C1) n - 1
REM
REM in /nfs/bkarasulu/CARBON/AIRSS/Generating-Clusters/AIREBO/with-SteepDescent/Higher-Symm/SD-CG/HFTN-CG
REM
REM
REM
REM
REM
REM ./C.cell (b20cbc046b6831c77cfcea5457e17084)
REM
REM compiler GCC version 9.2.1 20190827 (Red Hat 9.2.1-1)
REM options -cpp -mtune=generic -march=x86-64 -g -O0 -fpre-include=/usr/include/finclude/math-vector-fortran.h
REM seed 1456307500 -2125719218 675394699 -843315437 -1228473857 1700960468 693632023 -920214360 453346146 -445655059 1454044121 1889181805 -234333674 674276865 -1955131696 -6370432 568985348 1190594572 -440166426 1366428005 955114972 -1450988891 1452545576 -137222355 -373344559 39296611 1199485646 762593407 1075972462 312907941 29512758 1029435489 1406600575
REM
CELL 1.54180   50.00000   50.00000   50.00000   90.00000   90.00000   90.00000
LATT -1
SFAC C  
C      1  0.5154530000000  0.5536580000000  0.5037520000000 1.0
C      1  0.4849790000000  0.4494590000000  0.4999390000000 1.0
C      1  0.5156230000000  0.4523510000000  0.4954760000000 1.0
C      1  0.4846440000000  0.5532150000000  0.5014730000000 1.0
C      1  0.5453240000000  0.5155910000000  0.4406480000000 1.0
C      1  0.4486290000000  0.4763940000000  0.4239510000000 1.0
C      1  0.5420540000000  0.4828670000000  0.5707950000000 1.0
C      1  0.4569160000000  0.5165160000000  0.5720280000000 1.0
C      1  0.5246180000000  0.4828670000000  0.4928940000000 1.0
C      1  0.4740740000000  0.5228400000000  0.4985250000000 1.0
C      1  0.5251620000000  0.5238570000000  0.5051530000000 1.0
C      1  0.4743130000000  0.4789560000000  0.5036220000000 1.0
C      1  0.4775190000000  0.5509160000000  0.4702960000000 1.0
C      1  0.5243490000000  0.4497890000000  0.4651430000000 1.0
C      1  0.4746460000000  0.4492000000000  0.5302630000000 1.0
C      1  0.5265110000000  0.5517420000000  0.5336760000000 1.0
C      1  0.4617050000000  0.5150950000000  0.5455450000000 1.0
C      1  0.5386050000000  0.4859230000000  0.5442320000000 1.0
C      1  0.4561350000000  0.4829540000000  0.4489540000000 1.0
C      1  0.5287590000000  0.5068410000000  0.4691360000000 1.0
C      1  0.5689750000000  0.4616770000000  0.4751750000000 1.0
C      1  0.4324150000000  0.5415500000000  0.4765370000000 1.0
C      1  0.5692350000000  0.5399880000000  0.5185380000000 1.0
C      1  0.4309780000000  0.4621260000000  0.5190260000000 1.0
C      1  0.4431400000000  0.5153650000000  0.4888310000000 1.0
C      1  0.5579850000000  0.4873760000000  0.4875440000000 1.0
C      1  0.4448670000000  0.4869860000000  0.5074780000000 1.0
C      1  0.5548370000000  0.5150800000000  0.5070020000000 1.0
C      1  0.4817440000000  0.5604340000000  0.5494290000000 1.0
C      1  0.5215350000000  0.4426810000000  0.5429000000000 1.0
C      1  0.4791700000000  0.4367930000000  0.4527200000000 1.0
C      1  0.5210130000000  0.5555820000000  0.4563860000000 1.0
C      1  0.5286220000000  0.4371640000000  0.5191450000000 1.0
C      1  0.4737990000000  0.5678310000000  0.5264100000000 1.0
C      1  0.5265930000000  0.5668800000000  0.4784180000000 1.0
C      1  0.4731840000000  0.4325960000000  0.4769880000000 1.0
C      1  0.5132000000000  0.4842150000000  0.5324580000000 1.0
C      1  0.4877830000000  0.5162170000000  0.5351760000000 1.0
C      1  0.4970180000000  0.5034750000000  0.4728200000000 1.0
C      1  0.4824750000000  0.4822430000000  0.4574860000000 1.0
C      1  0.5004940000000  0.4870480000000  0.5701650000000 1.0
C      1  0.5015270000000  0.5119520000000  0.5723420000000 1.0
C      1  0.5065280000000  0.5083730000000  0.4343050000000 1.0
C      1  0.5066900000000  0.4846850000000  0.4259820000000 1.0
C      1  0.4414050000000  0.5121870000000  0.5268460000000 1.0
C      1  0.5596680000000  0.4910870000000  0.5270630000000 1.0
C      1  0.4380280000000  0.4911650000000  0.4684410000000 1.0
C      1  0.5619560000000  0.5140730000000  0.4678100000000 1.0
C      1  0.5508500000000  0.4464640000000  0.4611480000000 1.0
C      1  0.4518570000000  0.5561350000000  0.4636780000000 1.0
C      1  0.5533580000000  0.5546220000000  0.5357900000000 1.0
C      1  0.4479780000000  0.4458740000000  0.5334500000000 1.0
C      1  0.4956410000000  0.4616590000000  0.5480780000000 1.0
C      1  0.5053720000000  0.5384740000000  0.5514140000000 1.0
C      1  0.4988030000000  0.5328020000000  0.4556970000000 1.0
C      1  0.5018570000000  0.4582970000000  0.4461490000000 1.0
C      1  0.4994300000000  0.5016770000000  0.5067070000000 1.0
END
