TITL C-2622965-4321-41 0.00136022851819793 125000 -613.803371408969 0 0 110 (C1) n - 1
REM
REM in /nfs/bkarasulu/CARBON/AIRSS/Generating-Clusters/AIREBO/with-SteepDescent/Higher-Symm/SD-CG/HFTN-CG
REM
REM
REM
REM
REM
REM ./C.cell (b20cbc046b6831c77cfcea5457e17084)
REM
REM compiler GCC version 9.2.1 20190827 (Red Hat 9.2.1-1)
REM options -cpp -mtune=generic -march=x86-64 -g -O0 -fpre-include=/usr/include/finclude/math-vector-fortran.h
REM seed -136333464 1751183955 882306341 1257335103 290733910 1732556686 2129819543 -938605462 -253219550 842740804 -819303012 864980953 425272311 -990083971 1691359347 -980386970 -912337804 -723335420 788463524 1347889509 -1063828739 -325708431 505304256 904422671 -801125708 -1497554773 -1005852043 -961292680 1470527614 -157673181 -2124976177 2131832765 -61115090
REM
CELL 1.54180   50.00000   50.00000   50.00000   90.00000   90.00000   90.00000
LATT -1
SFAC C  
C      1  0.5380620000000  0.5766410000000  0.4507220000000 1.0
C      1  0.4463980000000  0.5731460000000  0.4917090000000 1.0
C      1  0.5274550000000  0.5835710000000  0.5546550000000 1.0
C      1  0.4298560000000  0.5280470000000  0.4904100000000 1.0
C      1  0.5279190000000  0.5384420000000  0.5701390000000 1.0
C      1  0.5394080000000  0.5291010000000  0.4432750000000 1.0
C      1  0.4518740000000  0.4501780000000  0.5569370000000 1.0
C      1  0.5693760000000  0.4517780000000  0.5209320000000 1.0
C      1  0.4693450000000  0.4560840000000  0.4229140000000 1.0
C      1  0.4671540000000  0.4067800000000  0.4789720000000 1.0
C      1  0.4925430000000  0.4126830000000  0.5509580000000 1.0
C      1  0.5466420000000  0.4099270000000  0.4816610000000 1.0
C      1  0.4154710000000  0.4848930000000  0.4794670000000 1.0
C      1  0.5277000000000  0.4907890000000  0.5869350000000 1.0
C      1  0.5508470000000  0.4843270000000  0.4343050000000 1.0
C      1  0.5785730000000  0.5027450000000  0.5529430000000 1.0
C      1  0.4872820000000  0.5068210000000  0.4014780000000 1.0
C      1  0.4145920000000  0.4923490000000  0.5423120000000 1.0
C      1  0.4769900000000  0.5704180000000  0.5062940000000 1.0
C      1  0.5351940000000  0.5881520000000  0.5248390000000 1.0
C      1  0.5128050000000  0.5827250000000  0.4659170000000 1.0
C      1  0.4251850000000  0.4603020000000  0.5380970000000 1.0
C      1  0.5853280000000  0.4700550000000  0.5448350000000 1.0
C      1  0.4850240000000  0.4763130000000  0.4026160000000 1.0
C      1  0.4567540000000  0.4875720000000  0.5848560000000 1.0
C      1  0.5912170000000  0.4987770000000  0.4860640000000 1.0
C      1  0.4499250000000  0.5238610000000  0.4242770000000 1.0
C      1  0.4944990000000  0.4831310000000  0.5545480000000 1.0
C      1  0.5527350000000  0.4885560000000  0.4849650000000 1.0
C      1  0.4564190000000  0.4815010000000  0.4666660000000 1.0
C      1  0.4465560000000  0.4341870000000  0.4818100000000 1.0
C      1  0.5031620000000  0.4361820000000  0.5656920000000 1.0
C      1  0.5588750000000  0.4387250000000  0.4693820000000 1.0
C      1  0.5011680000000  0.5892520000000  0.5620960000000 1.0
C      1  0.5613460000000  0.5819690000000  0.4652930000000 1.0
C      1  0.4461540000000  0.5878640000000  0.4681470000000 1.0
C      1  0.5772840000000  0.4925420000000  0.5149450000000 1.0
C      1  0.4617670000000  0.4943640000000  0.4295200000000 1.0
C      1  0.4575270000000  0.4967710000000  0.5588470000000 1.0
C      1  0.4864680000000  0.4568970000000  0.4522800000000 1.0
C      1  0.4721000000000  0.4559560000000  0.5302160000000 1.0
C      1  0.5400370000000  0.4387630000000  0.5079580000000 1.0
C      1  0.4820420000000  0.4579190000000  0.5687760000000 1.0
C      1  0.5682040000000  0.4602410000000  0.4894180000000 1.0
C      1  0.4474430000000  0.4545760000000  0.4605960000000 1.0
C      1  0.5647540000000  0.5175420000000  0.4972110000000 1.0
C      1  0.4574860000000  0.5138410000000  0.4560370000000 1.0
C      1  0.4864160000000  0.5134730000000  0.5540580000000 1.0
C      1  0.5332180000000  0.4762440000000  0.5609880000000 1.0
C      1  0.5218750000000  0.4760260000000  0.4486890000000 1.0
C      1  0.4349600000000  0.4747060000000  0.5023340000000 1.0
C      1  0.4401990000000  0.4702970000000  0.4319540000000 1.0
C      1  0.4812060000000  0.4742330000000  0.5955140000000 1.0
C      1  0.5869210000000  0.4763630000000  0.4684880000000 1.0
C      1  0.4837780000000  0.5177880000000  0.5130630000000 1.0
C      1  0.5205010000000  0.5317030000000  0.5199640000000 1.0
C      1  0.5012630000000  0.5362740000000  0.4703510000000 1.0
C      1  0.5106330000000  0.5308190000000  0.5496650000000 1.0
C      1  0.5232320000000  0.5195470000000  0.4642920000000 1.0
C      1  0.4519060000000  0.5107910000000  0.5055110000000 1.0
C      1  0.5390740000000  0.4472860000000  0.4428280000000 1.0
C      1  0.4279340000000  0.4424890000000  0.5092650000000 1.0
C      1  0.5287800000000  0.4454810000000  0.5595100000000 1.0
C      1  0.5548900000000  0.4840850000000  0.5391320000000 1.0
C      1  0.4940970000000  0.4849080000000  0.4342360000000 1.0
C      1  0.4510180000000  0.4806790000000  0.5317860000000 1.0
C      1  0.5342210000000  0.5180270000000  0.5882680000000 1.0
C      1  0.5501740000000  0.5106280000000  0.4254770000000 1.0
C      1  0.4080360000000  0.5117690000000  0.4838520000000 1.0
C      1  0.4876330000000  0.5690970000000  0.4475470000000 1.0
C      1  0.4632830000000  0.5620910000000  0.5362950000000 1.0
C      1  0.5595660000000  0.5690260000000  0.5176190000000 1.0
C      1  0.4626290000000  0.5866080000000  0.4464950000000 1.0
C      1  0.4760850000000  0.5795400000000  0.5581180000000 1.0
C      1  0.5711800000000  0.5774290000000  0.4902420000000 1.0
C      1  0.5091390000000  0.4240600000000  0.5280490000000 1.0
C      1  0.5257910000000  0.4346730000000  0.4704070000000 1.0
C      1  0.4744240000000  0.4312160000000  0.4992120000000 1.0
C      1  0.5324590000000  0.5548610000000  0.4335990000000 1.0
C      1  0.4288430000000  0.5539280000000  0.5017640000000 1.0
C      1  0.5427570000000  0.5620490000000  0.5644980000000 1.0
C      1  0.5092390000000  0.4407520000000  0.4347820000000 1.0
C      1  0.4411400000000  0.4162900000000  0.5170910000000 1.0
C      1  0.5466050000000  0.4355820000000  0.5403020000000 1.0
C      1  0.5069900000000  0.4812200000000  0.6036870000000 1.0
C      1  0.5759730000000  0.4749480000000  0.4427290000000 1.0
C      1  0.4145120000000  0.4756230000000  0.4535910000000 1.0
C      1  0.5518880000000  0.5359050000000  0.5181150000000 1.0
C      1  0.4797730000000  0.5359530000000  0.4479550000000 1.0
C      1  0.4646410000000  0.5298080000000  0.5379530000000 1.0
C      1  0.4673720000000  0.4825750000000  0.4957270000000 1.0
C      1  0.5159480000000  0.4796190000000  0.5318880000000 1.0
C      1  0.5222700000000  0.4893550000000  0.4799800000000 1.0
C      1  0.4322490000000  0.5503890000000  0.5300970000000 1.0
C      1  0.5658630000000  0.5575960000000  0.5482590000000 1.0
C      1  0.5055010000000  0.5551550000000  0.4244900000000 1.0
C      1  0.4335900000000  0.5165790000000  0.5338290000000 1.0
C      1  0.5731310000000  0.5288360000000  0.5449350000000 1.0
C      1  0.4917020000000  0.5294260000000  0.4167780000000 1.0
C      1  0.4960070000000  0.4011770000000  0.4840610000000 1.0
C      1  0.4694510000000  0.4222210000000  0.5310010000000 1.0
C      1  0.5205460000000  0.4114690000000  0.5021770000000 1.0
C      1  0.5026140000000  0.5867410000000  0.5176810000000 1.0
C      1  0.5215200000000  0.5936320000000  0.4941870000000 1.0
C      1  0.4841010000000  0.5913180000000  0.4804260000000 1.0
C      1  0.5015800000000  0.4533800000000  0.5228940000000 1.0
C      1  0.5166960000000  0.4583550000000  0.4928410000000 1.0
C      1  0.4848050000000  0.4574700000000  0.4831160000000 1.0
C      1  0.5120060000000  0.5004560000000  0.5104790000000 1.0
C      1  0.4960880000000  0.5432270000000  0.4988730000000 1.0
END
