TITL C-2622962-9663-714 0.000499930939247694 125000 -523.171571997269 0 0 100 (C1) n - 1
REM
REM in /nfs/bkarasulu/CARBON/AIRSS/Generating-Clusters/AIREBO/with-SteepDescent/Higher-Symm/SD-CG/HFTN-CG
REM
REM
REM
REM
REM
REM ./C.cell (b20cbc046b6831c77cfcea5457e17084)
REM
REM compiler GCC version 9.2.1 20190827 (Red Hat 9.2.1-1)
REM options -cpp -mtune=generic -march=x86-64 -g -O0 -fpre-include=/usr/include/finclude/math-vector-fortran.h
REM seed -17889873 -1582858567 -1749546677 -865011651 1728474007 -1700813202 -299110407 -1701954778 1263150955 1882763740 -38857748 -2131185363 1252026719 1376016136 1476106329 1534225453 -1684747245 823919295 1133329852 1194176949 978272686 1115908794 -1387914121 1783072936 1454144719 1949628558 2114624743 -2059873063 263077866 -1584187351 -1801438607 1475482282 1719505286
REM
CELL 1.54180   50.00000   50.00000   50.00000   90.00000   90.00000   90.00000
LATT -1
SFAC C  
C      1  0.4206810000000  0.4354180000000  0.5149110000000 1.0
C      1  0.4695710000000  0.4005470000000  0.4910190000000 1.0
C      1  0.5349860000000  0.4053970000000  0.5054840000000 1.0
C      1  0.5876410000000  0.4437130000000  0.4855060000000 1.0
C      1  0.6032620000000  0.5051700000000  0.5124450000000 1.0
C      1  0.5772580000000  0.5656970000000  0.4875730000000 1.0
C      1  0.5284030000000  0.6007280000000  0.5113190000000 1.0
C      1  0.4638230000000  0.5961320000000  0.4882590000000 1.0
C      1  0.4113290000000  0.5570160000000  0.5110420000000 1.0
C      1  0.3968440000000  0.4942260000000  0.4887680000000 1.0
C      1  0.4454960000000  0.4886170000000  0.5722650000000 1.0
C      1  0.4675350000000  0.4552090000000  0.4357520000000 1.0
C      1  0.4970720000000  0.4451770000000  0.5705030000000 1.0
C      1  0.5444190000000  0.4563570000000  0.4279200000000 1.0
C      1  0.5503660000000  0.4787330000000  0.5659590000000 1.0
C      1  0.5551560000000  0.5127690000000  0.4289890000000 1.0
C      1  0.5369990000000  0.5406390000000  0.5684420000000 1.0
C      1  0.5042020000000  0.5536180000000  0.4319130000000 1.0
C      1  0.4737220000000  0.5482010000000  0.5678370000000 1.0
C      1  0.4505180000000  0.5173500000000  0.4312670000000 1.0
C      1  0.5564630000000  0.5470140000000  0.5537680000000 1.0
C      1  0.5175050000000  0.5708360000000  0.4442480000000 1.0
C      1  0.4492400000000  0.5617280000000  0.5553530000000 1.0
C      1  0.4382500000000  0.5342350000000  0.4452450000000 1.0
C      1  0.4261070000000  0.4941770000000  0.5568990000000 1.0
C      1  0.4464580000000  0.4515560000000  0.4488670000000 1.0
C      1  0.4823000000000  0.4286200000000  0.5586530000000 1.0
C      1  0.5381890000000  0.4316960000000  0.4376730000000 1.0
C      1  0.5622790000000  0.4622020000000  0.5511510000000 1.0
C      1  0.5750680000000  0.5090840000000  0.4441860000000 1.0
C      1  0.5723600000000  0.4696670000000  0.5002200000000 1.0
C      1  0.5768260000000  0.5177870000000  0.4964470000000 1.0
C      1  0.5475240000000  0.5587990000000  0.5025670000000 1.0
C      1  0.5093580000000  0.5787200000000  0.4945150000000 1.0
C      1  0.4583560000000  0.5657250000000  0.5024520000000 1.0
C      1  0.4271270000000  0.5301720000000  0.4981760000000 1.0
C      1  0.4237980000000  0.4823540000000  0.5057030000000 1.0
C      1  0.4504650000000  0.4424880000000  0.5000980000000 1.0
C      1  0.4892460000000  0.4229120000000  0.5068180000000 1.0
C      1  0.5399820000000  0.4359050000000  0.4913200000000 1.0
C      1  0.5319680000000  0.5654330000000  0.4730560000000 1.0
C      1  0.4707260000000  0.5686100000000  0.5339960000000 1.0
C      1  0.4454210000000  0.5459800000000  0.4742550000000 1.0
C      1  0.4269250000000  0.5080800000000  0.5277320000000 1.0
C      1  0.4379120000000  0.4640990000000  0.4770360000000 1.0
C      1  0.4696220000000  0.4336850000000  0.5302760000000 1.0
C      1  0.5233450000000  0.4321040000000  0.4618680000000 1.0
C      1  0.5528780000000  0.4520350000000  0.5218110000000 1.0
C      1  0.5743790000000  0.4937940000000  0.4724670000000 1.0
C      1  0.5618560000000  0.5368270000000  0.5242170000000 1.0
C      1  0.4062460000000  0.4565330000000  0.5163820000000 1.0
C      1  0.4466140000000  0.4118800000000  0.4865610000000 1.0
C      1  0.5114730000000  0.3996660000000  0.5127530000000 1.0
C      1  0.5704860000000  0.4249560000000  0.4820020000000 1.0
C      1  0.6008790000000  0.4797390000000  0.5142350000000 1.0
C      1  0.5925730000000  0.5452750000000  0.4864960000000 1.0
C      1  0.5511420000000  0.5892700000000  0.5165670000000 1.0
C      1  0.4883050000000  0.6021060000000  0.4850510000000 1.0
C      1  0.4276120000000  0.5768890000000  0.5111700000000 1.0
C      1  0.3987700000000  0.5194280000000  0.4854790000000 1.0
C      1  0.5140870000000  0.4457390000000  0.5110520000000 1.0
C      1  0.5452540000000  0.4674690000000  0.4798160000000 1.0
C      1  0.5553920000000  0.4965980000000  0.5121830000000 1.0
C      1  0.5480620000000  0.5304310000000  0.4834540000000 1.0
C      1  0.5180420000000  0.5549100000000  0.5190740000000 1.0
C      1  0.4861840000000  0.5553940000000  0.4858640000000 1.0
C      1  0.4538710000000  0.5357280000000  0.5178250000000 1.0
C      1  0.4445600000000  0.5027600000000  0.4881380000000 1.0
C      1  0.4522270000000  0.4701420000000  0.5198040000000 1.0
C      1  0.4800890000000  0.4462030000000  0.4837970000000 1.0
C      1  0.4779400000000  0.4813190000000  0.5657060000000 1.0
C      1  0.4977180000000  0.4707810000000  0.4373840000000 1.0
C      1  0.5108600000000  0.4741480000000  0.5623770000000 1.0
C      1  0.5266320000000  0.4847280000000  0.4345260000000 1.0
C      1  0.5265100000000  0.5025590000000  0.5623150000000 1.0
C      1  0.5221640000000  0.5179830000000  0.4344500000000 1.0
C      1  0.5067100000000  0.5273480000000  0.5650990000000 1.0
C      1  0.4895770000000  0.5236060000000  0.4366040000000 1.0
C      1  0.4752870000000  0.5143370000000  0.5651950000000 1.0
C      1  0.4750300000000  0.4944090000000  0.4366500000000 1.0
C      1  0.5230540000000  0.4858570000000  0.4832830000000 1.0
C      1  0.5233040000000  0.5008410000000  0.5221000000000 1.0
C      1  0.5241780000000  0.5117100000000  0.4836240000000 1.0
C      1  0.5057690000000  0.5259790000000  0.5159710000000 1.0
C      1  0.4956130000000  0.5243000000000  0.4848140000000 1.0
C      1  0.4758940000000  0.5152620000000  0.5181850000000 1.0
C      1  0.4768980000000  0.5003250000000  0.4798250000000 1.0
C      1  0.4751420000000  0.4893850000000  0.5182560000000 1.0
C      1  0.4937790000000  0.4746000000000  0.4862910000000 1.0
C      1  0.5043230000000  0.4772950000000  0.5174030000000 1.0
C      1  0.4987830000000  0.5531770000000  0.5443570000000 1.0
C      1  0.4748860000000  0.5441810000000  0.4573210000000 1.0
C      1  0.4486090000000  0.5255410000000  0.5473330000000 1.0
C      1  0.4526090000000  0.4894100000000  0.4596880000000 1.0
C      1  0.4609400000000  0.4606870000000  0.5484020000000 1.0
C      1  0.4986720000000  0.4459380000000  0.4589940000000 1.0
C      1  0.5248570000000  0.4531400000000  0.5411020000000 1.0
C      1  0.5547090000000  0.4756650000000  0.4514380000000 1.0
C      1  0.5496350000000  0.5098860000000  0.5409960000000 1.0
C      1  0.5368320000000  0.5374520000000  0.4543620000000 1.0
END
