TITL C-2622965-4321-601 0.000462272349659292 125000 -205.903007157647 0 0 38 (C1) n - 1
REM
REM in /nfs/bkarasulu/CARBON/AIRSS/Generating-Clusters/AIREBO/with-SteepDescent/Higher-Symm/SD-CG/HFTN-CG
REM
REM
REM
REM
REM
REM ./C.cell (b20cbc046b6831c77cfcea5457e17084)
REM
REM compiler GCC version 9.2.1 20190827 (Red Hat 9.2.1-1)
REM options -cpp -mtune=generic -march=x86-64 -g -O0 -fpre-include=/usr/include/finclude/math-vector-fortran.h
REM seed 2016423379 -1908212862 -1853565249 1658236481 -1016122994 1783419616 808522467 412946238 1546078583 1796227397 767902558 614063369 1118414274 196864376 2129259723 -2016498799 -1243418971 628970258 -95920395 432621962 1564206753 1471077155 -275921724 -1803189184 1308635792 -1242749413 -1450017087 778176023 456694757 -1814428079 -570089404 -1274242184 -46926879
REM
CELL 1.54180   50.00000   50.00000   50.00000   90.00000   90.00000   90.00000
LATT -1
SFAC C  
C      1  0.5123990000000  0.4940120000000  0.4293760000000 1.0
C      1  0.5687080000000  0.5038790000000  0.4901580000000 1.0
C      1  0.5352620000000  0.4981270000000  0.5645370000000 1.0
C      1  0.4541640000000  0.5028690000000  0.5533290000000 1.0
C      1  0.4413230000000  0.5069580000000  0.4710990000000 1.0
C      1  0.4878910000000  0.4969420000000  0.4327620000000 1.0
C      1  0.4333590000000  0.5068440000000  0.4948260000000 1.0
C      1  0.4766400000000  0.5026850000000  0.5644170000000 1.0
C      1  0.5546040000000  0.5012850000000  0.5485880000000 1.0
C      1  0.5667550000000  0.4975660000000  0.4659470000000 1.0
C      1  0.4661570000000  0.4662380000000  0.4911730000000 1.0
C      1  0.4860000000000  0.4618660000000  0.4518410000000 1.0
C      1  0.5336250000000  0.4564190000000  0.4829730000000 1.0
C      1  0.5226070000000  0.4622750000000  0.5204910000000 1.0
C      1  0.4772650000000  0.4590200000000  0.5362060000000 1.0
C      1  0.5296960000000  0.5425470000000  0.4894390000000 1.0
C      1  0.5112050000000  0.5306990000000  0.4561850000000 1.0
C      1  0.4807760000000  0.5418870000000  0.4892940000000 1.0
C      1  0.4634010000000  0.5508700000000  0.5271320000000 1.0
C      1  0.4926340000000  0.5471430000000  0.5271250000000 1.0
C      1  0.5338690000000  0.4863290000000  0.4987740000000 1.0
C      1  0.5038550000000  0.4676140000000  0.5399250000000 1.0
C      1  0.4598810000000  0.4702560000000  0.5171780000000 1.0
C      1  0.4885680000000  0.4861410000000  0.4755230000000 1.0
C      1  0.5184090000000  0.4747240000000  0.4638710000000 1.0
C      1  0.4669720000000  0.5212090000000  0.5108870000000 1.0
C      1  0.4993700000000  0.5168820000000  0.5347230000000 1.0
C      1  0.5238870000000  0.5219100000000  0.5134670000000 1.0
C      1  0.5306870000000  0.5113730000000  0.4758360000000 1.0
C      1  0.4848670000000  0.5325130000000  0.4637350000000 1.0
C      1  0.5387470000000  0.4944230000000  0.4481690000000 1.0
C      1  0.5062820000000  0.4939790000000  0.5547390000000 1.0
C      1  0.4690810000000  0.5071470000000  0.4573370000000 1.0
C      1  0.5515470000000  0.5062530000000  0.5185710000000 1.0
C      1  0.4483860000000  0.4981440000000  0.5227570000000 1.0
C      1  0.5303590000000  0.4364170000000  0.5045050000000 1.0
C      1  0.5048720000000  0.5547460000000  0.5008980000000 1.0
C      1  0.4960690000000  0.5058510000000  0.5022900000000 1.0
END
