TITL C-2622959-7779-308 0.000761457316009314 125000 -365.364570134357 0 0 63 (C1) n - 1
REM
REM in /nfs/bkarasulu/CARBON/AIRSS/Generating-Clusters/AIREBO/with-SteepDescent/Higher-Symm/SD-CG/HFTN-CG
REM
REM
REM
REM
REM
REM ./C.cell (b20cbc046b6831c77cfcea5457e17084)
REM
REM compiler GCC version 9.2.1 20190827 (Red Hat 9.2.1-1)
REM options -cpp -mtune=generic -march=x86-64 -g -O0 -fpre-include=/usr/include/finclude/math-vector-fortran.h
REM seed 1702387955 1653935237 1950704620 1338203095 -355127713 1767640256 857244158 1311740969 57782809 1284210992 1047522398 588675489 1407653020 1050495464 2055606297 -773259135 1080453761 -1748423169 1818383212 1898000077 895299294 1567024802 191784648 -1491280115 -913502139 41532641 -970920165 -780086364 1986772480 1059519311 -1274063092 -1992133950 -237340343
REM
CELL 1.54180   50.00000   50.00000   50.00000   90.00000   90.00000   90.00000
LATT -1
SFAC C  
C      1  0.5574550000000  0.5685220000000  0.4802020000000 1.0
C      1  0.5209450000000  0.6028290000000  0.4658110000000 1.0
C      1  0.5127180000000  0.5782210000000  0.4695290000000 1.0
C      1  0.4661110000000  0.5622590000000  0.4411960000000 1.0
C      1  0.4402140000000  0.5739120000000  0.4861520000000 1.0
C      1  0.4406660000000  0.5567910000000  0.5370870000000 1.0
C      1  0.4902250000000  0.5864610000000  0.5246160000000 1.0
C      1  0.5185860000000  0.5593150000000  0.5686950000000 1.0
C      1  0.5591070000000  0.5738110000000  0.5332910000000 1.0
C      1  0.5101940000000  0.5118350000000  0.4338980000000 1.0
C      1  0.4655950000000  0.5228570000000  0.4475010000000 1.0
C      1  0.4371220000000  0.5064450000000  0.4850640000000 1.0
C      1  0.4483680000000  0.5185350000000  0.5291700000000 1.0
C      1  0.4699400000000  0.5163670000000  0.5733400000000 1.0
C      1  0.5148000000000  0.5214140000000  0.5565320000000 1.0
C      1  0.5549040000000  0.5214430000000  0.5344390000000 1.0
C      1  0.5699030000000  0.5222640000000  0.4914180000000 1.0
C      1  0.5259900000000  0.5075960000000  0.4629740000000 1.0
C      1  0.4582920000000  0.4528680000000  0.5056190000000 1.0
C      1  0.4690020000000  0.4651710000000  0.5339260000000 1.0
C      1  0.4951020000000  0.4659010000000  0.5421890000000 1.0
C      1  0.5205580000000  0.4555720000000  0.5270210000000 1.0
C      1  0.5374940000000  0.4701340000000  0.5044180000000 1.0
C      1  0.5306780000000  0.4760000000000  0.4747220000000 1.0
C      1  0.5113760000000  0.4529530000000  0.4608750000000 1.0
C      1  0.4827810000000  0.4623710000000  0.4582430000000 1.0
C      1  0.4623030000000  0.4636640000000  0.4762810000000 1.0
C      1  0.5615630000000  0.4803670000000  0.5123480000000 1.0
C      1  0.5600020000000  0.4854060000000  0.4625780000000 1.0
C      1  0.5300590000000  0.4634110000000  0.4367710000000 1.0
C      1  0.4780260000000  0.4783130000000  0.4352200000000 1.0
C      1  0.4419330000000  0.4810210000000  0.4673130000000 1.0
C      1  0.4340170000000  0.4733990000000  0.5164120000000 1.0
C      1  0.4512200000000  0.4782350000000  0.5520330000000 1.0
C      1  0.4993300000000  0.4791070000000  0.5669290000000 1.0
C      1  0.5342780000000  0.4792530000000  0.5453540000000 1.0
C      1  0.5321780000000  0.4900360000000  0.4344950000000 1.0
C      1  0.4832250000000  0.5061630000000  0.4340970000000 1.0
C      1  0.4408620000000  0.5114650000000  0.4545060000000 1.0
C      1  0.4348300000000  0.5016810000000  0.5115330000000 1.0
C      1  0.4521400000000  0.5067060000000  0.5539220000000 1.0
C      1  0.4963270000000  0.5071750000000  0.5705660000000 1.0
C      1  0.5369740000000  0.5067010000000  0.5490870000000 1.0
C      1  0.5687220000000  0.5075130000000  0.5149800000000 1.0
C      1  0.5750430000000  0.5075700000000  0.4682890000000 1.0
C      1  0.5129130000000  0.4237120000000  0.4662500000000 1.0
C      1  0.4886620000000  0.4097650000000  0.4657460000000 1.0
C      1  0.4661570000000  0.4103040000000  0.4813080000000 1.0
C      1  0.4615380000000  0.4228830000000  0.5059160000000 1.0
C      1  0.4736560000000  0.4116030000000  0.5285180000000 1.0
C      1  0.4998010000000  0.4123170000000  0.5365680000000 1.0
C      1  0.5221510000000  0.4259880000000  0.5268120000000 1.0
C      1  0.5387060000000  0.4143160000000  0.5076060000000 1.0
C      1  0.5345560000000  0.4135600000000  0.4805740000000 1.0
C      1  0.5242510000000  0.5331050000000  0.4780040000000 1.0
C      1  0.5045350000000  0.5516810000000  0.4708200000000 1.0
C      1  0.4751470000000  0.5475390000000  0.4656910000000 1.0
C      1  0.4581430000000  0.5547770000000  0.4899650000000 1.0
C      1  0.4631310000000  0.5469050000000  0.5193790000000 1.0
C      1  0.4896160000000  0.5601150000000  0.5282910000000 1.0
C      1  0.5144770000000  0.5488310000000  0.5410770000000 1.0
C      1  0.5429000000000  0.5491020000000  0.5244700000000 1.0
C      1  0.5485010000000  0.5444670000000  0.4923630000000 1.0
END
