TITL C-2622960-5345-48 0.00545040563839357 125000 -355.964400529812 0 0 64 (C1) n - 1
REM
REM in /nfs/bkarasulu/CARBON/AIRSS/Generating-Clusters/AIREBO/with-SteepDescent/Higher-Symm/SD-CG/HFTN-CG
REM
REM
REM
REM
REM
REM ./C.cell (b20cbc046b6831c77cfcea5457e17084)
REM
REM compiler GCC version 9.2.1 20190827 (Red Hat 9.2.1-1)
REM options -cpp -mtune=generic -march=x86-64 -g -O0 -fpre-include=/usr/include/finclude/math-vector-fortran.h
REM seed 1498250220 1945474013 -614529311 225685097 355917309 1819741336 1034619713 1261773778 -419038766 -1973384516 -1900555836 -934423168 -1665823975 -1614882067 1038147693 182684554 2079749137 -50472337 541939103 1475094510 61264380 1878747829 -2128986210 -1448458605 -747385409 -2114285182 1724968691 -153803893 217482049 -399405982 -103051370 2007729302 -662324803
REM
CELL 1.54180   50.00000   50.00000   50.00000   90.00000   90.00000   90.00000
LATT -1
SFAC C  
C      1  0.4987050000000  0.4555230000000  0.4758760000000 1.0
C      1  0.5010690000000  0.5219980000000  0.4561970000000 1.0
C      1  0.4962720000000  0.5501470000000  0.5224740000000 1.0
C      1  0.5030460000000  0.4741170000000  0.5446190000000 1.0
C      1  0.4433890000000  0.4851770000000  0.4823650000000 1.0
C      1  0.5561180000000  0.5243640000000  0.4797910000000 1.0
C      1  0.4348180000000  0.5161670000000  0.5387360000000 1.0
C      1  0.5587430000000  0.4757320000000  0.5198910000000 1.0
C      1  0.4886780000000  0.4974930000000  0.5597060000000 1.0
C      1  0.5148290000000  0.4442510000000  0.4994390000000 1.0
C      1  0.4850090000000  0.4973330000000  0.4452320000000 1.0
C      1  0.5118630000000  0.5635820000000  0.4985510000000 1.0
C      1  0.5384250000000  0.4457980000000  0.4473990000000 1.0
C      1  0.4685650000000  0.5406740000000  0.4423070000000 1.0
C      1  0.5300660000000  0.5577990000000  0.5434980000000 1.0
C      1  0.4631430000000  0.4456400000000  0.5541620000000 1.0
C      1  0.4505500000000  0.4689760000000  0.5361120000000 1.0
C      1  0.5516580000000  0.4656390000000  0.4685600000000 1.0
C      1  0.4507660000000  0.5242570000000  0.4545860000000 1.0
C      1  0.5478160000000  0.5478460000000  0.5251280000000 1.0
C      1  0.5792280000000  0.4879410000000  0.5033510000000 1.0
C      1  0.4301590000000  0.5075400000000  0.4932650000000 1.0
C      1  0.5738190000000  0.5157210000000  0.5029600000000 1.0
C      1  0.4203480000000  0.5032210000000  0.5193720000000 1.0
C      1  0.4544230000000  0.4628560000000  0.5028020000000 1.0
C      1  0.5460050000000  0.4982870000000  0.4607930000000 1.0
C      1  0.4575040000000  0.5479540000000  0.4949610000000 1.0
C      1  0.5470900000000  0.4995910000000  0.5397920000000 1.0
C      1  0.4939010000000  0.4442200000000  0.5498280000000 1.0
C      1  0.5070630000000  0.4473150000000  0.4467090000000 1.0
C      1  0.4980690000000  0.5545970000000  0.4470130000000 1.0
C      1  0.5002570000000  0.5509400000000  0.5562670000000 1.0
C      1  0.5279160000000  0.4434600000000  0.5480350000000 1.0
C      1  0.4729870000000  0.4458860000000  0.4473760000000 1.0
C      1  0.5293960000000  0.5473620000000  0.4442180000000 1.0
C      1  0.4679410000000  0.5511440000000  0.5503740000000 1.0
C      1  0.4976890000000  0.5755670000000  0.4708350000000 1.0
C      1  0.5032210000000  0.5243010000000  0.5733830000000 1.0
C      1  0.4995590000000  0.4277660000000  0.5225940000000 1.0
C      1  0.4997890000000  0.4732530000000  0.4282300000000 1.0
C      1  0.4569020000000  0.4650670000000  0.4360950000000 1.0
C      1  0.5484850000000  0.5528420000000  0.4646560000000 1.0
C      1  0.4518250000000  0.5305660000000  0.5598750000000 1.0
C      1  0.5424890000000  0.4346690000000  0.5265530000000 1.0
C      1  0.5019540000000  0.5188120000000  0.5216670000000 1.0
C      1  0.4966360000000  0.4877000000000  0.5147400000000 1.0
C      1  0.4994960000000  0.4865770000000  0.4822840000000 1.0
C      1  0.4990310000000  0.5183240000000  0.4892820000000 1.0
C      1  0.4195280000000  0.4751180000000  0.5267750000000 1.0
C      1  0.5815990000000  0.4736810000000  0.4787400000000 1.0
C      1  0.4400960000000  0.5313670000000  0.4805010000000 1.0
C      1  0.5621440000000  0.5239460000000  0.5275980000000 1.0
C      1  0.5162780000000  0.4850900000000  0.4555100000000 1.0
C      1  0.4855220000000  0.5467170000000  0.4840910000000 1.0
C      1  0.5187350000000  0.5105690000000  0.5470630000000 1.0
C      1  0.4851890000000  0.4571180000000  0.5131960000000 1.0
C      1  0.5396250000000  0.5518190000000  0.4959860000000 1.0
C      1  0.4595270000000  0.4977000000000  0.5521980000000 1.0
C      1  0.5439320000000  0.4551580000000  0.4994580000000 1.0
C      1  0.4548640000000  0.4920890000000  0.4532310000000 1.0
C      1  0.4684200000000  0.4446840000000  0.4790860000000 1.0
C      1  0.5302780000000  0.5179220000000  0.4390230000000 1.0
C      1  0.4634900000000  0.5574060000000  0.5214440000000 1.0
C      1  0.5340650000000  0.4736250000000  0.5541600000000 1.0
END
