TITL C-2622962-9663-352 0.0164943665188645 125000 -186.616674766465 0 0 34 (C1) n - 1
REM
REM in /nfs/bkarasulu/CARBON/AIRSS/Generating-Clusters/AIREBO/with-SteepDescent/Higher-Symm/SD-CG/HFTN-CG
REM
REM
REM
REM
REM
REM ./C.cell (b20cbc046b6831c77cfcea5457e17084)
REM
REM compiler GCC version 9.2.1 20190827 (Red Hat 9.2.1-1)
REM options -cpp -mtune=generic -march=x86-64 -g -O0 -fpre-include=/usr/include/finclude/math-vector-fortran.h
REM seed -1648835169 -133138273 -890303172 -1207372381 -1619151330 533489114 -1322407000 1918682818 542184056 1083866544 -1676138007 -147984854 916556567 -1083637960 279698562 -68272290 464918407 -1041532578 813302347 1745808509 -1109053420 -1076899244 2025563806 -2134140709 313877035 -1199963878 1915983591 -1040735696 -803695774 -1607949282 436732948 -573237890 2146536822
REM
CELL 1.54180   50.00000   50.00000   50.00000   90.00000   90.00000   90.00000
LATT -1
SFAC C  
C      1  0.4745870000000  0.5086920000000  0.5769980000000 1.0
C      1  0.5423780000000  0.4791520000000  0.5643670000000 1.0
C      1  0.5708630000000  0.5320230000000  0.5118070000000 1.0
C      1  0.5666330000000  0.4807260000000  0.4817130000000 1.0
C      1  0.5367150000000  0.5082000000000  0.4351830000000 1.0
C      1  0.4769540000000  0.4883870000000  0.4330240000000 1.0
C      1  0.4325240000000  0.5354660000000  0.4753670000000 1.0
C      1  0.4237810000000  0.4809980000000  0.5018870000000 1.0
C      1  0.4904350000000  0.4966960000000  0.4632580000000 1.0
C      1  0.4720820000000  0.5092690000000  0.4831630000000 1.0
C      1  0.4685570000000  0.4964320000000  0.5080520000000 1.0
C      1  0.4847620000000  0.5035930000000  0.5304250000000 1.0
C      1  0.5120720000000  0.4954750000000  0.5312190000000 1.0
C      1  0.5310030000000  0.5065750000000  0.5135410000000 1.0
C      1  0.5354210000000  0.4932950000000  0.4874460000000 1.0
C      1  0.5196240000000  0.5033110000000  0.4643580000000 1.0
C      1  0.4863750000000  0.4414000000000  0.4650150000000 1.0
C      1  0.4754760000000  0.5566610000000  0.4771230000000 1.0
C      1  0.4553090000000  0.4532010000000  0.5233550000000 1.0
C      1  0.4608290000000  0.5417660000000  0.5463930000000 1.0
C      1  0.5056490000000  0.4525800000000  0.5511960000000 1.0
C      1  0.5325890000000  0.5501480000000  0.5322780000000 1.0
C      1  0.5287420000000  0.4380910000000  0.4890020000000 1.0
C      1  0.5209940000000  0.5581910000000  0.4592100000000 1.0
C      1  0.4823860000000  0.4654370000000  0.4533860000000 1.0
C      1  0.4593110000000  0.5339900000000  0.4782510000000 1.0
C      1  0.4487460000000  0.4764200000000  0.5111730000000 1.0
C      1  0.4732300000000  0.5183540000000  0.5517920000000 1.0
C      1  0.5202020000000  0.4752890000000  0.5494070000000 1.0
C      1  0.5449700000000  0.5299190000000  0.5193150000000 1.0
C      1  0.5436070000000  0.4605770000000  0.4875250000000 1.0
C      1  0.5282130000000  0.5332720000000  0.4515440000000 1.0
C      1  0.4964770000000  0.5686370000000  0.4648870000000 1.0
C      1  0.5076350000000  0.4277770000000  0.4752120000000 1.0
END
