TITL C-2622959-7779-782 0.0010074323484257 125000 -309.409369258921 0 0 53 (C1) n - 1
REM
REM in /nfs/bkarasulu/CARBON/AIRSS/Generating-Clusters/AIREBO/with-SteepDescent/Higher-Symm/SD-CG/HFTN-CG
REM
REM
REM
REM
REM
REM ./C.cell (b20cbc046b6831c77cfcea5457e17084)
REM
REM compiler GCC version 9.2.1 20190827 (Red Hat 9.2.1-1)
REM options -cpp -mtune=generic -march=x86-64 -g -O0 -fpre-include=/usr/include/finclude/math-vector-fortran.h
REM seed -1800967184 -1822610445 1763061755 1180410680 1582594478 -631849224 901790665 -1305634256 88339375 -1561996772 -1062858500 1571176396 2004839512 1301418412 1692659272 123857127 -602806750 -956656498 -1538521060 -910359378 19218796 600293925 1507737024 234428047 1112459763 -523717632 -899090165 210741557 845131230 -28356711 -727844379 -1015693240 -1381361261
REM
CELL 1.54180   50.00000   50.00000   50.00000   90.00000   90.00000   90.00000
LATT -1
SFAC C  
C      1  0.4493460000000  0.4828080000000  0.5492510000000 1.0
C      1  0.4976040000000  0.4861930000000  0.4353330000000 1.0
C      1  0.5610160000000  0.4854140000000  0.5281930000000 1.0
C      1  0.5134790000000  0.5735870000000  0.5066130000000 1.0
C      1  0.4962710000000  0.5440920000000  0.5040780000000 1.0
C      1  0.4903960000000  0.5778270000000  0.4840460000000 1.0
C      1  0.5521390000000  0.4597920000000  0.5728880000000 1.0
C      1  0.4230000000000  0.4525370000000  0.5116800000000 1.0
C      1  0.5357060000000  0.4400800000000  0.4269110000000 1.0
C      1  0.5285710000000  0.5064870000000  0.5164580000000 1.0
C      1  0.4756640000000  0.5175330000000  0.5092010000000 1.0
C      1  0.5009740000000  0.5099890000000  0.4672550000000 1.0
C      1  0.5005760000000  0.5400120000000  0.4606350000000 1.0
C      1  0.5365820000000  0.5357510000000  0.5215400000000 1.0
C      1  0.4611720000000  0.5456280000000  0.5217410000000 1.0
C      1  0.4550540000000  0.5514310000000  0.4662980000000 1.0
C      1  0.5482340000000  0.5524180000000  0.4785160000000 1.0
C      1  0.4957370000000  0.5493970000000  0.5550930000000 1.0
C      1  0.5545760000000  0.5487940000000  0.5059600000000 1.0
C      1  0.4683630000000  0.5526140000000  0.5472580000000 1.0
C      1  0.4777560000000  0.5498570000000  0.4491130000000 1.0
C      1  0.4713130000000  0.4611700000000  0.5571130000000 1.0
C      1  0.4726910000000  0.4663900000000  0.4441820000000 1.0
C      1  0.5646680000000  0.4658030000000  0.5032190000000 1.0
C      1  0.4375000000000  0.5296990000000  0.4649350000000 1.0
C      1  0.5584720000000  0.5317940000000  0.4624810000000 1.0
C      1  0.5044570000000  0.5288500000000  0.5722580000000 1.0
C      1  0.5130670000000  0.5528770000000  0.5317220000000 1.0
C      1  0.4656020000000  0.5607150000000  0.4927920000000 1.0
C      1  0.5189990000000  0.5604520000000  0.4757390000000 1.0
C      1  0.4791190000000  0.4926490000000  0.5566390000000 1.0
C      1  0.4726960000000  0.4966010000000  0.4562500000000 1.0
C      1  0.5535020000000  0.4964680000000  0.4967100000000 1.0
C      1  0.5423000000000  0.4677880000000  0.5482760000000 1.0
C      1  0.4428310000000  0.4792350000000  0.5190710000000 1.0
C      1  0.5255680000000  0.4706190000000  0.4372160000000 1.0
C      1  0.5045010000000  0.5022440000000  0.5621450000000 1.0
C      1  0.4487050000000  0.5049330000000  0.4720520000000 1.0
C      1  0.5506370000000  0.5063240000000  0.4681850000000 1.0
C      1  0.5444290000000  0.4460690000000  0.5040870000000 1.0
C      1  0.4778950000000  0.4454170000000  0.5346690000000 1.0
C      1  0.4688250000000  0.4467730000000  0.4618100000000 1.0
C      1  0.4735160000000  0.4512550000000  0.4878000000000 1.0
C      1  0.5251070000000  0.4488310000000  0.4834590000000 1.0
C      1  0.5031460000000  0.4491000000000  0.5237380000000 1.0
C      1  0.4568250000000  0.4492210000000  0.5126420000000 1.0
C      1  0.5295740000000  0.4450490000000  0.4575050000000 1.0
C      1  0.5304780000000  0.4467110000000  0.5292310000000 1.0
C      1  0.5264820000000  0.4971450000000  0.4548660000000 1.0
C      1  0.5258350000000  0.4941670000000  0.5448950000000 1.0
C      1  0.4518480000000  0.5006320000000  0.5001270000000 1.0
C      1  0.5003620000000  0.4656430000000  0.4955440000000 1.0
C      1  0.5022710000000  0.4995110000000  0.4980950000000 1.0
END
