TITL C-2622960-5345-556 0.000363936949957543 125000 -613.35134336915 0 0 110 (C1) n - 1
REM
REM in /nfs/bkarasulu/CARBON/AIRSS/Generating-Clusters/AIREBO/with-SteepDescent/Higher-Symm/SD-CG/HFTN-CG
REM
REM
REM
REM
REM
REM ./C.cell (b20cbc046b6831c77cfcea5457e17084)
REM
REM compiler GCC version 9.2.1 20190827 (Red Hat 9.2.1-1)
REM options -cpp -mtune=generic -march=x86-64 -g -O0 -fpre-include=/usr/include/finclude/math-vector-fortran.h
REM seed -2014163371 -26489687 -214591846 427912256 -1769823431 1611556678 -1664110872 1326987340 942030350 -1764923668 405698475 -1821979330 -382941445 -450511963 1681448978 -1991190583 1790879794 -933338047 -1408111938 917104512 -1019111177 1456316977 2030471399 -1050220853 -866340723 -868225302 1548560165 -1430572512 -741424470 1719071411 -743798261 -1591384719 -571943546
REM
CELL 1.54180   50.00000   50.00000   50.00000   90.00000   90.00000   90.00000
LATT -1
SFAC C  
C      1  0.5275700000000  0.5806920000000  0.4663150000000 1.0
C      1  0.4234510000000  0.4871700000000  0.4701620000000 1.0
C      1  0.5627490000000  0.4437270000000  0.4640270000000 1.0
C      1  0.4724220000000  0.5586300000000  0.5249100000000 1.0
C      1  0.5788460000000  0.4918140000000  0.5299100000000 1.0
C      1  0.4434440000000  0.4394220000000  0.5369260000000 1.0
C      1  0.4742380000000  0.4335860000000  0.5347150000000 1.0
C      1  0.5776730000000  0.5196150000000  0.5197860000000 1.0
C      1  0.4400710000000  0.5478150000000  0.5259370000000 1.0
C      1  0.5360670000000  0.4282690000000  0.4631570000000 1.0
C      1  0.4217690000000  0.5187800000000  0.4720900000000 1.0
C      1  0.5503730000000  0.5587400000000  0.4665120000000 1.0
C      1  0.4531960000000  0.5080990000000  0.4167700000000 1.0
C      1  0.5143260000000  0.4412180000000  0.4133000000000 1.0
C      1  0.5391250000000  0.5466930000000  0.4239980000000 1.0
C      1  0.5600180000000  0.5134060000000  0.5795490000000 1.0
C      1  0.4834860000000  0.4500640000000  0.5826380000000 1.0
C      1  0.4547240000000  0.5405320000000  0.5834890000000 1.0
C      1  0.5652720000000  0.4831400000000  0.5793160000000 1.0
C      1  0.4802390000000  0.5536190000000  0.5792860000000 1.0
C      1  0.4567050000000  0.4644250000000  0.5871760000000 1.0
C      1  0.4480860000000  0.4788270000000  0.4167270000000 1.0
C      1  0.5148750000000  0.5636090000000  0.4227960000000 1.0
C      1  0.5376670000000  0.4587270000000  0.4179400000000 1.0
C      1  0.5321750000000  0.4874530000000  0.5675830000000 1.0
C      1  0.5046750000000  0.5318790000000  0.5713040000000 1.0
C      1  0.4770130000000  0.4860340000000  0.5676590000000 1.0
C      1  0.4765170000000  0.4834920000000  0.4376990000000 1.0
C      1  0.5041620000000  0.5320700000000  0.4363710000000 1.0
C      1  0.5293630000000  0.4871080000000  0.4320740000000 1.0
C      1  0.4794120000000  0.5165200000000  0.4367190000000 1.0
C      1  0.5015960000000  0.4688020000000  0.4318660000000 1.0
C      1  0.5313820000000  0.5149710000000  0.4310420000000 1.0
C      1  0.5293460000000  0.5192980000000  0.5672170000000 1.0
C      1  0.5075220000000  0.4715050000000  0.5715620000000 1.0
C      1  0.4760480000000  0.5154880000000  0.5684180000000 1.0
C      1  0.4323560000000  0.5292400000000  0.5667260000000 1.0
C      1  0.4998540000000  0.4296950000000  0.5647400000000 1.0
C      1  0.5596730000000  0.5444190000000  0.5652610000000 1.0
C      1  0.5661220000000  0.5357720000000  0.4385130000000 1.0
C      1  0.4940260000000  0.4277140000000  0.4332700000000 1.0
C      1  0.4468860000000  0.5381710000000  0.4297060000000 1.0
C      1  0.5661970000000  0.4719780000000  0.4292260000000 1.0
C      1  0.4967660000000  0.5795990000000  0.4424770000000 1.0
C      1  0.4421220000000  0.4530780000000  0.4336540000000 1.0
C      1  0.4315840000000  0.4750520000000  0.5690470000000 1.0
C      1  0.4980250000000  0.5726330000000  0.5619450000000 1.0
C      1  0.5563350000000  0.4565150000000  0.5619290000000 1.0
C      1  0.5516690000000  0.5213240000000  0.5416260000000 1.0
C      1  0.4580390000000  0.5278740000000  0.5458380000000 1.0
C      1  0.4942340000000  0.4565670000000  0.5446770000000 1.0
C      1  0.4507790000000  0.5162820000000  0.4554310000000 1.0
C      1  0.5405080000000  0.5294570000000  0.4599880000000 1.0
C      1  0.5138150000000  0.4451070000000  0.4529710000000 1.0
C      1  0.4493980000000  0.4763300000000  0.4563960000000 1.0
C      1  0.5448950000000  0.4697840000000  0.4556420000000 1.0
C      1  0.5083780000000  0.5532240000000  0.4605300000000 1.0
C      1  0.5531800000000  0.4814890000000  0.5414860000000 1.0
C      1  0.4560880000000  0.4679220000000  0.5479040000000 1.0
C      1  0.4941140000000  0.5446970000000  0.5429400000000 1.0
C      1  0.5680780000000  0.4869750000000  0.4829990000000 1.0
C      1  0.4859340000000  0.5672470000000  0.4949080000000 1.0
C      1  0.4425280000000  0.4454010000000  0.4836130000000 1.0
C      1  0.4231670000000  0.4818440000000  0.5216230000000 1.0
C      1  0.5099800000000  0.5831910000000  0.5130340000000 1.0
C      1  0.5422020000000  0.4428800000000  0.5149470000000 1.0
C      1  0.4133240000000  0.5323380000000  0.5251930000000 1.0
C      1  0.5145830000000  0.4242060000000  0.5106710000000 1.0
C      1  0.5507590000000  0.5511140000000  0.5153860000000 1.0
C      1  0.5782140000000  0.5182680000000  0.4916030000000 1.0
C      1  0.4942370000000  0.4365110000000  0.4863560000000 1.0
C      1  0.4510190000000  0.5479390000000  0.4794130000000 1.0
C      1  0.5306110000000  0.5909390000000  0.4954610000000 1.0
C      1  0.4106060000000  0.4911510000000  0.4982530000000 1.0
C      1  0.5626900000000  0.4309230000000  0.4924060000000 1.0
C      1  0.4616720000000  0.5875150000000  0.5074510000000 1.0
C      1  0.5877750000000  0.4777380000000  0.5066550000000 1.0
C      1  0.4463480000000  0.4292960000000  0.5065690000000 1.0
C      1  0.4754870000000  0.4209630000000  0.5077300000000 1.0
C      1  0.6092800000000  0.4611670000000  0.5045560000000 1.0
C      1  0.4425620000000  0.5642410000000  0.4995780000000 1.0
C      1  0.5353770000000  0.4129690000000  0.4894220000000 1.0
C      1  0.4061200000000  0.5214770000000  0.5002000000000 1.0
C      1  0.5526470000000  0.5695660000000  0.4949910000000 1.0
C      1  0.4558810000000  0.4830390000000  0.5179730000000 1.0
C      1  0.5350770000000  0.4747390000000  0.5169960000000 1.0
C      1  0.4906320000000  0.5215610000000  0.5237160000000 1.0
C      1  0.5341820000000  0.4844090000000  0.4844090000000 1.0
C      1  0.4559120000000  0.4728830000000  0.4885210000000 1.0
C      1  0.4980220000000  0.5366230000000  0.4862350000000 1.0
C      1  0.5249010000000  0.5172210000000  0.4826300000000 1.0
C      1  0.4701840000000  0.5200780000000  0.4831030000000 1.0
C      1  0.5054650000000  0.4676510000000  0.4770390000000 1.0
C      1  0.4612430000000  0.5143460000000  0.5153580000000 1.0
C      1  0.5387350000000  0.5205270000000  0.5112150000000 1.0
C      1  0.4888590000000  0.4784230000000  0.5248660000000 1.0
C      1  0.4780430000000  0.4283280000000  0.4584180000000 1.0
C      1  0.5786490000000  0.5175520000000  0.4598840000000 1.0
C      1  0.4530870000000  0.5581310000000  0.4517830000000 1.0
C      1  0.5196480000000  0.4255650000000  0.5427490000000 1.0
C      1  0.4117200000000  0.5180490000000  0.5506330000000 1.0
C      1  0.5437720000000  0.5605260000000  0.5417860000000 1.0
C      1  0.5188240000000  0.5759150000000  0.5399860000000 1.0
C      1  0.4154900000000  0.4894500000000  0.5482480000000 1.0
C      1  0.5480960000000  0.4345250000000  0.5475040000000 1.0
C      1  0.4753400000000  0.5752280000000  0.4633000000000 1.0
C      1  0.5796300000000  0.4885620000000  0.4508960000000 1.0
C      1  0.4511180000000  0.4364170000000  0.4577990000000 1.0
C      1  0.5125460000000  0.5001870000000  0.5187500000000 1.0
C      1  0.4813370000000  0.4884360000000  0.4770920000000 1.0
END
