TITL C-2622966-9038-273 0.00176572639365732 125000 -993.704762320764 0 0 180 (C1) n - 1
REM
REM in /nfs/bkarasulu/CARBON/AIRSS/Generating-Clusters/AIREBO/with-SteepDescent/Higher-Symm/SD-CG/HFTN-CG
REM
REM
REM
REM
REM
REM ./C.cell (b20cbc046b6831c77cfcea5457e17084)
REM
REM compiler GCC version 9.2.1 20190827 (Red Hat 9.2.1-1)
REM options -cpp -mtune=generic -march=x86-64 -g -O0 -fpre-include=/usr/include/finclude/math-vector-fortran.h
REM seed 1999838238 1986755526 -31457690 2060245055 -1705219097 1410740999 1101128242 -302883272 -913941483 592529193 -741934558 221687558 1335271653 1728094671 -2043563828 1441361957 47257167 -522795744 -134938464 -1617288012 -1136907341 -775804036 1758330146 574012096 1973041058 -946424042 1475762676 103211216 1776255202 -1525113378 -1264102051 -128388428 -1128764753
REM
CELL 1.54180   50.00000   50.00000   50.00000   90.00000   90.00000   90.00000
LATT -1
SFAC C  
C      1  0.4622800000000  0.4445130000000  0.4820460000000 1.0
C      1  0.4446980000000  0.4772590000000  0.4731210000000 1.0
C      1  0.4833110000000  0.4709760000000  0.4428160000000 1.0
C      1  0.5264440000000  0.4506320000000  0.5159790000000 1.0
C      1  0.5298090000000  0.5507180000000  0.4914620000000 1.0
C      1  0.4691680000000  0.5495340000000  0.5158120000000 1.0
C      1  0.5499980000000  0.4903610000000  0.5248050000000 1.0
C      1  0.5520910000000  0.5191310000000  0.4690700000000 1.0
C      1  0.4471810000000  0.5295530000000  0.5274780000000 1.0
C      1  0.5134740000000  0.4661490000000  0.5433550000000 1.0
C      1  0.5287210000000  0.5234880000000  0.4477130000000 1.0
C      1  0.4879540000000  0.5274220000000  0.5536240000000 1.0
C      1  0.4677490000000  0.5588310000000  0.4840580000000 1.0
C      1  0.4546980000000  0.5094360000000  0.4777010000000 1.0
C      1  0.4825290000000  0.5311130000000  0.4594320000000 1.0
C      1  0.5243260000000  0.5616230000000  0.5232010000000 1.0
C      1  0.5316860000000  0.4580470000000  0.4831950000000 1.0
C      1  0.4731950000000  0.4488500000000  0.5134400000000 1.0
C      1  0.5685310000000  0.5305530000000  0.5216850000000 1.0
C      1  0.5638810000000  0.4873880000000  0.4706040000000 1.0
C      1  0.4570160000000  0.4814090000000  0.5356080000000 1.0
C      1  0.5178250000000  0.5200890000000  0.5681230000000 1.0
C      1  0.5133320000000  0.4729190000000  0.4586910000000 1.0
C      1  0.4850610000000  0.4699090000000  0.5616640000000 1.0
C      1  0.5250390000000  0.5070840000000  0.5967830000000 1.0
C      1  0.5077390000000  0.5884210000000  0.5197990000000 1.0
C      1  0.5995190000000  0.5244110000000  0.5122410000000 1.0
C      1  0.4652570000000  0.5161380000000  0.4342040000000 1.0
C      1  0.4839990000000  0.4863150000000  0.5881770000000 1.0
C      1  0.5152080000000  0.4872970000000  0.4261030000000 1.0
C      1  0.4918230000000  0.5828400000000  0.4835910000000 1.0
C      1  0.4916380000000  0.4217010000000  0.5170540000000 1.0
C      1  0.5142550000000  0.4314820000000  0.4710430000000 1.0
C      1  0.4266840000000  0.5204080000000  0.4938610000000 1.0
C      1  0.4279360000000  0.4727360000000  0.5204230000000 1.0
C      1  0.5900380000000  0.4839050000000  0.4887130000000 1.0
C      1  0.5113810000000  0.4847850000000  0.6026390000000 1.0
C      1  0.5208030000000  0.4200100000000  0.5231590000000 1.0
C      1  0.5806720000000  0.4760150000000  0.5188050000000 1.0
C      1  0.4823600000000  0.4952880000000  0.4224470000000 1.0
C      1  0.4760110000000  0.5160940000000  0.5834030000000 1.0
C      1  0.5272710000000  0.5134290000000  0.4168390000000 1.0
C      1  0.4867720000000  0.4233510000000  0.4857920000000 1.0
C      1  0.4787450000000  0.5821820000000  0.5142740000000 1.0
C      1  0.5202750000000  0.5801200000000  0.4772450000000 1.0
C      1  0.4246750000000  0.4885570000000  0.4936550000000 1.0
C      1  0.4165400000000  0.5333490000000  0.5199060000000 1.0
C      1  0.6046390000000  0.5115920000000  0.4896570000000 1.0
C      1  0.6118580000000  0.5132130000000  0.5369770000000 1.0
C      1  0.5153090000000  0.5319130000000  0.6111370000000 1.0
C      1  0.5275370000000  0.6098000000000  0.5155410000000 1.0
C      1  0.4011550000000  0.5155520000000  0.4737960000000 1.0
C      1  0.3969640000000  0.4868520000000  0.5219880000000 1.0
C      1  0.6113770000000  0.4844250000000  0.4619910000000 1.0
C      1  0.4875670000000  0.5201200000000  0.3869520000000 1.0
C      1  0.4812020000000  0.4608670000000  0.6113010000000 1.0
C      1  0.5038550000000  0.4696080000000  0.4011050000000 1.0
C      1  0.4705830000000  0.6075210000000  0.4846720000000 1.0
C      1  0.4743120000000  0.3936300000000  0.5091760000000 1.0
C      1  0.5166100000000  0.3982530000000  0.4778650000000 1.0
C      1  0.6024890000000  0.4865200000000  0.5408150000000 1.0
C      1  0.5135950000000  0.4562320000000  0.6137590000000 1.0
C      1  0.5308950000000  0.3973070000000  0.5061630000000 1.0
C      1  0.3926570000000  0.4856810000000  0.4878320000000 1.0
C      1  0.3973990000000  0.5151060000000  0.5331420000000 1.0
C      1  0.6101050000000  0.5172910000000  0.4610080000000 1.0
C      1  0.4798360000000  0.4902910000000  0.3887980000000 1.0
C      1  0.4879550000000  0.5352380000000  0.6057130000000 1.0
C      1  0.5142990000000  0.5241310000000  0.3885160000000 1.0
C      1  0.4827280000000  0.3924900000000  0.4763060000000 1.0
C      1  0.4637000000000  0.6126920000000  0.5141530000000 1.0
C      1  0.5361420000000  0.6043830000000  0.4888290000000 1.0
C      1  0.5692450000000  0.5084170000000  0.6019810000000 1.0
C      1  0.5023280000000  0.5915710000000  0.5674520000000 1.0
C      1  0.6034800000000  0.5699440000000  0.5022260000000 1.0
C      1  0.4262940000000  0.4983370000000  0.3973830000000 1.0
C      1  0.4349630000000  0.4959940000000  0.5972290000000 1.0
C      1  0.5659170000000  0.4886540000000  0.3913110000000 1.0
C      1  0.4931900000000  0.5877780000000  0.4380890000000 1.0
C      1  0.4899350000000  0.3903030000000  0.5636700000000 1.0
C      1  0.5017490000000  0.3992810000000  0.4231340000000 1.0
C      1  0.4046870000000  0.5780630000000  0.4782940000000 1.0
C      1  0.3940490000000  0.4273900000000  0.5200820000000 1.0
C      1  0.5988940000000  0.4463560000000  0.4994040000000 1.0
C      1  0.5756450000000  0.4826260000000  0.5920810000000 1.0
C      1  0.5175860000000  0.3934530000000  0.5646290000000 1.0
C      1  0.5776280000000  0.4431650000000  0.5257670000000 1.0
C      1  0.4270670000000  0.4745880000000  0.4052190000000 1.0
C      1  0.4457420000000  0.5177720000000  0.5842180000000 1.0
C      1  0.5689340000000  0.5162540000000  0.3923130000000 1.0
C      1  0.4785870000000  0.4069820000000  0.4170920000000 1.0
C      1  0.4779440000000  0.5973750000000  0.5699310000000 1.0
C      1  0.5219460000000  0.5789920000000  0.4473670000000 1.0
C      1  0.3895980000000  0.4269400000000  0.4929160000000 1.0
C      1  0.3926400000000  0.5748590000000  0.5007090000000 1.0
C      1  0.5987730000000  0.5731990000000  0.4777180000000 1.0
C      1  0.4214510000000  0.5287360000000  0.4551370000000 1.0
C      1  0.5330710000000  0.4556690000000  0.4076490000000 1.0
C      1  0.4568950000000  0.4071860000000  0.5300870000000 1.0
C      1  0.5960330000000  0.5368990000000  0.5496530000000 1.0
C      1  0.5916720000000  0.4639860000000  0.4541560000000 1.0
C      1  0.4040950000000  0.4691830000000  0.5501540000000 1.0
C      1  0.4620700000000  0.4529660000000  0.5895320000000 1.0
C      1  0.4716200000000  0.5380870000000  0.4021130000000 1.0
C      1  0.5369980000000  0.5448680000000  0.5929150000000 1.0
C      1  0.5457540000000  0.4092940000000  0.4636010000000 1.0
C      1  0.5437240000000  0.5941110000000  0.5360330000000 1.0
C      1  0.4532850000000  0.5992260000000  0.4617100000000 1.0
C      1  0.4077550000000  0.4637050000000  0.4666530000000 1.0
C      1  0.5296240000000  0.5485190000000  0.3980090000000 1.0
C      1  0.4449020000000  0.5958350000000  0.5298460000000 1.0
C      1  0.5882370000000  0.4832800000000  0.5642450000000 1.0
C      1  0.5895350000000  0.5311840000000  0.4485550000000 1.0
C      1  0.3965750000000  0.5203880000000  0.5620660000000 1.0
C      1  0.4798320000000  0.5606620000000  0.5984050000000 1.0
C      1  0.4707300000000  0.4608160000000  0.4017180000000 1.0
C      1  0.5298200000000  0.4520410000000  0.5890880000000 1.0
C      1  0.5629590000000  0.5976240000000  0.4859830000000 1.0
C      1  0.5579540000000  0.3969860000000  0.5068470000000 1.0
C      1  0.4567080000000  0.4100860000000  0.4629890000000 1.0
C      1  0.4783630000000  0.5577620000000  0.5662920000000 1.0
C      1  0.5604190000000  0.5652110000000  0.4851100000000 1.0
C      1  0.5577730000000  0.4916370000000  0.5574790000000 1.0
C      1  0.5200050000000  0.5502420000000  0.4305750000000 1.0
C      1  0.5130740000000  0.4421460000000  0.5656530000000 1.0
C      1  0.4847830000000  0.4452760000000  0.4268410000000 1.0
C      1  0.4307510000000  0.5808330000000  0.5111850000000 1.0
C      1  0.4368560000000  0.4251790000000  0.4847940000000 1.0
C      1  0.5681710000000  0.4217000000000  0.5035100000000 1.0
C      1  0.4309130000000  0.4759520000000  0.4449660000000 1.0
C      1  0.4299690000000  0.5222310000000  0.5558880000000 1.0
C      1  0.5663290000000  0.5124590000000  0.4398150000000 1.0
C      1  0.4793160000000  0.4369280000000  0.5676320000000 1.0
C      1  0.5570080000000  0.4360230000000  0.4772330000000 1.0
C      1  0.5665310000000  0.5243420000000  0.5552010000000 1.0
C      1  0.5138390000000  0.4373070000000  0.4221610000000 1.0
C      1  0.5113180000000  0.5530760000000  0.5732540000000 1.0
C      1  0.4859720000000  0.5495030000000  0.4307490000000 1.0
C      1  0.4350390000000  0.4204240000000  0.5175910000000 1.0
C      1  0.4384750000000  0.5742340000000  0.4786940000000 1.0
C      1  0.5572930000000  0.5687310000000  0.5187870000000 1.0
C      1  0.4299300000000  0.5066370000000  0.4362630000000 1.0
C      1  0.4316570000000  0.4882570000000  0.5569200000000 1.0
C      1  0.5680440000000  0.4785110000000  0.4380270000000 1.0
C      1  0.5541280000000  0.5344490000000  0.4169280000000 1.0
C      1  0.5308510000000  0.4195200000000  0.5520860000000 1.0
C      1  0.4100990000000  0.5626480000000  0.5250140000000 1.0
C      1  0.4277710000000  0.5560890000000  0.5534370000000 1.0
C      1  0.4458790000000  0.4538370000000  0.4238650000000 1.0
C      1  0.5559560000000  0.4617560000000  0.5738340000000 1.0
C      1  0.4595610000000  0.4248980000000  0.4359730000000 1.0
C      1  0.4533550000000  0.5784040000000  0.5560600000000 1.0
C      1  0.5510690000000  0.5623190000000  0.4373700000000 1.0
C      1  0.5763770000000  0.5576100000000  0.4578210000000 1.0
C      1  0.5593590000000  0.4381090000000  0.5523270000000 1.0
C      1  0.4100840000000  0.4369860000000  0.4762040000000 1.0
C      1  0.5565700000000  0.4701970000000  0.4111010000000 1.0
C      1  0.5267290000000  0.5718630000000  0.5543250000000 1.0
C      1  0.4191610000000  0.4438260000000  0.5332260000000 1.0
C      1  0.4413950000000  0.4700520000000  0.5839560000000 1.0
C      1  0.4427260000000  0.5240140000000  0.4099880000000 1.0
C      1  0.5581720000000  0.5289010000000  0.5852050000000 1.0
C      1  0.4645110000000  0.5709480000000  0.4464660000000 1.0
C      1  0.4713710000000  0.4105360000000  0.5551430000000 1.0
C      1  0.5221480000000  0.4153390000000  0.4421750000000 1.0
C      1  0.5858360000000  0.4466940000000  0.4747150000000 1.0
C      1  0.5863010000000  0.5591950000000  0.5262340000000 1.0
C      1  0.4350710000000  0.5538240000000  0.4517090000000 1.0
C      1  0.4869770000000  0.4958830000000  0.5426140000000 1.0
C      1  0.4970570000000  0.5421050000000  0.4882470000000 1.0
C      1  0.5390900000000  0.4898860000000  0.4926400000000 1.0
C      1  0.5129850000000  0.5060080000000  0.4665020000000 1.0
C      1  0.5218290000000  0.4981050000000  0.5423710000000 1.0
C      1  0.4822870000000  0.4974600000000  0.4643380000000 1.0
C      1  0.4989350000000  0.5389940000000  0.5234170000000 1.0
C      1  0.4911620000000  0.4624000000000  0.4804710000000 1.0
C      1  0.5005330000000  0.4643380000000  0.5074690000000 1.0
C      1  0.4624710000000  0.4790650000000  0.5021220000000 1.0
C      1  0.4620310000000  0.5106950000000  0.5095420000000 1.0
C      1  0.5458460000000  0.5222890000000  0.5010930000000 1.0
END
