TITL C-2622960-5345-146 0.00077179742074988 125000 -491.849813804778 0 0 91 (C1) n - 1
REM
REM in /nfs/bkarasulu/CARBON/AIRSS/Generating-Clusters/AIREBO/with-SteepDescent/Higher-Symm/SD-CG/HFTN-CG
REM
REM
REM
REM
REM
REM ./C.cell (b20cbc046b6831c77cfcea5457e17084)
REM
REM compiler GCC version 9.2.1 20190827 (Red Hat 9.2.1-1)
REM options -cpp -mtune=generic -march=x86-64 -g -O0 -fpre-include=/usr/include/finclude/math-vector-fortran.h
REM seed 2099609539 -359998282 193549017 1685490683 -1399165111 2010404667 -1190176475 -833195495 1437522439 -220687851 -128518323 1007213135 -535779449 2023942645 -204859747 920855464 131855379 -1864160098 -1426844974 1700467441 -1986032635 -1517953522 1634027070 -2102068308 -1706074857 1646954079 -1893540220 -1552265382 -477979110 793650124 1187112451 995267211 354582616
REM
CELL 1.54180   50.00000   50.00000   50.00000   90.00000   90.00000   90.00000
LATT -1
SFAC C  
C      1  0.5237560000000  0.5833470000000  0.4952020000000 1.0
C      1  0.4706410000000  0.5831240000000  0.4977520000000 1.0
C      1  0.4736860000000  0.4174170000000  0.4949610000000 1.0
C      1  0.5263820000000  0.4152450000000  0.4989100000000 1.0
C      1  0.4971680000000  0.5795990000000  0.5439470000000 1.0
C      1  0.5050020000000  0.5775710000000  0.4605140000000 1.0
C      1  0.4980180000000  0.4197680000000  0.4564980000000 1.0
C      1  0.5029140000000  0.4235530000000  0.5357920000000 1.0
C      1  0.4832490000000  0.5433050000000  0.5530420000000 1.0
C      1  0.5192710000000  0.5413710000000  0.4514590000000 1.0
C      1  0.5244070000000  0.4493850000000  0.5693280000000 1.0
C      1  0.4828730000000  0.4628850000000  0.4485880000000 1.0
C      1  0.5549240000000  0.5406570000000  0.4822610000000 1.0
C      1  0.4491990000000  0.5383830000000  0.5157600000000 1.0
C      1  0.5467040000000  0.4615140000000  0.5164020000000 1.0
C      1  0.4454030000000  0.4612380000000  0.4814940000000 1.0
C      1  0.5356250000000  0.5480060000000  0.5578410000000 1.0
C      1  0.4685980000000  0.5397960000000  0.4431980000000 1.0
C      1  0.4709240000000  0.4607220000000  0.5567850000000 1.0
C      1  0.5327740000000  0.4629990000000  0.4418220000000 1.0
C      1  0.5462850000000  0.5431530000000  0.5278750000000 1.0
C      1  0.4571190000000  0.5394800000000  0.4685470000000 1.0
C      1  0.5430410000000  0.4618200000000  0.4678060000000 1.0
C      1  0.4554370000000  0.4601970000000  0.5300800000000 1.0
C      1  0.5439620000000  0.4923020000000  0.5792920000000 1.0
C      1  0.4532080000000  0.4891730000000  0.4178980000000 1.0
C      1  0.4547750000000  0.5134730000000  0.5818000000000 1.0
C      1  0.5474220000000  0.5152960000000  0.4183830000000 1.0
C      1  0.5768630000000  0.4898580000000  0.5419810000000 1.0
C      1  0.4208260000000  0.4946900000000  0.4569870000000 1.0
C      1  0.5791700000000  0.5062900000000  0.4588250000000 1.0
C      1  0.4220430000000  0.5099560000000  0.5441420000000 1.0
C      1  0.5057500000000  0.4622160000000  0.4274700000000 1.0
C      1  0.4988730000000  0.4622720000000  0.5729380000000 1.0
C      1  0.4961650000000  0.5406400000000  0.4293790000000 1.0
C      1  0.5077060000000  0.5427580000000  0.5729100000000 1.0
C      1  0.4298300000000  0.4594570000000  0.5074800000000 1.0
C      1  0.5770570000000  0.4623370000000  0.5019340000000 1.0
C      1  0.4199200000000  0.5366990000000  0.5011040000000 1.0
C      1  0.5732230000000  0.5411150000000  0.5070680000000 1.0
C      1  0.4968270000000  0.5147410000000  0.4113410000000 1.0
C      1  0.5115630000000  0.5144010000000  0.5858990000000 1.0
C      1  0.5060180000000  0.4862460000000  0.4077960000000 1.0
C      1  0.4979100000000  0.4903960000000  0.5873130000000 1.0
C      1  0.4128140000000  0.5095850000000  0.4930460000000 1.0
C      1  0.5852930000000  0.5120560000000  0.5099540000000 1.0
C      1  0.4149420000000  0.4875240000000  0.5097710000000 1.0
C      1  0.5858190000000  0.4891740000000  0.4942180000000 1.0
C      1  0.4417580000000  0.4896210000000  0.5292180000000 1.0
C      1  0.5591890000000  0.4858120000000  0.4750490000000 1.0
C      1  0.5571830000000  0.5122460000000  0.5282000000000 1.0
C      1  0.4396500000000  0.5154620000000  0.4737610000000 1.0
C      1  0.5291710000000  0.4940730000000  0.4301840000000 1.0
C      1  0.4726890000000  0.4916550000000  0.5675120000000 1.0
C      1  0.5313940000000  0.5143830000000  0.5586770000000 1.0
C      1  0.4715720000000  0.5096460000000  0.4310780000000 1.0
C      1  0.5405180000000  0.4289120000000  0.5238190000000 1.0
C      1  0.4559100000000  0.4319950000000  0.4746100000000 1.0
C      1  0.4544390000000  0.5714070000000  0.5219600000000 1.0
C      1  0.5407640000000  0.5676310000000  0.4761160000000 1.0
C      1  0.5268710000000  0.4264610000000  0.5523410000000 1.0
C      1  0.4701660000000  0.4313730000000  0.4498710000000 1.0
C      1  0.5320320000000  0.5725160000000  0.4465510000000 1.0
C      1  0.4675500000000  0.5732450000000  0.5468080000000 1.0
C      1  0.4744470000000  0.5494200000000  0.4953710000000 1.0
C      1  0.5237380000000  0.5543410000000  0.5096890000000 1.0
C      1  0.5253920000000  0.4486230000000  0.4924830000000 1.0
C      1  0.4736630000000  0.4477840000000  0.5063930000000 1.0
C      1  0.5046160000000  0.5512640000000  0.4809340000000 1.0
C      1  0.4945260000000  0.5532970000000  0.5225550000000 1.0
C      1  0.5015920000000  0.4422570000000  0.5159290000000 1.0
C      1  0.4952920000000  0.4469530000000  0.4767470000000 1.0
C      1  0.5466700000000  0.4664720000000  0.5686120000000 1.0
C      1  0.4521480000000  0.4677020000000  0.4348370000000 1.0
C      1  0.4534620000000  0.5361930000000  0.5663970000000 1.0
C      1  0.5493070000000  0.5352550000000  0.4367300000000 1.0
C      1  0.5621180000000  0.4665360000000  0.5455000000000 1.0
C      1  0.4330670000000  0.4702710000000  0.4548040000000 1.0
C      1  0.5683480000000  0.5312680000000  0.4564480000000 1.0
C      1  0.4353310000000  0.5342820000000  0.5455730000000 1.0
C      1  0.5383260000000  0.5106370000000  0.4815660000000 1.0
C      1  0.4645190000000  0.5081090000000  0.5131050000000 1.0
C      1  0.4604760000000  0.4923010000000  0.4832330000000 1.0
C      1  0.5362500000000  0.4935930000000  0.5109610000000 1.0
C      1  0.4821990000000  0.5108030000000  0.5431040000000 1.0
C      1  0.5158500000000  0.5080120000000  0.4571460000000 1.0
C      1  0.4843330000000  0.4951940000000  0.4591220000000 1.0
C      1  0.5146350000000  0.5058560000000  0.5341700000000 1.0
C      1  0.4953860000000  0.5930060000000  0.4863830000000 1.0
C      1  0.5007760000000  0.4082640000000  0.4850750000000 1.0
C      1  0.4967010000000  0.4980990000000  0.5086040000000 1.0
END
