TITL C-2622957-9142-761 0.00028143341515159 125000 -808.016036099378 0 0 144 (C1) n - 1
REM
REM in /nfs/bkarasulu/CARBON/AIRSS/Generating-Clusters/AIREBO/with-SteepDescent/Higher-Symm/SD-CG/HFTN-CG
REM
REM
REM
REM
REM
REM ./C.cell (b20cbc046b6831c77cfcea5457e17084)
REM
REM compiler GCC version 9.2.1 20190827 (Red Hat 9.2.1-1)
REM options -cpp -mtune=generic -march=x86-64 -g -O0 -fpre-include=/usr/include/finclude/math-vector-fortran.h
REM seed -1016045135 -1062697863 942213467 458808248 -1698570539 1699595891 1898494386 566029767 -1903881283 -1500229289 86740899 -659262924 338021010 -1930749317 -1503121930 1042294429 134966551 -1053751284 -2099086167 -53807473 -92979914 668513417 -585725952 -870591752 -630845712 -131616277 2049395539 -593387470 1630292441 -7945543 -2105746120 -999921973 -976143574
REM
CELL 1.54180   50.00000   50.00000   50.00000   90.00000   90.00000   90.00000
LATT -1
SFAC C  
C      1  0.4602810000000  0.4743890000000  0.5910240000000 1.0
C      1  0.4201490000000  0.4661800000000  0.4701320000000 1.0
C      1  0.5303310000000  0.4691840000000  0.4072640000000 1.0
C      1  0.5872950000000  0.4668830000000  0.5342470000000 1.0
C      1  0.5309950000000  0.4152360000000  0.4687290000000 1.0
C      1  0.5169610000000  0.4182410000000  0.5268070000000 1.0
C      1  0.4986920000000  0.4148570000000  0.5047010000000 1.0
C      1  0.5047450000000  0.4151940000000  0.4762290000000 1.0
C      1  0.5480460000000  0.5421270000000  0.4760930000000 1.0
C      1  0.5337090000000  0.5436960000000  0.5509170000000 1.0
C      1  0.4527450000000  0.5450280000000  0.5419110000000 1.0
C      1  0.4767270000000  0.5216740000000  0.4611610000000 1.0
C      1  0.5201170000000  0.5803800000000  0.5115620000000 1.0
C      1  0.4873680000000  0.5772580000000  0.5143520000000 1.0
C      1  0.4756190000000  0.5755910000000  0.4824050000000 1.0
C      1  0.5088270000000  0.5828850000000  0.4811320000000 1.0
C      1  0.4381720000000  0.5105960000000  0.5045060000000 1.0
C      1  0.5040340000000  0.5097400000000  0.4345810000000 1.0
C      1  0.5576780000000  0.5065160000000  0.5142040000000 1.0
C      1  0.4911650000000  0.5163200000000  0.5686250000000 1.0
C      1  0.5582160000000  0.5123260000000  0.4641190000000 1.0
C      1  0.5344960000000  0.5133310000000  0.5646390000000 1.0
C      1  0.4118550000000  0.5205280000000  0.5601100000000 1.0
C      1  0.4593820000000  0.5219400000000  0.4322320000000 1.0
C      1  0.5703920000000  0.4436830000000  0.5296710000000 1.0
C      1  0.4641120000000  0.4479600000000  0.5825200000000 1.0
C      1  0.4348350000000  0.4418400000000  0.4700690000000 1.0
C      1  0.5261040000000  0.4486490000000  0.4266750000000 1.0
C      1  0.5767690000000  0.4241590000000  0.4556410000000 1.0
C      1  0.5323500000000  0.4256140000000  0.5744130000000 1.0
C      1  0.4495670000000  0.4207280000000  0.5316830000000 1.0
C      1  0.4686350000000  0.4194550000000  0.4251540000000 1.0
C      1  0.4064330000000  0.5051280000000  0.4974340000000 1.0
C      1  0.5012220000000  0.5073100000000  0.3925690000000 1.0
C      1  0.5909720000000  0.5051610000000  0.5074190000000 1.0
C      1  0.4893770000000  0.5155680000000  0.6022260000000 1.0
C      1  0.5158980000000  0.4791350000000  0.4722350000000 1.0
C      1  0.5282460000000  0.4814400000000  0.5041180000000 1.0
C      1  0.5039290000000  0.4979470000000  0.5212370000000 1.0
C      1  0.4808790000000  0.4886140000000  0.5014480000000 1.0
C      1  0.4492880000000  0.5541650000000  0.4844030000000 1.0
C      1  0.5107390000000  0.5615300000000  0.4552090000000 1.0
C      1  0.5464460000000  0.5595080000000  0.5168510000000 1.0
C      1  0.4842480000000  0.5497340000000  0.5340920000000 1.0
C      1  0.5279750000000  0.5754920000000  0.5858660000000 1.0
C      1  0.4151200000000  0.5762180000000  0.5302500000000 1.0
C      1  0.5189540000000  0.5672360000000  0.4231830000000 1.0
C      1  0.5856690000000  0.5690370000000  0.4740050000000 1.0
C      1  0.4427790000000  0.5772870000000  0.5378840000000 1.0
C      1  0.4886830000000  0.5760310000000  0.4252510000000 1.0
C      1  0.5575420000000  0.5702650000000  0.4685230000000 1.0
C      1  0.5376920000000  0.5752070000000  0.5588170000000 1.0
C      1  0.4433300000000  0.5137280000000  0.5513600000000 1.0
C      1  0.4595830000000  0.5015600000000  0.4798530000000 1.0
C      1  0.5301490000000  0.4993790000000  0.4520280000000 1.0
C      1  0.5456600000000  0.4939660000000  0.5395930000000 1.0
C      1  0.5646170000000  0.5167720000000  0.5789760000000 1.0
C      1  0.3945860000000  0.5305370000000  0.5876820000000 1.0
C      1  0.4209190000000  0.5497580000000  0.4150430000000 1.0
C      1  0.5688880000000  0.5242340000000  0.4343760000000 1.0
C      1  0.4494920000000  0.4629360000000  0.4395060000000 1.0
C      1  0.5624670000000  0.4580640000000  0.4402020000000 1.0
C      1  0.5467300000000  0.4601920000000  0.5606710000000 1.0
C      1  0.4402840000000  0.4602110000000  0.5531220000000 1.0
C      1  0.4747510000000  0.5386170000000  0.4970000000000 1.0
C      1  0.5010620000000  0.5393310000000  0.4770380000000 1.0
C      1  0.5254110000000  0.5395040000000  0.4994530000000 1.0
C      1  0.5004000000000  0.5279650000000  0.5151000000000 1.0
C      1  0.4084940000000  0.5514560000000  0.5194590000000 1.0
C      1  0.4786540000000  0.5496880000000  0.4111320000000 1.0
C      1  0.5920080000000  0.5462120000000  0.4880980000000 1.0
C      1  0.5116340000000  0.5537500000000  0.5898210000000 1.0
C      1  0.5278570000000  0.4457690000000  0.5927310000000 1.0
C      1  0.4286710000000  0.4388060000000  0.5188120000000 1.0
C      1  0.4719890000000  0.4359160000000  0.4031270000000 1.0
C      1  0.5953960000000  0.4428880000000  0.4630760000000 1.0
C      1  0.5424620000000  0.4625130000000  0.4612370000000 1.0
C      1  0.5265370000000  0.4663050000000  0.5345180000000 1.0
C      1  0.4648240000000  0.4665700000000  0.5304020000000 1.0
C      1  0.4676220000000  0.4786720000000  0.4582950000000 1.0
C      1  0.4201190000000  0.5467800000000  0.5790860000000 1.0
C      1  0.4370770000000  0.5410840000000  0.4353540000000 1.0
C      1  0.5616290000000  0.5442220000000  0.4171860000000 1.0
C      1  0.5764660000000  0.5381680000000  0.5714850000000 1.0
C      1  0.5076380000000  0.4948910000000  0.5549030000000 1.0
C      1  0.4415280000000  0.4912510000000  0.5283300000000 1.0
C      1  0.4778310000000  0.4933810000000  0.4329610000000 1.0
C      1  0.5575010000000  0.4882820000000  0.4881610000000 1.0
C      1  0.4593890000000  0.4881270000000  0.3978670000000 1.0
C      1  0.5917510000000  0.4881720000000  0.4608440000000 1.0
C      1  0.5313950000000  0.4917210000000  0.5980300000000 1.0
C      1  0.4023170000000  0.4882680000000  0.5390780000000 1.0
C      1  0.5663750000000  0.4409060000000  0.5002810000000 1.0
C      1  0.4920820000000  0.4458740000000  0.5681750000000 1.0
C      1  0.4498200000000  0.4363740000000  0.4950590000000 1.0
C      1  0.4973850000000  0.4514850000000  0.4384860000000 1.0
C      1  0.4790750000000  0.5858450000000  0.4503510000000 1.0
C      1  0.5378860000000  0.5885100000000  0.4663000000000 1.0
C      1  0.5351510000000  0.5917030000000  0.5376320000000 1.0
C      1  0.4645590000000  0.5924970000000  0.5312750000000 1.0
C      1  0.5049910000000  0.4794170000000  0.3953320000000 1.0
C      1  0.6008710000000  0.4753900000000  0.5100990000000 1.0
C      1  0.4864290000000  0.4847850000000  0.6002870000000 1.0
C      1  0.4047590000000  0.4745790000000  0.4935590000000 1.0
C      1  0.5895380000000  0.5159110000000  0.4768720000000 1.0
C      1  0.5210240000000  0.5226250000000  0.5944410000000 1.0
C      1  0.4066370000000  0.5198770000000  0.5280990000000 1.0
C      1  0.4731340000000  0.5175320000000  0.4015550000000 1.0
C      1  0.5228790000000  0.5244020000000  0.4017610000000 1.0
C      1  0.5866850000000  0.5208380000000  0.5371600000000 1.0
C      1  0.4632780000000  0.5335450000000  0.5910940000000 1.0
C      1  0.4152070000000  0.5208410000000  0.4704640000000 1.0
C      1  0.5008510000000  0.5436760000000  0.5596970000000 1.0
C      1  0.4379100000000  0.5397810000000  0.5117640000000 1.0
C      1  0.4951100000000  0.5387140000000  0.4376900000000 1.0
C      1  0.5647980000000  0.5350330000000  0.5041110000000 1.0
C      1  0.5583370000000  0.4193790000000  0.4781730000000 1.0
C      1  0.5082660000000  0.4210110000000  0.5560200000000 1.0
C      1  0.4714660000000  0.4154470000000  0.5108770000000 1.0
C      1  0.4862070000000  0.4235820000000  0.4539770000000 1.0
C      1  0.4512650000000  0.4334120000000  0.4467370000000 1.0
C      1  0.5462610000000  0.4281880000000  0.4411460000000 1.0
C      1  0.5442680000000  0.4315190000000  0.5431130000000 1.0
C      1  0.4561150000000  0.4334690000000  0.5561490000000 1.0
C      1  0.5763570000000  0.4907230000000  0.5457930000000 1.0
C      1  0.4613530000000  0.5042450000000  0.5760420000000 1.0
C      1  0.4292180000000  0.4942570000000  0.4664080000000 1.0
C      1  0.5310940000000  0.4982030000000  0.4190200000000 1.0
C      1  0.4906550000000  0.4624370000000  0.4699990000000 1.0
C      1  0.5395710000000  0.4526300000000  0.4900410000000 1.0
C      1  0.4952640000000  0.4606400000000  0.5402870000000 1.0
C      1  0.4744400000000  0.4565200000000  0.4993500000000 1.0
C      1  0.5347060000000  0.5483450000000  0.4094030000000 1.0
C      1  0.5662530000000  0.5476470000000  0.5418490000000 1.0
C      1  0.4475710000000  0.5507140000000  0.5750420000000 1.0
C      1  0.4297270000000  0.5430590000000  0.4624520000000 1.0
C      1  0.5500090000000  0.4771160000000  0.5808890000000 1.0
C      1  0.4150830000000  0.4708390000000  0.5592560000000 1.0
C      1  0.4418870000000  0.4746110000000  0.4163610000000 1.0
C      1  0.5831420000000  0.4767370000000  0.4373760000000 1.0
C      1  0.5830730000000  0.4660860000000  0.4846730000000 1.0
C      1  0.5103640000000  0.4720060000000  0.5799910000000 1.0
C      1  0.4192230000000  0.4669370000000  0.5198300000000 1.0
C      1  0.4808240000000  0.4662540000000  0.4126800000000 1.0
END
