TITL C-2622953-3516-230 0.000181102646223117 125000 -392.797230701118 0 0 69 (C1) n - 1
REM
REM in /nfs/bkarasulu/CARBON/AIRSS/Generating-Clusters/AIREBO/with-SteepDescent/Higher-Symm/SD-CG/HFTN-CG
REM
REM
REM
REM
REM
REM ./C.cell (b20cbc046b6831c77cfcea5457e17084)
REM
REM compiler GCC version 9.2.1 20190827 (Red Hat 9.2.1-1)
REM options -cpp -mtune=generic -march=x86-64 -g -O0 -fpre-include=/usr/include/finclude/math-vector-fortran.h
REM seed 401634496 -1815663964 -976047757 94635618 -1295184638 252881089 413147442 -358729668 423804574 1641518284 -140757781 394486471 -63034864 1585955386 -1384791792 1594860079 1729439158 473274023 -55014065 741043154 -7300997 -991373668 -88163324 49827945 1280391210 65803255 -32565899 1321501643 -1529437996 -1117403007 788945535 1239102363 -1028334846
REM
CELL 1.54180   50.00000   50.00000   50.00000   90.00000   90.00000   90.00000
LATT -1
SFAC C  
C      1  0.5684560000000  0.5014750000000  0.4478710000000 1.0
C      1  0.4213910000000  0.4943190000000  0.5441630000000 1.0
C      1  0.4791100000000  0.5681470000000  0.4319280000000 1.0
C      1  0.6024810000000  0.4745790000000  0.5889360000000 1.0
C      1  0.5229590000000  0.4892500000000  0.4232310000000 1.0
C      1  0.4613880000000  0.5084910000000  0.5692850000000 1.0
C      1  0.4881660000000  0.5510080000000  0.5304890000000 1.0
C      1  0.5209290000000  0.4478340000000  0.4870340000000 1.0
C      1  0.5027120000000  0.4440680000000  0.5137070000000 1.0
C      1  0.4930280000000  0.5475160000000  0.4824580000000 1.0
C      1  0.5249600000000  0.4637420000000  0.4384000000000 1.0
C      1  0.4617460000000  0.5282530000000  0.5498740000000 1.0
C      1  0.4910470000000  0.4915000000000  0.6049610000000 1.0
C      1  0.4910540000000  0.4950470000000  0.3863660000000 1.0
C      1  0.5638210000000  0.4979350000000  0.5292160000000 1.0
C      1  0.4366400000000  0.4914760000000  0.4695080000000 1.0
C      1  0.4295930000000  0.4833960000000  0.5181550000000 1.0
C      1  0.5660360000000  0.5137530000000  0.4742950000000 1.0
C      1  0.4972570000000  0.5654490000000  0.5558120000000 1.0
C      1  0.5059710000000  0.4693490000000  0.4660840000000 1.0
C      1  0.4501860000000  0.4826760000000  0.4424800000000 1.0
C      1  0.5626860000000  0.4954970000000  0.5596520000000 1.0
C      1  0.5454810000000  0.5051900000000  0.4272250000000 1.0
C      1  0.4410400000000  0.4889950000000  0.5651610000000 1.0
C      1  0.4543390000000  0.5503580000000  0.5289970000000 1.0
C      1  0.5400410000000  0.4488610000000  0.4618400000000 1.0
C      1  0.4508040000000  0.4625970000000  0.5584140000000 1.0
C      1  0.5466610000000  0.5332930000000  0.4373020000000 1.0
C      1  0.5393810000000  0.5667100000000  0.5418560000000 1.0
C      1  0.4444110000000  0.4414810000000  0.4655720000000 1.0
C      1  0.5082430000000  0.5032870000000  0.4678740000000 1.0
C      1  0.4935240000000  0.4944420000000  0.5290330000000 1.0
C      1  0.4728780000000  0.4427710000000  0.4283590000000 1.0
C      1  0.5147480000000  0.5571430000000  0.5718240000000 1.0
C      1  0.4663690000000  0.4992340000000  0.4754620000000 1.0
C      1  0.5322150000000  0.4870070000000  0.5354060000000 1.0
C      1  0.4736620000000  0.4963160000000  0.4322350000000 1.0
C      1  0.5385670000000  0.5074300000000  0.5691480000000 1.0
C      1  0.4713320000000  0.5274130000000  0.4914490000000 1.0
C      1  0.5259860000000  0.4693840000000  0.5117460000000 1.0
C      1  0.5824960000000  0.4835920000000  0.5745730000000 1.0
C      1  0.4795420000000  0.5451060000000  0.4430750000000 1.0
C      1  0.5661510000000  0.5005400000000  0.4990850000000 1.0
C      1  0.4238560000000  0.4983600000000  0.4943370000000 1.0
C      1  0.4219660000000  0.5266020000000  0.4982480000000 1.0
C      1  0.5558390000000  0.4728510000000  0.4985300000000 1.0
C      1  0.4828030000000  0.5168110000000  0.4529670000000 1.0
C      1  0.5085230000000  0.4957910000000  0.5581660000000 1.0
C      1  0.4956890000000  0.4935300000000  0.4129320000000 1.0
C      1  0.4866850000000  0.4992350000000  0.5790560000000 1.0
C      1  0.5233560000000  0.5664080000000  0.5198430000000 1.0
C      1  0.4633590000000  0.4458190000000  0.4857120000000 1.0
C      1  0.5301090000000  0.5197320000000  0.5330050000000 1.0
C      1  0.4785060000000  0.5193270000000  0.5227370000000 1.0
C      1  0.4456960000000  0.5401820000000  0.5044890000000 1.0
C      1  0.5623910000000  0.4563470000000  0.4766840000000 1.0
C      1  0.4816980000000  0.4704940000000  0.5154530000000 1.0
C      1  0.5198560000000  0.5279630000000  0.4828730000000 1.0
C      1  0.4536370000000  0.4619310000000  0.5257350000000 1.0
C      1  0.5464190000000  0.5374420000000  0.4691280000000 1.0
C      1  0.5138300000000  0.5357020000000  0.5142090000000 1.0
C      1  0.4791190000000  0.4730400000000  0.4829250000000 1.0
C      1  0.5370080000000  0.5673860000000  0.4737380000000 1.0
C      1  0.4542590000000  0.4281200000000  0.5292830000000 1.0
C      1  0.5143830000000  0.5682830000000  0.4911660000000 1.0
C      1  0.4734330000000  0.4322220000000  0.5077230000000 1.0
C      1  0.5378050000000  0.5382850000000  0.5604460000000 1.0
C      1  0.4501130000000  0.4539050000000  0.4406540000000 1.0
C      1  0.4960400000000  0.4476070000000  0.4400370000000 1.0
END
