TITL C-2622958-629-59 -0.00135615490684357 125000 -492.037925760095 0 0 88 (C1) n - 1
REM
REM in /nfs/bkarasulu/CARBON/AIRSS/Generating-Clusters/AIREBO/with-SteepDescent/Higher-Symm/SD-CG/HFTN-CG
REM
REM
REM
REM
REM
REM ./C.cell (b20cbc046b6831c77cfcea5457e17084)
REM
REM compiler GCC version 9.2.1 20190827 (Red Hat 9.2.1-1)
REM options -cpp -mtune=generic -march=x86-64 -g -O0 -fpre-include=/usr/include/finclude/math-vector-fortran.h
REM seed 1761667945 188854932 1220171322 50246411 1411922581 -400068653 -1267335347 1814973796 298605900 674295724 -1543762162 -404048914 1231668824 -1197256996 -185869647 -1602720860 286508878 1570874475 793723439 -2109639444 -315479679 -972402772 -1014813065 -1307061579 -319393729 -431311920 -457764127 -326860263 -1773104249 1316468692 -924246551 -7060061 -792764752
REM
CELL 1.54180   50.00000   50.00000   50.00000   90.00000   90.00000   90.00000
LATT -1
SFAC C  
C      1  0.5180980000000  0.4538330000000  0.5642760000000 1.0
C      1  0.4513970000000  0.5611900000000  0.5236770000000 1.0
C      1  0.5757150000000  0.5320070000000  0.4544370000000 1.0
C      1  0.4687680000000  0.5473950000000  0.5639160000000 1.0
C      1  0.5331240000000  0.5457830000000  0.4382400000000 1.0
C      1  0.4697010000000  0.4566570000000  0.4410750000000 1.0
C      1  0.5373040000000  0.4370620000000  0.5243540000000 1.0
C      1  0.4566340000000  0.4341530000000  0.4795380000000 1.0
C      1  0.5520240000000  0.5680260000000  0.4752570000000 1.0
C      1  0.4277720000000  0.4692490000000  0.4646120000000 1.0
C      1  0.5523360000000  0.4812440000000  0.5383080000000 1.0
C      1  0.4309940000000  0.5260500000000  0.5468850000000 1.0
C      1  0.4555680000000  0.5225450000000  0.5611630000000 1.0
C      1  0.5550380000000  0.4607770000000  0.5203900000000 1.0
C      1  0.5430670000000  0.5706950000000  0.4483790000000 1.0
C      1  0.5316930000000  0.4777560000000  0.5599420000000 1.0
C      1  0.5524030000000  0.5246530000000  0.4392230000000 1.0
C      1  0.4462090000000  0.4736390000000  0.4404160000000 1.0
C      1  0.4369530000000  0.5364020000000  0.5207450000000 1.0
C      1  0.4297480000000  0.4442370000000  0.4787820000000 1.0
C      1  0.5680970000000  0.5429580000000  0.4798370000000 1.0
C      1  0.4655960000000  0.4310020000000  0.4528400000000 1.0
C      1  0.4523700000000  0.5682680000000  0.5520340000000 1.0
C      1  0.5293870000000  0.4316510000000  0.5505530000000 1.0
C      1  0.4771920000000  0.5652820000000  0.5122440000000 1.0
C      1  0.5484160000000  0.4981750000000  0.4797110000000 1.0
C      1  0.4985240000000  0.4917460000000  0.5341510000000 1.0
C      1  0.5205350000000  0.4556360000000  0.5011140000000 1.0
C      1  0.4783820000000  0.4497340000000  0.5006140000000 1.0
C      1  0.5319890000000  0.5508100000000  0.4947460000000 1.0
C      1  0.4491370000000  0.4898360000000  0.4765250000000 1.0
C      1  0.5530250000000  0.5122530000000  0.5290200000000 1.0
C      1  0.4515340000000  0.4979400000000  0.5275270000000 1.0
C      1  0.4946900000000  0.5483260000000  0.5535560000000 1.0
C      1  0.5096630000000  0.5366320000000  0.4516660000000 1.0
C      1  0.4949800000000  0.4691900000000  0.4550610000000 1.0
C      1  0.5497870000000  0.4680450000000  0.4912010000000 1.0
C      1  0.5060880000000  0.5467090000000  0.4776150000000 1.0
C      1  0.4726930000000  0.4978580000000  0.5514730000000 1.0
C      1  0.4424150000000  0.5134590000000  0.4986030000000 1.0
C      1  0.4567130000000  0.4758030000000  0.5033460000000 1.0
C      1  0.5497040000000  0.5219760000000  0.4993280000000 1.0
C      1  0.5031590000000  0.4480110000000  0.4762310000000 1.0
C      1  0.4986080000000  0.5618980000000  0.5296690000000 1.0
C      1  0.4980920000000  0.4724580000000  0.5164910000000 1.0
C      1  0.5236670000000  0.5076090000000  0.5458810000000 1.0
C      1  0.5395950000000  0.5021780000000  0.4504960000000 1.0
C      1  0.4727110000000  0.4934390000000  0.4567380000000 1.0
C      1  0.4302660000000  0.5558350000000  0.4709130000000 1.0
C      1  0.5423300000000  0.4812230000000  0.4165850000000 1.0
C      1  0.4735600000000  0.4332570000000  0.5539980000000 1.0
C      1  0.5648780000000  0.4435860000000  0.4597230000000 1.0
C      1  0.4228750000000  0.4391270000000  0.5269360000000 1.0
C      1  0.5785080000000  0.5537420000000  0.5290360000000 1.0
C      1  0.4588780000000  0.5124270000000  0.4237140000000 1.0
C      1  0.5417900000000  0.5322520000000  0.5873080000000 1.0
C      1  0.4469500000000  0.4653130000000  0.5794310000000 1.0
C      1  0.5394860000000  0.5837950000000  0.5504730000000 1.0
C      1  0.4776300000000  0.5665060000000  0.4473470000000 1.0
C      1  0.5128420000000  0.4291540000000  0.4286140000000 1.0
C      1  0.5466580000000  0.4249260000000  0.4640130000000 1.0
C      1  0.4831900000000  0.5439640000000  0.4227470000000 1.0
C      1  0.4254090000000  0.4559030000000  0.5558580000000 1.0
C      1  0.4528910000000  0.5698440000000  0.4685770000000 1.0
C      1  0.4421990000000  0.4207050000000  0.5210240000000 1.0
C      1  0.5592920000000  0.5726390000000  0.5260270000000 1.0
C      1  0.5091150000000  0.4594030000000  0.4151970000000 1.0
C      1  0.5263070000000  0.5618510000000  0.5736840000000 1.0
C      1  0.4903370000000  0.4540000000000  0.5665210000000 1.0
C      1  0.5717300000000  0.5339320000000  0.5743110000000 1.0
C      1  0.5671240000000  0.4661610000000  0.4343700000000 1.0
C      1  0.4362010000000  0.5132810000000  0.4468230000000 1.0
C      1  0.4809450000000  0.5626680000000  0.4832670000000 1.0
C      1  0.5193000000000  0.4281700000000  0.4582890000000 1.0
C      1  0.4724710000000  0.4758740000000  0.5723820000000 1.0
C      1  0.4693180000000  0.4294610000000  0.5260520000000 1.0
C      1  0.4309050000000  0.5278780000000  0.4723860000000 1.0
C      1  0.5137110000000  0.4878840000000  0.4337120000000 1.0
C      1  0.5266270000000  0.5671150000000  0.5212290000000 1.0
C      1  0.5704280000000  0.4760230000000  0.4663060000000 1.0
C      1  0.4332860000000  0.4702780000000  0.5269340000000 1.0
C      1  0.5741850000000  0.5292050000000  0.5431980000000 1.0
C      1  0.4906570000000  0.5133300000000  0.4357940000000 1.0
C      1  0.5176520000000  0.5304380000000  0.5639570000000 1.0
C      1  0.4480390000000  0.4347760000000  0.5691670000000 1.0
C      1  0.5379340000000  0.4507660000000  0.4310500000000 1.0
C      1  0.4605270000000  0.5370340000000  0.4471290000000 1.0
C      1  0.5567760000000  0.5586970000000  0.5631860000000 1.0
END
