TITL C-2622968-4806-567 8.92789585034088e-05 125000 -363.507771251982 0 0 72 (C1) n - 1
REM
REM in /nfs/bkarasulu/CARBON/AIRSS/Generating-Clusters/AIREBO/with-SteepDescent/Higher-Symm/SD-CG/HFTN-CG
REM
REM
REM
REM
REM
REM ./C.cell (b20cbc046b6831c77cfcea5457e17084)
REM
REM compiler GCC version 9.2.1 20190827 (Red Hat 9.2.1-1)
REM options -cpp -mtune=generic -march=x86-64 -g -O0 -fpre-include=/usr/include/finclude/math-vector-fortran.h
REM seed 568362473 -1661335498 1141354917 -1827334301 -1445931206 1838661991 2118694941 -2087293799 1656079027 -1995151048 259883290 -1461720331 1641719882 1470733675 2052185628 -73107965 -410159620 872938331 253153925 -805092444 -1261909139 699574522 886275744 -244559092 1082484135 -1093534505 -1822254781 1885626493 436236466 1503435159 220010952 -1435759309 -121757524
REM
CELL 1.54180   50.00000   50.00000   50.00000   90.00000   90.00000   90.00000
LATT -1
SFAC C  
C      1  0.5703130000000  0.5510320000000  0.5184730000000 1.0
C      1  0.5470230000000  0.5094330000000  0.5618520000000 1.0
C      1  0.5731970000000  0.4412720000000  0.5121790000000 1.0
C      1  0.5446460000000  0.4594540000000  0.4604530000000 1.0
C      1  0.5621090000000  0.5197180000000  0.4443030000000 1.0
C      1  0.4391190000000  0.5805850000000  0.5211780000000 1.0
C      1  0.4536040000000  0.5010420000000  0.5620570000000 1.0
C      1  0.4387130000000  0.4457720000000  0.5269760000000 1.0
C      1  0.4309140000000  0.4592650000000  0.4742020000000 1.0
C      1  0.4451500000000  0.5463490000000  0.4301700000000 1.0
C      1  0.5017810000000  0.4596170000000  0.4319460000000 1.0
C      1  0.5213450000000  0.5555380000000  0.4436780000000 1.0
C      1  0.5154730000000  0.5712320000000  0.5255180000000 1.0
C      1  0.5162830000000  0.4814890000000  0.5863210000000 1.0
C      1  0.5218630000000  0.4299140000000  0.5069460000000 1.0
C      1  0.4774060000000  0.4632490000000  0.4370560000000 1.0
C      1  0.4961300000000  0.5530990000000  0.4430520000000 1.0
C      1  0.4905820000000  0.5733000000000  0.5247940000000 1.0
C      1  0.4891060000000  0.4778040000000  0.5855890000000 1.0
C      1  0.4979060000000  0.4233710000000  0.5101570000000 1.0
C      1  0.4977790000000  0.4151030000000  0.4618430000000 1.0
C      1  0.4759430000000  0.5094140000000  0.4114660000000 1.0
C      1  0.4843870000000  0.5786640000000  0.4772620000000 1.0
C      1  0.4821680000000  0.5390300000000  0.5605540000000 1.0
C      1  0.4928540000000  0.4359320000000  0.5588060000000 1.0
C      1  0.5248870000000  0.4146410000000  0.4616080000000 1.0
C      1  0.5032070000000  0.5111200000000  0.4139670000000 1.0
C      1  0.5121790000000  0.5764050000000  0.4793220000000 1.0
C      1  0.5090570000000  0.5416860000000  0.5671330000000 1.0
C      1  0.5186060000000  0.4382110000000  0.5595530000000 1.0
C      1  0.5108610000000  0.4739640000000  0.5050480000000 1.0
C      1  0.5114260000000  0.4862810000000  0.4742760000000 1.0
C      1  0.5214950000000  0.5229250000000  0.4864490000000 1.0
C      1  0.5173460000000  0.5182440000000  0.5199940000000 1.0
C      1  0.5130510000000  0.4873970000000  0.5330090000000 1.0
C      1  0.4791810000000  0.4780490000000  0.4961660000000 1.0
C      1  0.4833370000000  0.5022110000000  0.4762360000000 1.0
C      1  0.4906780000000  0.5285770000000  0.4921570000000 1.0
C      1  0.4843390000000  0.5120810000000  0.5206790000000 1.0
C      1  0.4796210000000  0.4814320000000  0.5284780000000 1.0
C      1  0.4696750000000  0.5436140000000  0.4520950000000 1.0
C      1  0.4630160000000  0.5630840000000  0.5152200000000 1.0
C      1  0.4670640000000  0.4770190000000  0.5681220000000 1.0
C      1  0.4719930000000  0.4368360000000  0.5140020000000 1.0
C      1  0.4583310000000  0.4740250000000  0.4592380000000 1.0
C      1  0.5474720000000  0.5437370000000  0.4575390000000 1.0
C      1  0.5379060000000  0.5518810000000  0.5263760000000 1.0
C      1  0.5377780000000  0.4846660000000  0.5681970000000 1.0
C      1  0.5446780000000  0.4522650000000  0.5120820000000 1.0
C      1  0.5270570000000  0.4747000000000  0.4414200000000 1.0
C      1  0.5501340000000  0.5393160000000  0.4937320000000 1.0
C      1  0.5294920000000  0.5304170000000  0.5476550000000 1.0
C      1  0.5353970000000  0.4635990000000  0.5417660000000 1.0
C      1  0.5408010000000  0.4758790000000  0.4879170000000 1.0
C      1  0.5363690000000  0.5054350000000  0.4613460000000 1.0
C      1  0.4669830000000  0.5504400000000  0.4841070000000 1.0
C      1  0.4576340000000  0.5304410000000  0.5173560000000 1.0
C      1  0.4675460000000  0.4542100000000  0.5429060000000 1.0
C      1  0.4623010000000  0.4530920000000  0.4857520000000 1.0
C      1  0.4575130000000  0.5080020000000  0.4586020000000 1.0
C      1  0.5224190000000  0.5034330000000  0.4303920000000 1.0
C      1  0.5368520000000  0.5668170000000  0.4787560000000 1.0
C      1  0.5179260000000  0.5551330000000  0.5893330000000 1.0
C      1  0.5509490000000  0.4405940000000  0.5614100000000 1.0
C      1  0.5452000000000  0.4325700000000  0.4583400000000 1.0
C      1  0.4548710000000  0.5172160000000  0.4291700000000 1.0
C      1  0.4703430000000  0.6017700000000  0.4728470000000 1.0
C      1  0.4602590000000  0.5252420000000  0.5495740000000 1.0
C      1  0.4617100000000  0.4297460000000  0.5658100000000 1.0
C      1  0.4757910000000  0.4298560000000  0.4661330000000 1.0
C      1  0.5573920000000  0.5056500000000  0.4880840000000 1.0
C      1  0.4455540000000  0.5238170000000  0.4862700000000 1.0
END
