TITL C-2622968-4806-676 0.000755962326311286 125000 -810.931178729771 0 0 149 (C1) n - 1
REM
REM in /nfs/bkarasulu/CARBON/AIRSS/Generating-Clusters/AIREBO/with-SteepDescent/Higher-Symm/SD-CG/HFTN-CG
REM
REM
REM
REM
REM
REM ./C.cell (b20cbc046b6831c77cfcea5457e17084)
REM
REM compiler GCC version 9.2.1 20190827 (Red Hat 9.2.1-1)
REM options -cpp -mtune=generic -march=x86-64 -g -O0 -fpre-include=/usr/include/finclude/math-vector-fortran.h
REM seed 771988954 -253754576 -1047565576 453210567 87132371 1826666411 935312039 -117316497 -1648062575 95698330 -599001454 1277858268 1295917372 -2083982142 -630263635 637012578 -671070589 615521566 -1466412325 -1372534210 290339701 -193309192 260220522 796835709 -452606712 1619266652 299641887 1202008263 -687311969 2049386584 -693251576 -772607592 -2102139624
REM
CELL 1.54180   50.00000   50.00000   50.00000   90.00000   90.00000   90.00000
LATT -1
SFAC C  
C      1  0.5415010000000  0.5132220000000  0.4815890000000 1.0
C      1  0.4663400000000  0.5293790000000  0.4700120000000 1.0
C      1  0.4888080000000  0.4640700000000  0.4752950000000 1.0
C      1  0.4400500000000  0.5143080000000  0.5812670000000 1.0
C      1  0.5148930000000  0.4299000000000  0.5753660000000 1.0
C      1  0.5418540000000  0.5530070000000  0.5801910000000 1.0
C      1  0.4099600000000  0.4725650000000  0.4725940000000 1.0
C      1  0.5751970000000  0.4424170000000  0.4681340000000 1.0
C      1  0.5137590000000  0.5901090000000  0.4747640000000 1.0
C      1  0.3983280000000  0.4882990000000  0.5476440000000 1.0
C      1  0.5589160000000  0.4252830000000  0.5419540000000 1.0
C      1  0.5375850000000  0.5926170000000  0.5374580000000 1.0
C      1  0.4498830000000  0.4552440000000  0.5616430000000 1.0
C      1  0.5585000000000  0.4795110000000  0.5699180000000 1.0
C      1  0.4923680000000  0.5674100000000  0.5582800000000 1.0
C      1  0.5597930000000  0.4304150000000  0.4898300000000 1.0
C      1  0.5334460000000  0.5954780000000  0.4981400000000 1.0
C      1  0.4031690000000  0.4880780000000  0.4962890000000 1.0
C      1  0.5905300000000  0.5321770000000  0.5164660000000 1.0
C      1  0.4224250000000  0.5514070000000  0.5244630000000 1.0
C      1  0.4798270000000  0.4013100000000  0.5060970000000 1.0
C      1  0.4513400000000  0.5369640000000  0.5337270000000 1.0
C      1  0.4879150000000  0.4224450000000  0.5298370000000 1.0
C      1  0.5652300000000  0.5323680000000  0.5391810000000 1.0
C      1  0.5291320000000  0.4479650000000  0.4397330000000 1.0
C      1  0.5294020000000  0.5385000000000  0.4622470000000 1.0
C      1  0.4401130000000  0.5146510000000  0.4540860000000 1.0
C      1  0.5594350000000  0.5843320000000  0.5170390000000 1.0
C      1  0.3926660000000  0.5041910000000  0.5231790000000 1.0
C      1  0.5441770000000  0.4141380000000  0.5152740000000 1.0
C      1  0.5155460000000  0.4074250000000  0.4622500000000 1.0
C      1  0.5706180000000  0.5685410000000  0.4646830000000 1.0
C      1  0.4081120000000  0.5353390000000  0.4658340000000 1.0
C      1  0.4513130000000  0.4188780000000  0.5138770000000 1.0
C      1  0.5985350000000  0.5061760000000  0.5107610000000 1.0
C      1  0.4458250000000  0.5709590000000  0.5093870000000 1.0
C      1  0.5559160000000  0.5490500000000  0.4470510000000 1.0
C      1  0.4196340000000  0.5343600000000  0.4354220000000 1.0
C      1  0.5102840000000  0.4272340000000  0.4418860000000 1.0
C      1  0.4523590000000  0.4495230000000  0.4824800000000 1.0
C      1  0.5706280000000  0.4847390000000  0.4682170000000 1.0
C      1  0.4840460000000  0.5637460000000  0.4600260000000 1.0
C      1  0.5250740000000  0.4811100000000  0.4469970000000 1.0
C      1  0.4980900000000  0.5258250000000  0.4583530000000 1.0
C      1  0.4741280000000  0.4799410000000  0.4490280000000 1.0
C      1  0.4875310000000  0.5535370000000  0.5276110000000 1.0
C      1  0.4497930000000  0.4563840000000  0.5276480000000 1.0
C      1  0.5491360000000  0.4841060000000  0.5238640000000 1.0
C      1  0.4928930000000  0.5156210000000  0.5162930000000 1.0
C      1  0.4940060000000  0.4752240000000  0.5266580000000 1.0
C      1  0.5188120000000  0.4982690000000  0.5298520000000 1.0
C      1  0.5573490000000  0.5369410000000  0.4951560000000 1.0
C      1  0.4476620000000  0.5438060000000  0.4945020000000 1.0
C      1  0.4996130000000  0.4360910000000  0.4848670000000 1.0
C      1  0.5172780000000  0.5438760000000  0.5020720000000 1.0
C      1  0.4514420000000  0.4942100000000  0.5042020000000 1.0
C      1  0.5240290000000  0.4642550000000  0.5008070000000 1.0
C      1  0.4824950000000  0.4473070000000  0.5605970000000 1.0
C      1  0.5477830000000  0.5085200000000  0.5553230000000 1.0
C      1  0.4696120000000  0.5281340000000  0.5585490000000 1.0
C      1  0.4313860000000  0.4755490000000  0.5770100000000 1.0
C      1  0.5620260000000  0.4489080000000  0.5663990000000 1.0
C      1  0.5105550000000  0.5771270000000  0.5744750000000 1.0
C      1  0.5093440000000  0.5144020000000  0.4870820000000 1.0
C      1  0.4677100000000  0.4977620000000  0.4772750000000 1.0
C      1  0.5127840000000  0.4829270000000  0.4763570000000 1.0
C      1  0.4697730000000  0.4620840000000  0.4035820000000 1.0
C      1  0.5491010000000  0.4912750000000  0.4167680000000 1.0
C      1  0.4958180000000  0.5461860000000  0.4091950000000 1.0
C      1  0.4174510000000  0.4996170000000  0.5638400000000 1.0
C      1  0.5435900000000  0.4231020000000  0.5713080000000 1.0
C      1  0.5377080000000  0.5825660000000  0.5638640000000 1.0
C      1  0.5821800000000  0.5418000000000  0.4760750000000 1.0
C      1  0.4327880000000  0.5509590000000  0.4689790000000 1.0
C      1  0.4849750000000  0.4073370000000  0.4741290000000 1.0
C      1  0.5495490000000  0.4847420000000  0.4915000000000 1.0
C      1  0.4871870000000  0.5475820000000  0.4898070000000 1.0
C      1  0.4701960000000  0.4676860000000  0.5035210000000 1.0
C      1  0.4810210000000  0.4799710000000  0.5577220000000 1.0
C      1  0.5206610000000  0.4893540000000  0.5626180000000 1.0
C      1  0.4984610000000  0.5279630000000  0.5470710000000 1.0
C      1  0.5350360000000  0.4556460000000  0.5318760000000 1.0
C      1  0.5206620000000  0.5571710000000  0.5320120000000 1.0
C      1  0.4396320000000  0.4877020000000  0.5329710000000 1.0
C      1  0.6050980000000  0.4969600000000  0.4831490000000 1.0
C      1  0.4594570000000  0.5924440000000  0.4545650000000 1.0
C      1  0.4343120000000  0.4173490000000  0.4844650000000 1.0
C      1  0.4693080000000  0.4317020000000  0.4036830000000 1.0
C      1  0.5664010000000  0.5136750000000  0.4140820000000 1.0
C      1  0.4699520000000  0.5460700000000  0.4009950000000 1.0
C      1  0.4313170000000  0.4697690000000  0.4321860000000 1.0
C      1  0.5743030000000  0.4291390000000  0.4194840000000 1.0
C      1  0.5283470000000  0.5847380000000  0.4244610000000 1.0
C      1  0.5385210000000  0.5241010000000  0.5197900000000 1.0
C      1  0.4643530000000  0.5211590000000  0.5101000000000 1.0
C      1  0.5004950000000  0.4450500000000  0.5161500000000 1.0
C      1  0.5724940000000  0.5606480000000  0.5119470000000 1.0
C      1  0.3995140000000  0.5342340000000  0.5163410000000 1.0
C      1  0.5131570000000  0.4099960000000  0.5019620000000 1.0
C      1  0.4586660000000  0.4537520000000  0.4346220000000 1.0
C      1  0.5582320000000  0.4750680000000  0.4425140000000 1.0
C      1  0.5011910000000  0.5651820000000  0.4306910000000 1.0
C      1  0.5602130000000  0.5909640000000  0.4777200000000 1.0
C      1  0.3995090000000  0.5209700000000  0.4880350000000 1.0
C      1  0.5403030000000  0.4031450000000  0.4830210000000 1.0
C      1  0.5006180000000  0.4491190000000  0.5961540000000 1.0
C      1  0.5461180000000  0.5263840000000  0.5985570000000 1.0
C      1  0.4702090000000  0.5245490000000  0.5909740000000 1.0
C      1  0.5669340000000  0.5558360000000  0.5598500000000 1.0
C      1  0.4368580000000  0.5477210000000  0.5757180000000 1.0
C      1  0.4900850000000  0.4141850000000  0.5616420000000 1.0
C      1  0.4512800000000  0.5364560000000  0.4231290000000 1.0
C      1  0.4799150000000  0.4271870000000  0.4354800000000 1.0
C      1  0.5727610000000  0.5287910000000  0.4372300000000 1.0
C      1  0.4714380000000  0.4895920000000  0.4023310000000 1.0
C      1  0.5235680000000  0.4846980000000  0.4072210000000 1.0
C      1  0.5082920000000  0.5213590000000  0.4110310000000 1.0
C      1  0.4908080000000  0.5170730000000  0.6058210000000 1.0
C      1  0.4938430000000  0.4740280000000  0.5879820000000 1.0
C      1  0.5376990000000  0.4958870000000  0.5913190000000 1.0
C      1  0.4830540000000  0.5921190000000  0.4790470000000 1.0
C      1  0.4206730000000  0.4478630000000  0.4782010000000 1.0
C      1  0.5958350000000  0.4645290000000  0.4788510000000 1.0
C      1  0.5231720000000  0.5704030000000  0.4548540000000 1.0
C      1  0.4236050000000  0.4859920000000  0.4526270000000 1.0
C      1  0.5620050000000  0.4432040000000  0.4397860000000 1.0
C      1  0.4235610000000  0.4373640000000  0.5210560000000 1.0
C      1  0.5849540000000  0.4747090000000  0.5094370000000 1.0
C      1  0.4761790000000  0.5863650000000  0.5087080000000 1.0
C      1  0.5879640000000  0.5091450000000  0.5491900000000 1.0
C      1  0.4405650000000  0.5642560000000  0.5502100000000 1.0
C      1  0.4613420000000  0.4076650000000  0.5443720000000 1.0
C      1  0.4993620000000  0.4753020000000  0.4270120000000 1.0
C      1  0.5151130000000  0.5118540000000  0.4363970000000 1.0
C      1  0.4600600000000  0.5037590000000  0.4292280000000 1.0
C      1  0.4567040000000  0.4982420000000  0.5563070000000 1.0
C      1  0.5145530000000  0.4581040000000  0.5563600000000 1.0
C      1  0.5278510000000  0.5356830000000  0.5564390000000 1.0
C      1  0.5087660000000  0.5867750000000  0.5202540000000 1.0
C      1  0.4125260000000  0.4694700000000  0.5232080000000 1.0
C      1  0.5649720000000  0.4481600000000  0.5175820000000 1.0
C      1  0.4371440000000  0.4267700000000  0.5503690000000 1.0
C      1  0.5765740000000  0.4831600000000  0.5413280000000 1.0
C      1  0.4680850000000  0.5783780000000  0.5407730000000 1.0
C      1  0.4525410000000  0.5598390000000  0.4478290000000 1.0
C      1  0.4602290000000  0.4245840000000  0.4626390000000 1.0
C      1  0.5875170000000  0.5130370000000  0.4609530000000 1.0
C      1  0.5070450000000  0.4952970000000  0.5996370000000 1.0
C      1  0.4971550000000  0.4990510000000  0.3943850000000 1.0
END
