TITL C-2622963-3633-522 -0.0026872143960641 125000 -389.12114767446 0 0 73 (C1) n - 1
REM
REM in /nfs/bkarasulu/CARBON/AIRSS/Generating-Clusters/AIREBO/with-SteepDescent/Higher-Symm/SD-CG/HFTN-CG
REM
REM
REM
REM
REM
REM ./C.cell (b20cbc046b6831c77cfcea5457e17084)
REM
REM compiler GCC version 9.2.1 20190827 (Red Hat 9.2.1-1)
REM options -cpp -mtune=generic -march=x86-64 -g -O0 -fpre-include=/usr/include/finclude/math-vector-fortran.h
REM seed 1112601270 -1500864694 -1499075165 139273611 -847577399 1183593372 120311901 -1055854253 -1072937505 2143567799 1229421520 32444225 -308742082 717303828 1899890818 1546424968 1167950128 1692655665 1788191420 -609494199 1045993779 -1780664368 -895832307 366506484 1039551099 -408675037 -1605197174 -60730960 -1563104176 994210963 989248252 626776987 300932185
REM
CELL 1.54180   50.00000   50.00000   50.00000   90.00000   90.00000   90.00000
LATT -1
SFAC C  
C      1  0.5295000000000  0.5321810000000  0.5313380000000 1.0
C      1  0.5297350000000  0.4630740000000  0.5402210000000 1.0
C      1  0.5302330000000  0.4648670000000  0.4696170000000 1.0
C      1  0.5419020000000  0.5372040000000  0.4712020000000 1.0
C      1  0.4568390000000  0.5613390000000  0.4989360000000 1.0
C      1  0.4249260000000  0.4938740000000  0.5497110000000 1.0
C      1  0.4499540000000  0.4307590000000  0.4966540000000 1.0
C      1  0.4475430000000  0.5051990000000  0.4476160000000 1.0
C      1  0.5503820000000  0.4423680000000  0.4957300000000 1.0
C      1  0.5511770000000  0.5066580000000  0.4474470000000 1.0
C      1  0.5455890000000  0.5607020000000  0.5084580000000 1.0
C      1  0.5560330000000  0.4922070000000  0.5464630000000 1.0
C      1  0.4898300000000  0.4752030000000  0.4355480000000 1.0
C      1  0.5014770000000  0.5634610000000  0.4736180000000 1.0
C      1  0.4875910000000  0.5383600000000  0.5686090000000 1.0
C      1  0.4974030000000  0.4308830000000  0.5230970000000 1.0
C      1  0.5096260000000  0.5097600000000  0.5152620000000 1.0
C      1  0.5071820000000  0.4777610000000  0.5040170000000 1.0
C      1  0.5143530000000  0.4938900000000  0.4774840000000 1.0
C      1  0.5128910000000  0.5266690000000  0.4854810000000 1.0
C      1  0.4292600000000  0.4869830000000  0.5202860000000 1.0
C      1  0.4345760000000  0.4807460000000  0.4875010000000 1.0
C      1  0.4423600000000  0.5157980000000  0.4795650000000 1.0
C      1  0.4500530000000  0.5103510000000  0.5091730000000 1.0
C      1  0.5189530000000  0.4490460000000  0.5044550000000 1.0
C      1  0.5125010000000  0.4924190000000  0.4471290000000 1.0
C      1  0.5137770000000  0.5559680000000  0.5025930000000 1.0
C      1  0.5155130000000  0.4903960000000  0.5416480000000 1.0
C      1  0.5112030000000  0.5443330000000  0.5572930000000 1.0
C      1  0.5228270000000  0.4356050000000  0.5418960000000 1.0
C      1  0.5119380000000  0.4514940000000  0.4442700000000 1.0
C      1  0.5249950000000  0.5613530000000  0.4542500000000 1.0
C      1  0.5443510000000  0.4611790000000  0.4407180000000 1.0
C      1  0.5508390000000  0.5738430000000  0.4580850000000 1.0
C      1  0.5422020000000  0.5469050000000  0.5594510000000 1.0
C      1  0.5473670000000  0.4207430000000  0.5398900000000 1.0
C      1  0.5538250000000  0.5070320000000  0.4813790000000 1.0
C      1  0.5540330000000  0.5280070000000  0.5081670000000 1.0
C      1  0.5578260000000  0.4680830000000  0.5250710000000 1.0
C      1  0.5503770000000  0.4762570000000  0.4928160000000 1.0
C      1  0.4810650000000  0.4496310000000  0.4565470000000 1.0
C      1  0.4843600000000  0.5366100000000  0.4691970000000 1.0
C      1  0.4614400000000  0.5409660000000  0.5519080000000 1.0
C      1  0.4890890000000  0.4627320000000  0.5269570000000 1.0
C      1  0.4401030000000  0.5519440000000  0.5673470000000 1.0
C      1  0.4572940000000  0.4626240000000  0.5345290000000 1.0
C      1  0.4504340000000  0.4567340000000  0.4482780000000 1.0
C      1  0.4399130000000  0.5575680000000  0.4531220000000 1.0
C      1  0.4535100000000  0.5091090000000  0.5430150000000 1.0
C      1  0.4418410000000  0.4568880000000  0.5082220000000 1.0
C      1  0.4371200000000  0.4784630000000  0.4586080000000 1.0
C      1  0.4529940000000  0.5441840000000  0.4740530000000 1.0
C      1  0.4813970000000  0.5780480000000  0.4946760000000 1.0
C      1  0.4891930000000  0.5172160000000  0.5856840000000 1.0
C      1  0.4785990000000  0.4152940000000  0.5052440000000 1.0
C      1  0.4709580000000  0.4964490000000  0.4249120000000 1.0
C      1  0.5337830000000  0.4896510000000  0.5694320000000 1.0
C      1  0.5253150000000  0.4211510000000  0.4867680000000 1.0
C      1  0.5253960000000  0.5158550000000  0.4330960000000 1.0
C      1  0.5228580000000  0.5822170000000  0.5220150000000 1.0
C      1  0.4739920000000  0.4253320000000  0.4730870000000 1.0
C      1  0.4742980000000  0.5250800000000  0.4431100000000 1.0
C      1  0.4688920000000  0.5606020000000  0.5281450000000 1.0
C      1  0.4767890000000  0.4852450000000  0.5493520000000 1.0
C      1  0.5602810000000  0.4823220000000  0.4352220000000 1.0
C      1  0.5632970000000  0.5624890000000  0.4816710000000 1.0
C      1  0.5654740000000  0.5153680000000  0.5358760000000 1.0
C      1  0.5650630000000  0.4349760000000  0.5234220000000 1.0
C      1  0.4995490000000  0.4926590000000  0.5710300000000 1.0
C      1  0.5015610000000  0.4071680000000  0.4815210000000 1.0
C      1  0.4976710000000  0.5185080000000  0.4208390000000 1.0
C      1  0.4926560000000  0.5833790000000  0.5223870000000 1.0
C      1  0.4793140000000  0.5107090000000  0.5128030000000 1.0
END
