TITL C-2622956-4641-125 -0.00364981300085807 125000 -1008.23881867018 0 0 187 (C1) n - 1
REM
REM in /nfs/bkarasulu/CARBON/AIRSS/Generating-Clusters/AIREBO/with-SteepDescent/Higher-Symm/SD-CG/HFTN-CG
REM
REM
REM
REM
REM
REM ./C.cell (b20cbc046b6831c77cfcea5457e17084)
REM
REM compiler GCC version 9.2.1 20190827 (Red Hat 9.2.1-1)
REM options -cpp -mtune=generic -march=x86-64 -g -O0 -fpre-include=/usr/include/finclude/math-vector-fortran.h
REM seed 908145129 -1261048902 129073932 1611642367 -1378282886 835234838 202553233 1146228703 612743266 679040537 -1888283889 -775984653 -937715846 -2099048771 986940711 1311892355 -2102743688 361910820 503937280 1159599640 -681414227 1848987668 -709680333 -121991830 -289449258 -2078865976 -2137150825 -1074358399 1027344960 1368228493 898305161 179337252 862187543
REM
CELL 1.54180   50.00000   50.00000   50.00000   90.00000   90.00000   90.00000
LATT -1
SFAC C  
C      1  0.4005750000000  0.5500560000000  0.4589360000000 1.0
C      1  0.6041450000000  0.4708420000000  0.5458420000000 1.0
C      1  0.5014570000000  0.4915700000000  0.3920340000000 1.0
C      1  0.5022370000000  0.5021610000000  0.6185470000000 1.0
C      1  0.4114710000000  0.5522840000000  0.5336120000000 1.0
C      1  0.5865360000000  0.4594700000000  0.4660080000000 1.0
C      1  0.4307440000000  0.4944280000000  0.5725540000000 1.0
C      1  0.5716550000000  0.5075460000000  0.4266980000000 1.0
C      1  0.4907680000000  0.4278690000000  0.5279140000000 1.0
C      1  0.5021480000000  0.5698860000000  0.4648600000000 1.0
C      1  0.5717940000000  0.5713570000000  0.5324800000000 1.0
C      1  0.4314740000000  0.4241060000000  0.4751520000000 1.0
C      1  0.5980310000000  0.5425990000000  0.5235630000000 1.0
C      1  0.3939120000000  0.4502810000000  0.4796310000000 1.0
C      1  0.4558780000000  0.4806610000000  0.6003590000000 1.0
C      1  0.5473380000000  0.5235440000000  0.3873390000000 1.0
C      1  0.3837270000000  0.5351760000000  0.4797600000000 1.0
C      1  0.6199380000000  0.4841580000000  0.5267590000000 1.0
C      1  0.5396300000000  0.5183080000000  0.5104220000000 1.0
C      1  0.4551820000000  0.4775770000000  0.4844070000000 1.0
C      1  0.5467860000000  0.3876210000000  0.4899680000000 1.0
C      1  0.4686090000000  0.6009770000000  0.5053600000000 1.0
C      1  0.5341600000000  0.4948370000000  0.5780190000000 1.0
C      1  0.4715160000000  0.5027830000000  0.4162560000000 1.0
C      1  0.4536920000000  0.4320820000000  0.5419370000000 1.0
C      1  0.5424800000000  0.5655370000000  0.4674290000000 1.0
C      1  0.4255580000000  0.5031370000000  0.4126060000000 1.0
C      1  0.5765420000000  0.4894360000000  0.5867000000000 1.0
C      1  0.4304400000000  0.5316970000000  0.4174300000000 1.0
C      1  0.5820810000000  0.4656860000000  0.5688780000000 1.0
C      1  0.4564760000000  0.4381370000000  0.4698730000000 1.0
C      1  0.5412010000000  0.5648470000000  0.5340420000000 1.0
C      1  0.5297420000000  0.5913130000000  0.5124170000000 1.0
C      1  0.4712270000000  0.4021900000000  0.4928720000000 1.0
C      1  0.5108620000000  0.5453880000000  0.5111120000000 1.0
C      1  0.4887880000000  0.4459550000000  0.4735020000000 1.0
C      1  0.5172990000000  0.5174150000000  0.5925980000000 1.0
C      1  0.4793820000000  0.4697150000000  0.4171280000000 1.0
C      1  0.4298300000000  0.5549070000000  0.4422850000000 1.0
C      1  0.5623690000000  0.4451100000000  0.5609510000000 1.0
C      1  0.4796820000000  0.5038610000000  0.5931550000000 1.0
C      1  0.5246490000000  0.4876030000000  0.4172210000000 1.0
C      1  0.5487310000000  0.4801600000000  0.5030740000000 1.0
C      1  0.4468000000000  0.5190610000000  0.4953320000000 1.0
C      1  0.5530130000000  0.5756520000000  0.4975450000000 1.0
C      1  0.4559060000000  0.4272730000000  0.5083510000000 1.0
C      1  0.4939210000000  0.5188980000000  0.3873470000000 1.0
C      1  0.5059960000000  0.4715880000000  0.6203580000000 1.0
C      1  0.4824590000000  0.4958160000000  0.4464880000000 1.0
C      1  0.5136270000000  0.5074830000000  0.5540420000000 1.0
C      1  0.5633990000000  0.5031100000000  0.4655290000000 1.0
C      1  0.4319960000000  0.5054580000000  0.5342050000000 1.0
C      1  0.5188380000000  0.5576730000000  0.4893970000000 1.0
C      1  0.4832990000000  0.4468340000000  0.5034840000000 1.0
C      1  0.5283910000000  0.4468920000000  0.4683330000000 1.0
C      1  0.4769260000000  0.5371510000000  0.5298020000000 1.0
C      1  0.5155220000000  0.4361270000000  0.5790890000000 1.0
C      1  0.4844630000000  0.5630040000000  0.4159330000000 1.0
C      1  0.5533450000000  0.5039440000000  0.6033100000000 1.0
C      1  0.4476820000000  0.4894420000000  0.3992140000000 1.0
C      1  0.4429600000000  0.4773970000000  0.5260390000000 1.0
C      1  0.5549860000000  0.5346880000000  0.4749800000000 1.0
C      1  0.5969440000000  0.5083370000000  0.4687700000000 1.0
C      1  0.3980040000000  0.5069260000000  0.5342850000000 1.0
C      1  0.4671130000000  0.5961080000000  0.4529280000000 1.0
C      1  0.5330230000000  0.4095910000000  0.5405860000000 1.0
C      1  0.5399870000000  0.5949270000000  0.4386760000000 1.0
C      1  0.4682980000000  0.3858310000000  0.5635700000000 1.0
C      1  0.5714120000000  0.4980660000000  0.4971200000000 1.0
C      1  0.4206520000000  0.5052710000000  0.5021510000000 1.0
C      1  0.4201360000000  0.5770430000000  0.4741210000000 1.0
C      1  0.5763090000000  0.4342290000000  0.5139210000000 1.0
C      1  0.4549140000000  0.5460380000000  0.5091250000000 1.0
C      1  0.5478450000000  0.4526400000000  0.4916440000000 1.0
C      1  0.4369900000000  0.5163730000000  0.4566660000000 1.0
C      1  0.5563870000000  0.4803500000000  0.5420410000000 1.0
C      1  0.5477200000000  0.5579340000000  0.4196930000000 1.0
C      1  0.4516870000000  0.4384050000000  0.5748000000000 1.0
C      1  0.4713920000000  0.4272990000000  0.4426990000000 1.0
C      1  0.5220910000000  0.5713710000000  0.5712700000000 1.0
C      1  0.4012650000000  0.4424710000000  0.5119200000000 1.0
C      1  0.6030330000000  0.5536840000000  0.4953790000000 1.0
C      1  0.4720150000000  0.4837780000000  0.5135960000000 1.0
C      1  0.5283110000000  0.5145920000000  0.4808710000000 1.0
C      1  0.4640250000000  0.5358830000000  0.4141770000000 1.0
C      1  0.5334870000000  0.4649710000000  0.5802260000000 1.0
C      1  0.4129300000000  0.5453460000000  0.5614510000000 1.0
C      1  0.5856000000000  0.4548090000000  0.4330050000000 1.0
C      1  0.4947230000000  0.4840940000000  0.5699300000000 1.0
C      1  0.5075490000000  0.5121680000000  0.4303900000000 1.0
C      1  0.5576290000000  0.5341360000000  0.4410780000000 1.0
C      1  0.4464740000000  0.4677650000000  0.5584580000000 1.0
C      1  0.4564590000000  0.5236750000000  0.5493650000000 1.0
C      1  0.5450650000000  0.4836810000000  0.4441560000000 1.0
C      1  0.5781930000000  0.4634210000000  0.5291840000000 1.0
C      1  0.4242820000000  0.5375800000000  0.4790690000000 1.0
C      1  0.5057430000000  0.5378140000000  0.4081420000000 1.0
C      1  0.4957940000000  0.4588060000000  0.5916570000000 1.0
C      1  0.4859600000000  0.5238420000000  0.5663650000000 1.0
C      1  0.5053480000000  0.4656260000000  0.4339070000000 1.0
C      1  0.5528110000000  0.5013970000000  0.4046760000000 1.0
C      1  0.4470430000000  0.5133710000000  0.5939950000000 1.0
C      1  0.4943230000000  0.5441700000000  0.4498120000000 1.0
C      1  0.4993700000000  0.4522690000000  0.5462760000000 1.0
C      1  0.4413160000000  0.5846910000000  0.4540090000000 1.0
C      1  0.5566620000000  0.4252270000000  0.5383500000000 1.0
C      1  0.4902410000000  0.5253700000000  0.4756600000000 1.0
C      1  0.5040210000000  0.4724010000000  0.5120710000000 1.0
C      1  0.5782800000000  0.5192020000000  0.5197600000000 1.0
C      1  0.4124110000000  0.4751150000000  0.4915850000000 1.0
C      1  0.4826050000000  0.5698610000000  0.5248700000000 1.0
C      1  0.5213440000000  0.4150760000000  0.4761130000000 1.0
C      1  0.5708030000000  0.4333730000000  0.4812640000000 1.0
C      1  0.4385050000000  0.5655380000000  0.5250710000000 1.0
C      1  0.4574700000000  0.5901460000000  0.5356040000000 1.0
C      1  0.5538200000000  0.4104080000000  0.4695510000000 1.0
C      1  0.4233360000000  0.4186890000000  0.5036460000000 1.0
C      1  0.5844950000000  0.5755240000000  0.5053600000000 1.0
C      1  0.4707270000000  0.4428340000000  0.4000020000000 1.0
C      1  0.5272610000000  0.5474940000000  0.6028220000000 1.0
C      1  0.5312000000000  0.5202340000000  0.6230640000000 1.0
C      1  0.4738800000000  0.4731450000000  0.3845150000000 1.0
C      1  0.5739720000000  0.5444360000000  0.5730350000000 1.0
C      1  0.4263260000000  0.4564600000000  0.4420910000000 1.0
C      1  0.5014510000000  0.5674490000000  0.6047550000000 1.0
C      1  0.4981970000000  0.4233750000000  0.3985590000000 1.0
C      1  0.5078340000000  0.4709950000000  0.4648510000000 1.0
C      1  0.4971290000000  0.5169050000000  0.5137000000000 1.0
C      1  0.4916630000000  0.3887440000000  0.5062670000000 1.0
C      1  0.5073520000000  0.6109800000000  0.4964130000000 1.0
C      1  0.5278060000000  0.4482630000000  0.5148760000000 1.0
C      1  0.4680480000000  0.5487320000000  0.4796180000000 1.0
C      1  0.5140600000000  0.5905140000000  0.4429980000000 1.0
C      1  0.4788950000000  0.4122140000000  0.5536140000000 1.0
C      1  0.5717010000000  0.5065030000000  0.5450550000000 1.0
C      1  0.4298510000000  0.4834690000000  0.4624860000000 1.0
C      1  0.4084290000000  0.5588250000000  0.5003670000000 1.0
C      1  0.5905290000000  0.4630590000000  0.4983250000000 1.0
C      1  0.4650890000000  0.5070250000000  0.4710270000000 1.0
C      1  0.5277420000000  0.4913460000000  0.5273860000000 1.0
C      1  0.5511330000000  0.5584170000000  0.5832320000000 1.0
C      1  0.4482740000000  0.4424220000000  0.4255900000000 1.0
C      1  0.4972400000000  0.5941530000000  0.5354280000000 1.0
C      1  0.5027020000000  0.3952420000000  0.4621900000000 1.0
C      1  0.3970870000000  0.5273240000000  0.5064740000000 1.0
C      1  0.6049690000000  0.4926270000000  0.4978420000000 1.0
C      1  0.5234870000000  0.4201750000000  0.4187080000000 1.0
C      1  0.4931090000000  0.5875430000000  0.5800550000000 1.0
C      1  0.4858100000000  0.5859690000000  0.4322990000000 1.0
C      1  0.5120960000000  0.4166760000000  0.5595120000000 1.0
C      1  0.5306210000000  0.4582390000000  0.6111900000000 1.0
C      1  0.4677300000000  0.5295080000000  0.3809760000000 1.0
C      1  0.4774810000000  0.4741570000000  0.5457510000000 1.0
C      1  0.5244840000000  0.5283740000000  0.4503700000000 1.0
C      1  0.5247150000000  0.5900400000000  0.5460200000000 1.0
C      1  0.4763980000000  0.4038700000000  0.4650030000000 1.0
C      1  0.4390560000000  0.5354900000000  0.5725810000000 1.0
C      1  0.5557570000000  0.4561870000000  0.4407460000000 1.0
C      1  0.4693300000000  0.4663130000000  0.4556150000000 1.0
C      1  0.5268290000000  0.5341990000000  0.5376240000000 1.0
C      1  0.4109600000000  0.4370040000000  0.4604950000000 1.0
C      1  0.5888490000000  0.5565550000000  0.5511050000000 1.0
C      1  0.5605140000000  0.5436280000000  0.5061860000000 1.0
C      1  0.4382450000000  0.4556360000000  0.5020430000000 1.0
C      1  0.4972640000000  0.5487730000000  0.5766530000000 1.0
C      1  0.4966880000000  0.4359280000000  0.4295810000000 1.0
C      1  0.4127130000000  0.4705910000000  0.5554330000000 1.0
C      1  0.5871650000000  0.5515140000000  0.4489840000000 1.0
C      1  0.4064430000000  0.5146400000000  0.5634460000000 1.0
C      1  0.5915460000000  0.4858560000000  0.4438300000000 1.0
C      1  0.5639550000000  0.5732550000000  0.4453410000000 1.0
C      1  0.4226950000000  0.4440420000000  0.5370100000000 1.0
C      1  0.5141080000000  0.4216790000000  0.5075610000000 1.0
C      1  0.4822710000000  0.5734120000000  0.4922250000000 1.0
C      1  0.6015470000000  0.5393110000000  0.4701770000000 1.0
C      1  0.4012350000000  0.4747720000000  0.5236970000000 1.0
C      1  0.5248560000000  0.3917110000000  0.5131070000000 1.0
C      1  0.4795700000000  0.6100240000000  0.4768220000000 1.0
C      1  0.4656830000000  0.4548590000000  0.5948630000000 1.0
C      1  0.5337020000000  0.5456710000000  0.3993120000000 1.0
C      1  0.4605330000000  0.5392850000000  0.4478320000000 1.0
C      1  0.5331280000000  0.4561490000000  0.5475230000000 1.0
C      1  0.4140590000000  0.4869990000000  0.4325620000000 1.0
C      1  0.5753820000000  0.5156170000000  0.5711640000000 1.0
C      1  0.5410040000000  0.4278830000000  0.4431530000000 1.0
C      1  0.4712910000000  0.5944980000000  0.5656710000000 1.0
C      1  0.5022820000000  0.4958430000000  0.4874860000000 1.0
END
