TITL C-2622967-6265-612 0.000706420405683767 125000 -425.697990769358 0 0 77 (C1) n - 1
REM
REM in /nfs/bkarasulu/CARBON/AIRSS/Generating-Clusters/AIREBO/with-SteepDescent/Higher-Symm/SD-CG/HFTN-CG
REM
REM
REM
REM
REM
REM ./C.cell (b20cbc046b6831c77cfcea5457e17084)
REM
REM compiler GCC version 9.2.1 20190827 (Red Hat 9.2.1-1)
REM options -cpp -mtune=generic -march=x86-64 -g -O0 -fpre-include=/usr/include/finclude/math-vector-fortran.h
REM seed 427051368 1526524281 2038347332 -539661562 1030787371 -987876071 80674424 50209687 782665816 1331760285 2004596096 -217538260 1946509383 -29189677 2018764200 -36261008 -1359955819 1725691678 -741558213 333835313 -1339298628 -1605910035 -1124397700 1507827033 1718358237 -428773330 161809202 7449183 1442493011 1154498613 -2005279682 -503334562 2013228460
REM
CELL 1.54180   50.00000   50.00000   50.00000   90.00000   90.00000   90.00000
LATT -1
SFAC C  
C      1  0.4674620000000  0.4882220000000  0.5050190000000 1.0
C      1  0.5071910000000  0.5343430000000  0.5054920000000 1.0
C      1  0.5265240000000  0.4799880000000  0.5057580000000 1.0
C      1  0.5364940000000  0.4678610000000  0.5559680000000 1.0
C      1  0.4535120000000  0.4851500000000  0.5559190000000 1.0
C      1  0.5104230000000  0.5480660000000  0.5563160000000 1.0
C      1  0.5406730000000  0.5094490000000  0.4991500000000 1.0
C      1  0.4879440000000  0.4624160000000  0.4999780000000 1.0
C      1  0.4741950000000  0.5297800000000  0.5000610000000 1.0
C      1  0.4309930000000  0.4545650000000  0.5092740000000 1.0
C      1  0.4941870000000  0.5831340000000  0.5098920000000 1.0
C      1  0.5751580000000  0.4641000000000  0.5091110000000 1.0
C      1  0.5238950000000  0.4929260000000  0.4583240000000 1.0
C      1  0.4771260000000  0.4774030000000  0.4645680000000 1.0
C      1  0.4943400000000  0.5302310000000  0.4633110000000 1.0
C      1  0.5636370000000  0.5321650000000  0.4688920000000 1.0
C      1  0.4905490000000  0.4255390000000  0.4679110000000 1.0
C      1  0.4412350000000  0.5426810000000  0.4672130000000 1.0
C      1  0.4672570000000  0.5394000000000  0.5484120000000 1.0
C      1  0.5504250000000  0.5094560000000  0.5486730000000 1.0
C      1  0.4820700000000  0.4521540000000  0.5481830000000 1.0
C      1  0.5161570000000  0.4160270000000  0.4874490000000 1.0
C      1  0.4191220000000  0.5255930000000  0.4868280000000 1.0
C      1  0.5644450000000  0.5599790000000  0.4885540000000 1.0
C      1  0.4636180000000  0.5275940000000  0.4500090000000 1.0
C      1  0.5416640000000  0.5202170000000  0.4486750000000 1.0
C      1  0.4952460000000  0.4524750000000  0.4529870000000 1.0
C      1  0.5241070000000  0.5435000000000  0.4334820000000 1.0
C      1  0.5221770000000  0.4584970000000  0.4361440000000 1.0
C      1  0.4616450000000  0.4980700000000  0.4343520000000 1.0
C      1  0.4621360000000  0.4253730000000  0.5115040000000 1.0
C      1  0.4540830000000  0.5694600000000  0.5112250000000 1.0
C      1  0.5819520000000  0.5062950000000  0.5110550000000 1.0
C      1  0.4544540000000  0.4608780000000  0.4948680000000 1.0
C      1  0.4894620000000  0.5593460000000  0.4956790000000 1.0
C      1  0.5567150000000  0.4796610000000  0.4952670000000 1.0
C      1  0.4373470000000  0.5437350000000  0.5067180000000 1.0
C      1  0.5710090000000  0.5354750000000  0.5079040000000 1.0
C      1  0.4926070000000  0.4234810000000  0.5076430000000 1.0
C      1  0.4632930000000  0.4254180000000  0.4793480000000 1.0
C      1  0.4543740000000  0.5663500000000  0.4785090000000 1.0
C      1  0.5778520000000  0.5087770000000  0.4789890000000 1.0
C      1  0.5282550000000  0.4578010000000  0.5276420000000 1.0
C      1  0.4485580000000  0.4972720000000  0.5275840000000 1.0
C      1  0.5239820000000  0.5470870000000  0.5281610000000 1.0
C      1  0.5133100000000  0.4671070000000  0.4778120000000 1.0
C      1  0.4650000000000  0.5067140000000  0.4768170000000 1.0
C      1  0.5239740000000  0.5285480000000  0.4764960000000 1.0
C      1  0.4408690000000  0.4813840000000  0.4487000000000 1.0
C      1  0.5151090000000  0.5624840000000  0.4520770000000 1.0
C      1  0.5438850000000  0.4586250000000  0.4534890000000 1.0
C      1  0.5287580000000  0.4946740000000  0.5603160000000 1.0
C      1  0.4805870000000  0.4783020000000  0.5601640000000 1.0
C      1  0.4908560000000  0.5281200000000  0.5601380000000 1.0
C      1  0.4535010000000  0.4540310000000  0.4637770000000 1.0
C      1  0.4852450000000  0.5628190000000  0.4646750000000 1.0
C      1  0.5568100000000  0.4865750000000  0.4640900000000 1.0
C      1  0.5715710000000  0.4933940000000  0.5358690000000 1.0
C      1  0.4571550000000  0.4416890000000  0.5364540000000 1.0
C      1  0.4702240000000  0.5661530000000  0.5367610000000 1.0
C      1  0.5310760000000  0.5776210000000  0.5238460000000 1.0
C      1  0.5504460000000  0.4358860000000  0.5223760000000 1.0
C      1  0.4180010000000  0.4896180000000  0.5234220000000 1.0
C      1  0.4316890000000  0.4637790000000  0.5409460000000 1.0
C      1  0.5019370000000  0.5775020000000  0.5415270000000 1.0
C      1  0.5658760000000  0.4601920000000  0.5406370000000 1.0
C      1  0.5004210000000  0.4485330000000  0.5251790000000 1.0
C      1  0.4556490000000  0.5256170000000  0.5249340000000 1.0
C      1  0.5455130000000  0.5270080000000  0.5249610000000 1.0
C      1  0.5356930000000  0.5601290000000  0.4745070000000 1.0
C      1  0.5350620000000  0.4409850000000  0.4770830000000 1.0
C      1  0.4320580000000  0.5021790000000  0.4697280000000 1.0
C      1  0.5434990000000  0.4150210000000  0.5062120000000 1.0
C      1  0.4037180000000  0.5085370000000  0.5094660000000 1.0
C      1  0.5529590000000  0.5829910000000  0.5084610000000 1.0
C      1  0.5000130000000  0.5003080000000  0.5623250000000 1.0
C      1  0.4929940000000  0.5008140000000  0.4485060000000 1.0
END
