TITL C-2622953-3516-556 -0.000215033469795482 125000 -1012.44157581683 0 0 180 (C1) n - 1
REM
REM in /nfs/bkarasulu/CARBON/AIRSS/Generating-Clusters/AIREBO/with-SteepDescent/Higher-Symm/SD-CG/HFTN-CG
REM
REM
REM
REM
REM
REM ./C.cell (b20cbc046b6831c77cfcea5457e17084)
REM
REM compiler GCC version 9.2.1 20190827 (Red Hat 9.2.1-1)
REM options -cpp -mtune=generic -march=x86-64 -g -O0 -fpre-include=/usr/include/finclude/math-vector-fortran.h
REM seed -812006034 209315723 65170519 1082336026 175398608 -834683573 -697088842 -2143548619 1159099537 -1876824908 560591108 1420773489 1558712249 1870922107 359872381 -984499687 -84715332 1764396521 -1568173732 1554310943 -333848467 -304160618 -782093005 2108621295 173598386 -1214193192 990130543 72893865 -1590227765 853607840 -740031054 316376753 -104216852
REM
CELL 1.54180   50.00000   50.00000   50.00000   90.00000   90.00000   90.00000
LATT -1
SFAC C  
C      1  0.5114700000000  0.5166880000000  0.6075320000000 1.0
C      1  0.5117640000000  0.4860170000000  0.6077570000000 1.0
C      1  0.4376520000000  0.6040660000000  0.5372430000000 1.0
C      1  0.4427400000000  0.4127200000000  0.5491890000000 1.0
C      1  0.4206680000000  0.5240820000000  0.4964710000000 1.0
C      1  0.4224990000000  0.4963150000000  0.5085720000000 1.0
C      1  0.4117720000000  0.5553880000000  0.5063340000000 1.0
C      1  0.4211900000000  0.4451280000000  0.5101790000000 1.0
C      1  0.4744110000000  0.4912740000000  0.4490320000000 1.0
C      1  0.4683030000000  0.5200020000000  0.4589930000000 1.0
C      1  0.4914660000000  0.4386160000000  0.5724420000000 1.0
C      1  0.4865230000000  0.5602310000000  0.5633490000000 1.0
C      1  0.5750980000000  0.5723850000000  0.4447210000000 1.0
C      1  0.5701980000000  0.4245400000000  0.4441000000000 1.0
C      1  0.5217340000000  0.5546790000000  0.4962760000000 1.0
C      1  0.5246140000000  0.4399420000000  0.4843800000000 1.0
C      1  0.5081250000000  0.6046920000000  0.5240180000000 1.0
C      1  0.5084490000000  0.3903010000000  0.5215920000000 1.0
C      1  0.4158390000000  0.5231750000000  0.5372500000000 1.0
C      1  0.4241640000000  0.4904660000000  0.5415380000000 1.0
C      1  0.4501250000000  0.4273120000000  0.4324240000000 1.0
C      1  0.4439760000000  0.5662120000000  0.4350160000000 1.0
C      1  0.4432340000000  0.4909570000000  0.5872190000000 1.0
C      1  0.4440190000000  0.5177770000000  0.5827530000000 1.0
C      1  0.4721770000000  0.5100960000000  0.3969290000000 1.0
C      1  0.4648000000000  0.4824140000000  0.4111680000000 1.0
C      1  0.5333000000000  0.4037680000000  0.5309280000000 1.0
C      1  0.5376950000000  0.5990760000000  0.5346020000000 1.0
C      1  0.4880620000000  0.5625300000000  0.4151270000000 1.0
C      1  0.4994360000000  0.4405660000000  0.3914990000000 1.0
C      1  0.4378410000000  0.5388780000000  0.4232720000000 1.0
C      1  0.4412860000000  0.4531940000000  0.4254780000000 1.0
C      1  0.4814560000000  0.4694520000000  0.4706870000000 1.0
C      1  0.4861920000000  0.5296930000000  0.4822120000000 1.0
C      1  0.5936470000000  0.4810130000000  0.5584640000000 1.0
C      1  0.5952930000000  0.5100020000000  0.5579930000000 1.0
C      1  0.5517550000000  0.5473220000000  0.5397220000000 1.0
C      1  0.5483170000000  0.4510780000000  0.5430390000000 1.0
C      1  0.5609010000000  0.5084270000000  0.4657300000000 1.0
C      1  0.5814470000000  0.4862630000000  0.4666250000000 1.0
C      1  0.4818950000000  0.4920880000000  0.5968440000000 1.0
C      1  0.4803060000000  0.5258180000000  0.5974260000000 1.0
C      1  0.4435640000000  0.5155890000000  0.4078920000000 1.0
C      1  0.4313810000000  0.4846540000000  0.4171810000000 1.0
C      1  0.5948870000000  0.5324340000000  0.4656850000000 1.0
C      1  0.6057160000000  0.4638430000000  0.4674200000000 1.0
C      1  0.5764480000000  0.4278250000000  0.5000900000000 1.0
C      1  0.5757170000000  0.5660960000000  0.5017510000000 1.0
C      1  0.5528390000000  0.5217950000000  0.4927610000000 1.0
C      1  0.5589760000000  0.4735620000000  0.4848480000000 1.0
C      1  0.5292100000000  0.4351140000000  0.4328850000000 1.0
C      1  0.5158280000000  0.5581900000000  0.4461930000000 1.0
C      1  0.5464310000000  0.4419590000000  0.4610670000000 1.0
C      1  0.5400490000000  0.5408000000000  0.4559460000000 1.0
C      1  0.5725100000000  0.4692790000000  0.5737800000000 1.0
C      1  0.5794600000000  0.5247750000000  0.5770480000000 1.0
C      1  0.5234490000000  0.4445990000000  0.3826430000000 1.0
C      1  0.5120070000000  0.5660630000000  0.4072120000000 1.0
C      1  0.4684040000000  0.5560130000000  0.4808100000000 1.0
C      1  0.4842950000000  0.4446230000000  0.4638860000000 1.0
C      1  0.5433970000000  0.4477420000000  0.5105860000000 1.0
C      1  0.5387710000000  0.5636450000000  0.5166670000000 1.0
C      1  0.4289600000000  0.4448560000000  0.4622900000000 1.0
C      1  0.4111540000000  0.5517130000000  0.4665090000000 1.0
C      1  0.5140670000000  0.5102960000000  0.5167800000000 1.0
C      1  0.5123460000000  0.4810800000000  0.5091810000000 1.0
C      1  0.5355240000000  0.4014360000000  0.4788500000000 1.0
C      1  0.5342830000000  0.5938200000000  0.4817450000000 1.0
C      1  0.5020720000000  0.5228830000000  0.4331040000000 1.0
C      1  0.5003740000000  0.4756740000000  0.4360880000000 1.0
C      1  0.4685230000000  0.5755380000000  0.4551980000000 1.0
C      1  0.4791250000000  0.4281860000000  0.4374400000000 1.0
C      1  0.4378420000000  0.4125440000000  0.4565000000000 1.0
C      1  0.4294400000000  0.5737740000000  0.4627480000000 1.0
C      1  0.5219930000000  0.5143570000000  0.4549920000000 1.0
C      1  0.5255290000000  0.4841990000000  0.4523750000000 1.0
C      1  0.5484200000000  0.4855640000000  0.5708730000000 1.0
C      1  0.5534640000000  0.5134540000000  0.5754660000000 1.0
C      1  0.5228520000000  0.4317710000000  0.5846590000000 1.0
C      1  0.5460110000000  0.5589480000000  0.5833070000000 1.0
C      1  0.3862920000000  0.5376580000000  0.4978670000000 1.0
C      1  0.4059440000000  0.4710530000000  0.4968940000000 1.0
C      1  0.5545280000000  0.5918600000000  0.5089670000000 1.0
C      1  0.5467520000000  0.4150720000000  0.5064420000000 1.0
C      1  0.5656070000000  0.4499380000000  0.4269520000000 1.0
C      1  0.5639580000000  0.5482830000000  0.4330190000000 1.0
C      1  0.4626320000000  0.5147610000000  0.5260570000000 1.0
C      1  0.4554510000000  0.4880510000000  0.5101170000000 1.0
C      1  0.4479510000000  0.4153080000000  0.5828930000000 1.0
C      1  0.4321020000000  0.5972280000000  0.5633610000000 1.0
C      1  0.5922890000000  0.5164120000000  0.4427200000000 1.0
C      1  0.6053610000000  0.4883460000000  0.4435280000000 1.0
C      1  0.4524770000000  0.4448270000000  0.5946760000000 1.0
C      1  0.4482210000000  0.5708620000000  0.5776150000000 1.0
C      1  0.6134310000000  0.5263550000000  0.4864460000000 1.0
C      1  0.6244500000000  0.4679420000000  0.4912730000000 1.0
C      1  0.5288590000000  0.5189520000000  0.4038760000000 1.0
C      1  0.5289150000000  0.4871550000000  0.4105330000000 1.0
C      1  0.4942210000000  0.4073280000000  0.4535330000000 1.0
C      1  0.4870920000000  0.6032200000000  0.4619510000000 1.0
C      1  0.5108310000000  0.5239820000000  0.5473120000000 1.0
C      1  0.5017910000000  0.4790570000000  0.5414640000000 1.0
C      1  0.5935070000000  0.4700040000000  0.5297830000000 1.0
C      1  0.5910660000000  0.5196910000000  0.5289770000000 1.0
C      1  0.5423040000000  0.5153490000000  0.5446150000000 1.0
C      1  0.5345410000000  0.4822340000000  0.5424280000000 1.0
C      1  0.3891150000000  0.5283460000000  0.5276180000000 1.0
C      1  0.4002020000000  0.4721240000000  0.5304300000000 1.0
C      1  0.4824710000000  0.5127210000000  0.5497650000000 1.0
C      1  0.4774730000000  0.4866310000000  0.5641190000000 1.0
C      1  0.4468570000000  0.4917120000000  0.4774230000000 1.0
C      1  0.4379340000000  0.5222570000000  0.4699620000000 1.0
C      1  0.5633470000000  0.4758230000000  0.5154400000000 1.0
C      1  0.5620920000000  0.5079750000000  0.5184640000000 1.0
C      1  0.5195330000000  0.5251810000000  0.4871440000000 1.0
C      1  0.5291140000000  0.4720790000000  0.4809940000000 1.0
C      1  0.5792240000000  0.5482510000000  0.5259180000000 1.0
C      1  0.5780550000000  0.4416410000000  0.5294840000000 1.0
C      1  0.5675880000000  0.5467540000000  0.4749860000000 1.0
C      1  0.5766970000000  0.4479160000000  0.4754320000000 1.0
C      1  0.5641130000000  0.5804800000000  0.4722240000000 1.0
C      1  0.5668360000000  0.4095880000000  0.4725880000000 1.0
C      1  0.5277190000000  0.5404580000000  0.5926960000000 1.0
C      1  0.5220390000000  0.4644200000000  0.5941620000000 1.0
C      1  0.4205230000000  0.5293380000000  0.4453000000000 1.0
C      1  0.4463110000000  0.4723550000000  0.4520510000000 1.0
C      1  0.4918480000000  0.5588850000000  0.5237640000000 1.0
C      1  0.4847660000000  0.4417500000000  0.5137850000000 1.0
C      1  0.4463790000000  0.3983090000000  0.5183230000000 1.0
C      1  0.4257730000000  0.6079210000000  0.5118270000000 1.0
C      1  0.4726390000000  0.3994600000000  0.5398940000000 1.0
C      1  0.4652340000000  0.5927320000000  0.5291490000000 1.0
C      1  0.5394840000000  0.4550180000000  0.4070890000000 1.0
C      1  0.5340700000000  0.5462250000000  0.4169410000000 1.0
C      1  0.4879350000000  0.5289420000000  0.5137650000000 1.0
C      1  0.4841810000000  0.4731000000000  0.4997490000000 1.0
C      1  0.4971740000000  0.4201670000000  0.5333160000000 1.0
C      1  0.5062570000000  0.5775550000000  0.5446080000000 1.0
C      1  0.6119650000000  0.5104130000000  0.5098180000000 1.0
C      1  0.6148650000000  0.4826790000000  0.5119070000000 1.0
C      1  0.4975980000000  0.5190520000000  0.4038870000000 1.0
C      1  0.4968550000000  0.4791180000000  0.4024470000000 1.0
C      1  0.5056140000000  0.6100750000000  0.4905130000000 1.0
C      1  0.5085530000000  0.3872460000000  0.4934010000000 1.0
C      1  0.4347810000000  0.4416380000000  0.5390200000000 1.0
C      1  0.4364280000000  0.5480460000000  0.5243290000000 1.0
C      1  0.4746970000000  0.5986110000000  0.4989140000000 1.0
C      1  0.4822630000000  0.3998870000000  0.4814290000000 1.0
C      1  0.4597630000000  0.4466580000000  0.5615630000000 1.0
C      1  0.4563940000000  0.5531250000000  0.5505080000000 1.0
C      1  0.4451720000000  0.4772650000000  0.5588060000000 1.0
C      1  0.4442650000000  0.5228940000000  0.5535120000000 1.0
C      1  0.4064510000000  0.4849500000000  0.4403170000000 1.0
C      1  0.3951970000000  0.5107870000000  0.4434850000000 1.0
C      1  0.4522500000000  0.4035160000000  0.4861990000000 1.0
C      1  0.4433850000000  0.5941000000000  0.4862300000000 1.0
C      1  0.4533230000000  0.5433270000000  0.5959130000000 1.0
C      1  0.4565650000000  0.4708400000000  0.6048590000000 1.0
C      1  0.4943590000000  0.5719480000000  0.4924370000000 1.0
C      1  0.4962060000000  0.4291950000000  0.4869070000000 1.0
C      1  0.5535870000000  0.4810740000000  0.4334500000000 1.0
C      1  0.5596160000000  0.5145570000000  0.4332950000000 1.0
C      1  0.4084370000000  0.4689290000000  0.4642310000000 1.0
C      1  0.3905000000000  0.5249400000000  0.4706470000000 1.0
C      1  0.4132260000000  0.5829370000000  0.4977860000000 1.0
C      1  0.4317930000000  0.4300870000000  0.4908310000000 1.0
C      1  0.4992140000000  0.4450570000000  0.4226340000000 1.0
C      1  0.4837650000000  0.5468970000000  0.4450200000000 1.0
C      1  0.4605950000000  0.5636490000000  0.5121560000000 1.0
C      1  0.4571080000000  0.4566610000000  0.5230780000000 1.0
C      1  0.5532810000000  0.4444760000000  0.5760240000000 1.0
C      1  0.5738740000000  0.5516300000000  0.5861470000000 1.0
C      1  0.5379380000000  0.5728780000000  0.5555710000000 1.0
C      1  0.5254070000000  0.4272520000000  0.5510420000000 1.0
C      1  0.4761540000000  0.4113460000000  0.5704490000000 1.0
C      1  0.4709710000000  0.5889850000000  0.5593670000000 1.0
C      1  0.5094330000000  0.4632990000000  0.5665910000000 1.0
C      1  0.5011930000000  0.5371730000000  0.5750640000000 1.0
C      1  0.5213110000000  0.4117580000000  0.4535600000000 1.0
C      1  0.5109320000000  0.5806710000000  0.4643680000000 1.0
END
