TITL C-2622954-8726-102 -205.659621401894 125000 -815.115833932691 0 0 150 (C1) n - 1
REM
REM in /nfs/bkarasulu/CARBON/AIRSS/Generating-Clusters/AIREBO/with-SteepDescent/Higher-Symm/SD-CG/HFTN-CG
REM
REM
REM
REM
REM
REM ./C.cell (b20cbc046b6831c77cfcea5457e17084)
REM
REM compiler GCC version 9.2.1 20190827 (Red Hat 9.2.1-1)
REM options -cpp -mtune=generic -march=x86-64 -g -O0 -fpre-include=/usr/include/finclude/math-vector-fortran.h
REM seed 653601695 1299178289 -511987022 -2060844165 -1254443366 -387607908 1565271088 -1793086507 981555905 1474669554 -1201646091 -887178304 713769014 60406955 -1421369583 542854558 321432329 -1062871305 -993893969 -1514889938 596033999 -182637698 1584121375 1730957150 88445679 -622730365 1393972251 1878583418 -1039389944 -2143191491 -502939724 -512067283 -1735139259
REM
CELL 1.54180   50.00000   50.00000   50.00000   90.00000   90.00000   90.00000
LATT -1
SFAC C  
C      1  0.4269250000000  0.4999860000000  0.4846580000000 1.0
C      1  0.5334290000000  0.4432740000000  0.4848160000000 1.0
C      1  0.5455160000000  0.5588090000000  0.4901950000000 1.0
C      1  0.5791270000000  0.5173000000000  0.5171260000000 1.0
C      1  0.4693300000000  0.4319840000000  0.5142670000000 1.0
C      1  0.4598910000000  0.5571100000000  0.5146620000000 1.0
C      1  0.4710230000000  0.5266990000000  0.5119410000000 1.0
C      1  0.4910820000000  0.4564210000000  0.5163060000000 1.0
C      1  0.5487800000000  0.5148570000000  0.5152390000000 1.0
C      1  0.5354840000000  0.5279210000000  0.4868040000000 1.0
C      1  0.5097200000000  0.4624860000000  0.4893440000000 1.0
C      1  0.4675450000000  0.5131530000000  0.4839310000000 1.0
C      1  0.4763630000000  0.5698140000000  0.4877590000000 1.0
C      1  0.4515820000000  0.4459800000000  0.4888610000000 1.0
C      1  0.5653780000000  0.4726480000000  0.4853780000000 1.0
C      1  0.5205940000000  0.5652380000000  0.5124350000000 1.0
C      1  0.5514430000000  0.4460150000000  0.5117480000000 1.0
C      1  0.4321910000000  0.4863970000000  0.5144240000000 1.0
C      1  0.4165470000000  0.4987430000000  0.4362250000000 1.0
C      1  0.5309560000000  0.4333840000000  0.4331600000000 1.0
C      1  0.5389070000000  0.5641130000000  0.4371160000000 1.0
C      1  0.5712280000000  0.5094350000000  0.5560350000000 1.0
C      1  0.4641170000000  0.4259250000000  0.5648150000000 1.0
C      1  0.4627840000000  0.5779160000000  0.5655860000000 1.0
C      1  0.4449940000000  0.5666470000000  0.4619900000000 1.0
C      1  0.4680990000000  0.4114290000000  0.4495800000000 1.0
C      1  0.5895060000000  0.5261560000000  0.4593670000000 1.0
C      1  0.5699370000000  0.5718160000000  0.5356410000000 1.0
C      1  0.5331900000000  0.4098270000000  0.5465220000000 1.0
C      1  0.4149430000000  0.5181370000000  0.5369640000000 1.0
C      1  0.5244250000000  0.5610500000000  0.5736380000000 1.0
C      1  0.4269160000000  0.4814190000000  0.5708780000000 1.0
C      1  0.5530140000000  0.4408550000000  0.5761800000000 1.0
C      1  0.4704470000000  0.5785790000000  0.4232560000000 1.0
C      1  0.5700340000000  0.4894820000000  0.4321080000000 1.0
C      1  0.4443020000000  0.4422670000000  0.4222250000000 1.0
C      1  0.4218310000000  0.4306150000000  0.4962910000000 1.0
C      1  0.5917180000000  0.4813790000000  0.5050270000000 1.0
C      1  0.4853950000000  0.6012120000000  0.4972130000000 1.0
C      1  0.5735010000000  0.4248670000000  0.5129860000000 1.0
C      1  0.4010850000000  0.4768720000000  0.5045380000000 1.0
C      1  0.5484480000000  0.6074560000000  0.4964460000000 1.0
C      1  0.5326280000000  0.5894760000000  0.4831400000000 1.0
C      1  0.4000610000000  0.4665320000000  0.4802450000000 1.0
C      1  0.5860840000000  0.4231410000000  0.4888360000000 1.0
C      1  0.4812900000000  0.6264840000000  0.5076490000000 1.0
C      1  0.5906720000000  0.4916740000000  0.5362580000000 1.0
C      1  0.4048460000000  0.4105260000000  0.5052900000000 1.0
C      1  0.5091760000000  0.4233790000000  0.4809860000000 1.0
C      1  0.5580740000000  0.5652320000000  0.4598110000000 1.0
C      1  0.4283580000000  0.5234040000000  0.4652830000000 1.0
C      1  0.4868070000000  0.4139390000000  0.5343250000000 1.0
C      1  0.4374590000000  0.5511150000000  0.5374620000000 1.0
C      1  0.5958930000000  0.5446440000000  0.5284210000000 1.0
C      1  0.5715020000000  0.5414220000000  0.5508400000000 1.0
C      1  0.4418460000000  0.5249560000000  0.5533690000000 1.0
C      1  0.5115870000000  0.4305010000000  0.5465180000000 1.0
C      1  0.4503460000000  0.5363920000000  0.4518740000000 1.0
C      1  0.5722150000000  0.5438160000000  0.4435790000000 1.0
C      1  0.4889960000000  0.4322490000000  0.4546880000000 1.0
C      1  0.4559410000000  0.5608180000000  0.5828410000000 1.0
C      1  0.4905750000000  0.4293930000000  0.5709560000000 1.0
C      1  0.5552810000000  0.5281920000000  0.5777120000000 1.0
C      1  0.5491870000000  0.5402260000000  0.4200400000000 1.0
C      1  0.5047720000000  0.4431640000000  0.4319430000000 1.0
C      1  0.4243500000000  0.5174880000000  0.4210660000000 1.0
C      1  0.5537320000000  0.4842510000000  0.5492820000000 1.0
C      1  0.4798680000000  0.5692400000000  0.5393980000000 1.0
C      1  0.4511560000000  0.4434070000000  0.5406460000000 1.0
C      1  0.4407010000000  0.4863600000000  0.4567020000000 1.0
C      1  0.5108990000000  0.5613650000000  0.4462240000000 1.0
C      1  0.5491340000000  0.4462620000000  0.4578800000000 1.0
C      1  0.4962480000000  0.4700370000000  0.4129280000000 1.0
C      1  0.5298170000000  0.5256350000000  0.4053890000000 1.0
C      1  0.4556130000000  0.5237320000000  0.4226790000000 1.0
C      1  0.4955690000000  0.4476500000000  0.5917160000000 1.0
C      1  0.4582010000000  0.5304450000000  0.5769100000000 1.0
C      1  0.5351510000000  0.5169610000000  0.5930480000000 1.0
C      1  0.5394150000000  0.5650130000000  0.5489970000000 1.0
C      1  0.4104430000000  0.4914200000000  0.5515790000000 1.0
C      1  0.5565840000000  0.4199900000000  0.5578770000000 1.0
C      1  0.4616750000000  0.5865580000000  0.4480120000000 1.0
C      1  0.5785200000000  0.4988490000000  0.4585750000000 1.0
C      1  0.4439270000000  0.4224000000000  0.4414750000000 1.0
C      1  0.6196700000000  0.5338710000000  0.4728620000000 1.0
C      1  0.4172660000000  0.5737900000000  0.4768950000000 1.0
C      1  0.4681540000000  0.3940260000000  0.4709610000000 1.0
C      1  0.3903590000000  0.5336030000000  0.5198410000000 1.0
C      1  0.5603600000000  0.6016570000000  0.5214230000000 1.0
C      1  0.5276660000000  0.3917990000000  0.5251350000000 1.0
C      1  0.4740300000000  0.4909270000000  0.4616800000000 1.0
C      1  0.5035170000000  0.4981420000000  0.4566240000000 1.0
C      1  0.5063680000000  0.5297770000000  0.4513070000000 1.0
C      1  0.5221750000000  0.4911620000000  0.5452100000000 1.0
C      1  0.4916560000000  0.4804240000000  0.5481650000000 1.0
C      1  0.4906150000000  0.5123210000000  0.5412480000000 1.0
C      1  0.4564020000000  0.4650980000000  0.5663400000000 1.0
C      1  0.5385500000000  0.4716340000000  0.5759710000000 1.0
C      1  0.4938260000000  0.5528170000000  0.5656990000000 1.0
C      1  0.5436970000000  0.4708220000000  0.4367060000000 1.0
C      1  0.4522590000000  0.4750110000000  0.4268030000000 1.0
C      1  0.4917630000000  0.5521390000000  0.4216110000000 1.0
C      1  0.4334350000000  0.5525900000000  0.4938350000000 1.0
C      1  0.4825290000000  0.4075860000000  0.4946040000000 1.0
C      1  0.5932790000000  0.5347530000000  0.4916050000000 1.0
C      1  0.5725220000000  0.5562880000000  0.5059890000000 1.0
C      1  0.5132150000000  0.3984240000000  0.5037420000000 1.0
C      1  0.4181770000000  0.5267470000000  0.5037300000000 1.0
C      1  0.4808980000000  0.5702730000000  0.3948890000000 1.0
C      1  0.4355310000000  0.4621340000000  0.4000060000000 1.0
C      1  0.5627640000000  0.4700860000000  0.4083650000000 1.0
C      1  0.5016480000000  0.5730990000000  0.5919860000000 1.0
C      1  0.5561870000000  0.4584950000000  0.6019390000000 1.0
C      1  0.4354650000000  0.4614990000000  0.5931360000000 1.0
C      1  0.4764890000000  0.4972930000000  0.4179510000000 1.0
C      1  0.5160940000000  0.4812410000000  0.4351170000000 1.0
C      1  0.5019990000000  0.5197460000000  0.4200690000000 1.0
C      1  0.5136240000000  0.4956360000000  0.5778190000000 1.0
C      1  0.4870120000000  0.4734450000000  0.5786380000000 1.0
C      1  0.4903370000000  0.5199870000000  0.5730820000000 1.0
C      1  0.5016530000000  0.4436790000000  0.6178610000000 1.0
C      1  0.5339490000000  0.5180360000000  0.6204780000000 1.0
C      1  0.4736100000000  0.5144650000000  0.6026690000000 1.0
C      1  0.4981530000000  0.4644970000000  0.3855390000000 1.0
C      1  0.4660900000000  0.5151620000000  0.3909540000000 1.0
C      1  0.5323800000000  0.5191670000000  0.3788640000000 1.0
C      1  0.5049430000000  0.5789620000000  0.4706290000000 1.0
C      1  0.4274350000000  0.4588860000000  0.4686960000000 1.0
C      1  0.5791370000000  0.4460580000000  0.4690740000000 1.0
C      1  0.4997430000000  0.5794230000000  0.5183570000000 1.0
C      1  0.5671920000000  0.4690190000000  0.5250720000000 1.0
C      1  0.4288480000000  0.4531480000000  0.5207870000000 1.0
C      1  0.4004870000000  0.4722330000000  0.5342420000000 1.0
C      1  0.5784900000000  0.4175670000000  0.5398150000000 1.0
C      1  0.5425630000000  0.5986300000000  0.5450000000000 1.0
C      1  0.5967850000000  0.4749110000000  0.4725640000000 1.0
C      1  0.4275910000000  0.4280850000000  0.4628680000000 1.0
C      1  0.4807810000000  0.6003530000000  0.4635200000000 1.0
C      1  0.4819010000000  0.4524480000000  0.4776720000000 1.0
C      1  0.5505660000000  0.4995550000000  0.4780690000000 1.0
C      1  0.4751610000000  0.5426170000000  0.4725530000000 1.0
C      1  0.5225190000000  0.4558250000000  0.5264910000000 1.0
C      1  0.4524730000000  0.5069330000000  0.5290600000000 1.0
C      1  0.5323760000000  0.5395430000000  0.5279400000000 1.0
C      1  0.5308460000000  0.4862220000000  0.5135940000000 1.0
C      1  0.5038400000000  0.5293070000000  0.5175780000000 1.0
C      1  0.4716150000000  0.4820880000000  0.5236030000000 1.0
C      1  0.4702690000000  0.4807440000000  0.4925440000000 1.0
C      1  0.5036490000000  0.5301700000000  0.4849610000000 1.0
C      1  0.5190940000000  0.4905160000000  0.4818360000000 1.0
END
