TITL C-2622959-7779-279 0.00153085961468096 125000 -1056.09885923123 0 0 183 (C1) n - 1
REM
REM in /nfs/bkarasulu/CARBON/AIRSS/Generating-Clusters/AIREBO/with-SteepDescent/Higher-Symm/SD-CG/HFTN-CG
REM
REM
REM
REM
REM
REM ./C.cell (b20cbc046b6831c77cfcea5457e17084)
REM
REM compiler GCC version 9.2.1 20190827 (Red Hat 9.2.1-1)
REM options -cpp -mtune=generic -march=x86-64 -g -O0 -fpre-include=/usr/include/finclude/math-vector-fortran.h
REM seed 333854407 91827472 -1779207520 1700827021 -2054413327 -1824094010 1939857522 739208359 1524523472 -1669872528 1551815599 250838687 -211111153 -464321600 1475829971 -2105072954 835392334 -611157655 1371611297 -1060320935 -864703732 837390605 809565376 -1026766388 1698938084 348188854 -1167349066 62941554 1046692526 1198878502 709216225 -1901267207 898740585
REM
CELL 1.54180   50.00000   50.00000   50.00000   90.00000   90.00000   90.00000
LATT -1
SFAC C  
C      1  0.5451710000000  0.4421160000000  0.4133620000000 1.0
C      1  0.5435760000000  0.4553340000000  0.5963240000000 1.0
C      1  0.5491640000000  0.5975640000000  0.4917590000000 1.0
C      1  0.5481250000000  0.5636840000000  0.4146320000000 1.0
C      1  0.5455140000000  0.5454300000000  0.5964330000000 1.0
C      1  0.5477690000000  0.4014930000000  0.4862640000000 1.0
C      1  0.4802360000000  0.5153230000000  0.5219750000000 1.0
C      1  0.4792800000000  0.5082170000000  0.4691560000000 1.0
C      1  0.4755660000000  0.4726670000000  0.5073550000000 1.0
C      1  0.4759300000000  0.4869690000000  0.5348870000000 1.0
C      1  0.4718690000000  0.4800800000000  0.4767940000000 1.0
C      1  0.4805480000000  0.5275390000000  0.4932010000000 1.0
C      1  0.5305750000000  0.4369730000000  0.4799920000000 1.0
C      1  0.5334510000000  0.5272520000000  0.5631460000000 1.0
C      1  0.5353210000000  0.5491180000000  0.4494350000000 1.0
C      1  0.5269410000000  0.5594060000000  0.4928670000000 1.0
C      1  0.5316970000000  0.4792350000000  0.5648400000000 1.0
C      1  0.5317050000000  0.4503030000000  0.4499510000000 1.0
C      1  0.4488520000000  0.4875280000000  0.5787700000000 1.0
C      1  0.4567020000000  0.5661250000000  0.4755920000000 1.0
C      1  0.4427280000000  0.4500070000000  0.4386370000000 1.0
C      1  0.4496680000000  0.5213860000000  0.5757620000000 1.0
C      1  0.4454970000000  0.4191310000000  0.4868730000000 1.0
C      1  0.4507230000000  0.5548380000000  0.4485020000000 1.0
C      1  0.4224760000000  0.4472720000000  0.5492390000000 1.0
C      1  0.4212990000000  0.5688640000000  0.5213690000000 1.0
C      1  0.4312010000000  0.4884000000000  0.4349610000000 1.0
C      1  0.4160400000000  0.5507430000000  0.5479760000000 1.0
C      1  0.4345000000000  0.4300900000000  0.5246490000000 1.0
C      1  0.4212430000000  0.5194250000000  0.4277260000000 1.0
C      1  0.5226120000000  0.4332680000000  0.5563400000000 1.0
C      1  0.5280490000000  0.5944000000000  0.5376990000000 1.0
C      1  0.5244910000000  0.4856140000000  0.4096230000000 1.0
C      1  0.5223650000000  0.5723620000000  0.5623240000000 1.0
C      1  0.5211990000000  0.4132350000000  0.5304290000000 1.0
C      1  0.5239540000000  0.5185000000000  0.4127440000000 1.0
C      1  0.5149010000000  0.4743710000000  0.4383010000000 1.0
C      1  0.5324720000000  0.4595490000000  0.5371300000000 1.0
C      1  0.5282340000000  0.5658730000000  0.5233260000000 1.0
C      1  0.5316340000000  0.5167730000000  0.4458250000000 1.0
C      1  0.5208770000000  0.5384450000000  0.5365820000000 1.0
C      1  0.5192660000000  0.4470750000000  0.5089150000000 1.0
C      1  0.4178720000000  0.4267380000000  0.4731390000000 1.0
C      1  0.4241190000000  0.5219740000000  0.5989270000000 1.0
C      1  0.4205680000000  0.5591610000000  0.4485580000000 1.0
C      1  0.4066680000000  0.5807530000000  0.4676140000000 1.0
C      1  0.4191010000000  0.4969420000000  0.5835640000000 1.0
C      1  0.4203630000000  0.4297800000000  0.4461720000000 1.0
C      1  0.4515800000000  0.5561260000000  0.5223430000000 1.0
C      1  0.4633880000000  0.4855630000000  0.4339440000000 1.0
C      1  0.4672910000000  0.4463160000000  0.5480450000000 1.0
C      1  0.4674620000000  0.4340960000000  0.5198620000000 1.0
C      1  0.4683140000000  0.5118240000000  0.4200570000000 1.0
C      1  0.4716020000000  0.5510120000000  0.5481200000000 1.0
C      1  0.5929910000000  0.4707130000000  0.5030430000000 1.0
C      1  0.5972110000000  0.5212280000000  0.5286340000000 1.0
C      1  0.5992540000000  0.5179190000000  0.4754460000000 1.0
C      1  0.5985470000000  0.5353210000000  0.5034180000000 1.0
C      1  0.5850670000000  0.4914670000000  0.5288040000000 1.0
C      1  0.6000970000000  0.4858090000000  0.4753230000000 1.0
C      1  0.5494300000000  0.5210400000000  0.4973300000000 1.0
C      1  0.5482070000000  0.4774560000000  0.4743890000000 1.0
C      1  0.5512090000000  0.4951180000000  0.5272180000000 1.0
C      1  0.5603160000000  0.4783700000000  0.5006150000000 1.0
C      1  0.5672930000000  0.5204080000000  0.4753710000000 1.0
C      1  0.5574680000000  0.5252700000000  0.5275200000000 1.0
C      1  0.5643140000000  0.4888330000000  0.5644590000000 1.0
C      1  0.5572530000000  0.5679190000000  0.4826540000000 1.0
C      1  0.5621980000000  0.4518310000000  0.4607650000000 1.0
C      1  0.5636540000000  0.5172650000000  0.5581110000000 1.0
C      1  0.5636810000000  0.4299370000000  0.4835590000000 1.0
C      1  0.5671440000000  0.5479770000000  0.4613580000000 1.0
C      1  0.4417970000000  0.5945090000000  0.5177920000000 1.0
C      1  0.4363750000000  0.4679090000000  0.4104100000000 1.0
C      1  0.4365540000000  0.4387690000000  0.5723640000000 1.0
C      1  0.4370800000000  0.4000430000000  0.5137320000000 1.0
C      1  0.4371620000000  0.5344080000000  0.4095890000000 1.0
C      1  0.4379140000000  0.5531400000000  0.5690900000000 1.0
C      1  0.5068200000000  0.4313150000000  0.5864010000000 1.0
C      1  0.5071150000000  0.6053320000000  0.5166540000000 1.0
C      1  0.5072000000000  0.4632460000000  0.3940400000000 1.0
C      1  0.5053150000000  0.5693150000000  0.5905030000000 1.0
C      1  0.5080670000000  0.3888990000000  0.5142390000000 1.0
C      1  0.5111560000000  0.5440040000000  0.3942340000000 1.0
C      1  0.5028190000000  0.5802840000000  0.4284040000000 1.0
C      1  0.5007580000000  0.4001150000000  0.4542580000000 1.0
C      1  0.5052760000000  0.5127030000000  0.6085170000000 1.0
C      1  0.4983520000000  0.4203180000000  0.4268270000000 1.0
C      1  0.5080430000000  0.5976150000000  0.4572360000000 1.0
C      1  0.5010420000000  0.4792790000000  0.6032690000000 1.0
C      1  0.4791930000000  0.5268560000000  0.5917300000000 1.0
C      1  0.4775120000000  0.5612170000000  0.4326130000000 1.0
C      1  0.4747280000000  0.4050940000000  0.4756210000000 1.0
C      1  0.4765580000000  0.4749670000000  0.5845000000000 1.0
C      1  0.4726310000000  0.4353640000000  0.4333890000000 1.0
C      1  0.4829340000000  0.5877590000000  0.4751790000000 1.0
C      1  0.5503540000000  0.5780050000000  0.4417060000000 1.0
C      1  0.5344990000000  0.3963000000000  0.4560200000000 1.0
C      1  0.5357610000000  0.5129470000000  0.5938860000000 1.0
C      1  0.5310770000000  0.4209920000000  0.4360370000000 1.0
C      1  0.5409700000000  0.5985970000000  0.4587750000000 1.0
C      1  0.5505180000000  0.4849920000000  0.5930810000000 1.0
C      1  0.5150110000000  0.3931890000000  0.4844480000000 1.0
C      1  0.5148390000000  0.5451250000000  0.6036210000000 1.0
C      1  0.5199250000000  0.5684920000000  0.4073250000000 1.0
C      1  0.5170860000000  0.6031300000000  0.4896210000000 1.0
C      1  0.5160190000000  0.4537270000000  0.6032170000000 1.0
C      1  0.5162410000000  0.4378520000000  0.4034880000000 1.0
C      1  0.4787090000000  0.5698410000000  0.5114720000000 1.0
C      1  0.4848580000000  0.4725880000000  0.4400090000000 1.0
C      1  0.4955250000000  0.4526500000000  0.5545340000000 1.0
C      1  0.4951550000000  0.4265700000000  0.5130150000000 1.0
C      1  0.4953790000000  0.5256000000000  0.4297620000000 1.0
C      1  0.4994710000000  0.5475980000000  0.5575720000000 1.0
C      1  0.4055580000000  0.4980190000000  0.5591330000000 1.0
C      1  0.4052820000000  0.5646270000000  0.4954840000000 1.0
C      1  0.3951960000000  0.4686720000000  0.4725470000000 1.0
C      1  0.4099260000000  0.5233110000000  0.5428140000000 1.0
C      1  0.4038420000000  0.4471290000000  0.4871970000000 1.0
C      1  0.4059300000000  0.5417320000000  0.4721600000000 1.0
C      1  0.5018290000000  0.5162560000000  0.5691490000000 1.0
C      1  0.5020690000000  0.5483180000000  0.4522490000000 1.0
C      1  0.4973100000000  0.4298910000000  0.4804150000000 1.0
C      1  0.4983830000000  0.4848420000000  0.5603520000000 1.0
C      1  0.4806120000000  0.4502340000000  0.4629130000000 1.0
C      1  0.4946590000000  0.5571520000000  0.4842520000000 1.0
C      1  0.4860710000000  0.5321510000000  0.3914470000000 1.0
C      1  0.4827090000000  0.3812140000000  0.5219840000000 1.0
C      1  0.4789700000000  0.5775990000000  0.5903010000000 1.0
C      1  0.4807060000000  0.4647790000000  0.3865370000000 1.0
C      1  0.4818400000000  0.5953900000000  0.5217670000000 1.0
C      1  0.4806300000000  0.4240640000000  0.5866460000000 1.0
C      1  0.4552860000000  0.5217570000000  0.5422210000000 1.0
C      1  0.4598850000000  0.5220950000000  0.4498300000000 1.0
C      1  0.4513790000000  0.4515060000000  0.4954780000000 1.0
C      1  0.4519040000000  0.4743120000000  0.5506140000000 1.0
C      1  0.4442660000000  0.4663960000000  0.4657310000000 1.0
C      1  0.4542910000000  0.5429980000000  0.4948660000000 1.0
C      1  0.4214760000000  0.4787280000000  0.5361000000000 1.0
C      1  0.4334260000000  0.5202440000000  0.4946620000000 1.0
C      1  0.4189570000000  0.4857690000000  0.4645450000000 1.0
C      1  0.4309330000000  0.5087670000000  0.5223510000000 1.0
C      1  0.4209810000000  0.4563820000000  0.5104780000000 1.0
C      1  0.4280370000000  0.5183580000000  0.4611420000000 1.0
C      1  0.5204580000000  0.5274770000000  0.4914110000000 1.0
C      1  0.5182120000000  0.4818180000000  0.4705360000000 1.0
C      1  0.5211300000000  0.4878560000000  0.5217260000000 1.0
C      1  0.5058110000000  0.4727130000000  0.4965990000000 1.0
C      1  0.5102940000000  0.5122500000000  0.4680930000000 1.0
C      1  0.5103430000000  0.5168410000000  0.5186410000000 1.0
C      1  0.5542110000000  0.5340140000000  0.4123430000000 1.0
C      1  0.5501930000000  0.4134260000000  0.5173110000000 1.0
C      1  0.5514760000000  0.5628150000000  0.5738150000000 1.0
C      1  0.5529870000000  0.4708390000000  0.4114700000000 1.0
C      1  0.5564090000000  0.5995840000000  0.5228520000000 1.0
C      1  0.5504960000000  0.4375180000000  0.5747320000000 1.0
C      1  0.5868600000000  0.5377090000000  0.5514350000000 1.0
C      1  0.5900440000000  0.5295430000000  0.4442730000000 1.0
C      1  0.5803750000000  0.4388620000000  0.5065140000000 1.0
C      1  0.5837050000000  0.4669130000000  0.5522880000000 1.0
C      1  0.5807530000000  0.4773500000000  0.4515890000000 1.0
C      1  0.5827670000000  0.5630600000000  0.5047450000000 1.0
C      1  0.5746320000000  0.4204790000000  0.5348230000000 1.0
C      1  0.5747730000000  0.5638930000000  0.5554740000000 1.0
C      1  0.5754940000000  0.5171850000000  0.4221470000000 1.0
C      1  0.5789270000000  0.5824860000000  0.5324010000000 1.0
C      1  0.5736430000000  0.4366550000000  0.5589140000000 1.0
C      1  0.5739230000000  0.4873250000000  0.4218290000000 1.0
C      1  0.4633650000000  0.3865130000000  0.5002420000000 1.0
C      1  0.4601780000000  0.5546910000000  0.5947440000000 1.0
C      1  0.4648160000000  0.5494160000000  0.4073350000000 1.0
C      1  0.4544620000000  0.5951120000000  0.4922760000000 1.0
C      1  0.4614160000000  0.4464870000000  0.5874720000000 1.0
C      1  0.4625390000000  0.4480720000000  0.4045950000000 1.0
C      1  0.4601170000000  0.5780940000000  0.5626100000000 1.0
C      1  0.4563280000000  0.5158790000000  0.3884790000000 1.0
C      1  0.4592020000000  0.3947220000000  0.5390710000000 1.0
C      1  0.4597440000000  0.4165490000000  0.5610510000000 1.0
C      1  0.4572690000000  0.4844550000000  0.3901340000000 1.0
C      1  0.4594170000000  0.5995930000000  0.5412390000000 1.0
C      1  0.5559610000000  0.5533110000000  0.5196180000000 1.0
C      1  0.5566720000000  0.5011960000000  0.4548230000000 1.0
C      1  0.5635900000000  0.4578060000000  0.5267830000000 1.0
END
