TITL C-2622954-8726-312 -0.00121902606003728 125000 -599.257417724301 0 0 107 (C1) n - 1
REM
REM in /nfs/bkarasulu/CARBON/AIRSS/Generating-Clusters/AIREBO/with-SteepDescent/Higher-Symm/SD-CG/HFTN-CG
REM
REM
REM
REM
REM
REM ./C.cell (b20cbc046b6831c77cfcea5457e17084)
REM
REM compiler GCC version 9.2.1 20190827 (Red Hat 9.2.1-1)
REM options -cpp -mtune=generic -march=x86-64 -g -O0 -fpre-include=/usr/include/finclude/math-vector-fortran.h
REM seed -768743806 -1173555750 1595956889 30039974 -984609929 763860554 394085186 1963995737 -1583456584 -323753206 -1315468452 -84579746 969180666 -204483663 444432703 -2130669922 -41408335 953750124 -1410512482 513484209 1661958736 967490904 -1767553408 -1144476485 -332139041 -52810771 57628309 -1724656538 806778183 1598580373 382887787 297087529 2030060974
REM
CELL 1.54180   50.00000   50.00000   50.00000   90.00000   90.00000   90.00000
LATT -1
SFAC C  
C      1  0.5617230000000  0.5068950000000  0.4671130000000 1.0
C      1  0.5631070000000  0.5013050000000  0.5308940000000 1.0
C      1  0.4330310000000  0.4968580000000  0.4719160000000 1.0
C      1  0.4337480000000  0.5006140000000  0.5252660000000 1.0
C      1  0.5188780000000  0.4830000000000  0.5726470000000 1.0
C      1  0.5122540000000  0.5111230000000  0.4199650000000 1.0
C      1  0.4886400000000  0.4821690000000  0.5711990000000 1.0
C      1  0.4793610000000  0.5101650000000  0.4259930000000 1.0
C      1  0.5423030000000  0.4269460000000  0.5097500000000 1.0
C      1  0.5403880000000  0.5670720000000  0.4966700000000 1.0
C      1  0.4523550000000  0.4270170000000  0.4997550000000 1.0
C      1  0.4599990000000  0.5696230000000  0.4963330000000 1.0
C      1  0.5225170000000  0.5426870000000  0.4708580000000 1.0
C      1  0.5156900000000  0.4608950000000  0.5395740000000 1.0
C      1  0.4830400000000  0.5485930000000  0.4714880000000 1.0
C      1  0.4843750000000  0.4528960000000  0.5339850000000 1.0
C      1  0.5664610000000  0.4761250000000  0.5489780000000 1.0
C      1  0.5621170000000  0.5248920000000  0.4421750000000 1.0
C      1  0.4338090000000  0.4788050000000  0.5487320000000 1.0
C      1  0.4369050000000  0.5225060000000  0.4524200000000 1.0
C      1  0.5528150000000  0.4850560000000  0.5732690000000 1.0
C      1  0.5459360000000  0.5155670000000  0.4185500000000 1.0
C      1  0.4547910000000  0.4803270000000  0.5745710000000 1.0
C      1  0.4477740000000  0.5083640000000  0.4287960000000 1.0
C      1  0.4330690000000  0.4484170000000  0.4867980000000 1.0
C      1  0.4323280000000  0.5626680000000  0.5094220000000 1.0
C      1  0.5631420000000  0.4410700000000  0.4912010000000 1.0
C      1  0.5653370000000  0.5576740000000  0.5118810000000 1.0
C      1  0.4725190000000  0.4526850000000  0.5729550000000 1.0
C      1  0.4862850000000  0.5410950000000  0.4226050000000 1.0
C      1  0.5305070000000  0.4519270000000  0.5650090000000 1.0
C      1  0.5165150000000  0.5443690000000  0.4193860000000 1.0
C      1  0.4585060000000  0.4855080000000  0.5076120000000 1.0
C      1  0.4536220000000  0.5135540000000  0.4932230000000 1.0
C      1  0.5399230000000  0.4904510000000  0.5084840000000 1.0
C      1  0.5440610000000  0.5181360000000  0.4939390000000 1.0
C      1  0.4714210000000  0.5549040000000  0.4413280000000 1.0
C      1  0.4545010000000  0.4447630000000  0.5474530000000 1.0
C      1  0.5336160000000  0.5528980000000  0.4413180000000 1.0
C      1  0.5469950000000  0.4310870000000  0.5604970000000 1.0
C      1  0.4829360000000  0.5861300000000  0.5112680000000 1.0
C      1  0.4756570000000  0.4114480000000  0.4827070000000 1.0
C      1  0.5168930000000  0.5829600000000  0.5143440000000 1.0
C      1  0.5241340000000  0.4122790000000  0.4886400000000 1.0
C      1  0.5737700000000  0.4555620000000  0.5309700000000 1.0
C      1  0.5671320000000  0.5545800000000  0.4442330000000 1.0
C      1  0.4226330000000  0.4517690000000  0.5368170000000 1.0
C      1  0.4321090000000  0.5452830000000  0.4677750000000 1.0
C      1  0.4869240000000  0.4311780000000  0.4600060000000 1.0
C      1  0.4831010000000  0.5707250000000  0.5398890000000 1.0
C      1  0.5210000000000  0.4308590000000  0.4621210000000 1.0
C      1  0.5203330000000  0.5687690000000  0.5415170000000 1.0
C      1  0.4797180000000  0.4941590000000  0.4557980000000 1.0
C      1  0.4746970000000  0.5057500000000  0.5510210000000 1.0
C      1  0.5261980000000  0.4978660000000  0.4480300000000 1.0
C      1  0.5264920000000  0.5109060000000  0.5547620000000 1.0
C      1  0.4084990000000  0.5140690000000  0.4861510000000 1.0
C      1  0.4122150000000  0.4904990000000  0.5052690000000 1.0
C      1  0.5835120000000  0.5136440000000  0.4897510000000 1.0
C      1  0.5838850000000  0.4931010000000  0.5090550000000 1.0
C      1  0.5740410000000  0.4666560000000  0.5006440000000 1.0
C      1  0.5824920000000  0.5402440000000  0.5000270000000 1.0
C      1  0.4164280000000  0.4620930000000  0.5058960000000 1.0
C      1  0.4206440000000  0.5392160000000  0.4972790000000 1.0
C      1  0.5538080000000  0.4874260000000  0.4311480000000 1.0
C      1  0.5628310000000  0.5127710000000  0.5758210000000 1.0
C      1  0.4379060000000  0.4811190000000  0.4296350000000 1.0
C      1  0.4430330000000  0.5084820000000  0.5631350000000 1.0
C      1  0.5318740000000  0.5260590000000  0.5247180000000 1.0
C      1  0.5120450000000  0.4737590000000  0.4979280000000 1.0
C      1  0.4678430000000  0.5233100000000  0.5226990000000 1.0
C      1  0.4809510000000  0.4753960000000  0.4841560000000 1.0
C      1  0.5479960000000  0.5727290000000  0.4650530000000 1.0
C      1  0.5595900000000  0.4314360000000  0.5348700000000 1.0
C      1  0.4515310000000  0.5713710000000  0.4634500000000 1.0
C      1  0.4393890000000  0.4238450000000  0.5270440000000 1.0
C      1  0.5635150000000  0.5248670000000  0.5504150000000 1.0
C      1  0.5563750000000  0.4741020000000  0.4587640000000 1.0
C      1  0.4335430000000  0.5301320000000  0.5415730000000 1.0
C      1  0.4392700000000  0.4714250000000  0.4560600000000 1.0
C      1  0.5151080000000  0.5449950000000  0.5022350000000 1.0
C      1  0.5155940000000  0.4445920000000  0.5105750000000 1.0
C      1  0.4834180000000  0.5466180000000  0.5052620000000 1.0
C      1  0.4837420000000  0.4372180000000  0.5038980000000 1.0
C      1  0.4935890000000  0.4215930000000  0.5435850000000 1.0
C      1  0.4836600000000  0.5823130000000  0.4671220000000 1.0
C      1  0.4960080000000  0.3991540000000  0.5272780000000 1.0
C      1  0.5151300000000  0.5763400000000  0.4672420000000 1.0
C      1  0.5198220000000  0.5108140000000  0.4734940000000 1.0
C      1  0.5232800000000  0.4881530000000  0.5334560000000 1.0
C      1  0.4808520000000  0.5170870000000  0.4785980000000 1.0
C      1  0.4843800000000  0.4857860000000  0.5252420000000 1.0
C      1  0.5169680000000  0.4719470000000  0.4324190000000 1.0
C      1  0.5131840000000  0.5321320000000  0.5714650000000 1.0
C      1  0.4896290000000  0.4724860000000  0.4337300000000 1.0
C      1  0.4860850000000  0.5315730000000  0.5688140000000 1.0
C      1  0.4779190000000  0.4479900000000  0.4342420000000 1.0
C      1  0.4751810000000  0.5567540000000  0.5663320000000 1.0
C      1  0.5276350000000  0.4471010000000  0.4340990000000 1.0
C      1  0.5246480000000  0.5572710000000  0.5695050000000 1.0
C      1  0.5493660000000  0.5511570000000  0.5387770000000 1.0
C      1  0.5499190000000  0.4481610000000  0.4670480000000 1.0
C      1  0.4548910000000  0.5532370000000  0.5323260000000 1.0
C      1  0.4628240000000  0.4526300000000  0.4708750000000 1.0
C      1  0.5003700000000  0.4012110000000  0.4992060000000 1.0
C      1  0.5031520000000  0.6000320000000  0.4884730000000 1.0
C      1  0.5011260000000  0.5048670000000  0.5013110000000 1.0
END
