TITL C-2622960-5345-215 0.000938939316759237 125000 -449.824831888603 0 0 79 (C1) n - 1
REM
REM in /nfs/bkarasulu/CARBON/AIRSS/Generating-Clusters/AIREBO/with-SteepDescent/Higher-Symm/SD-CG/HFTN-CG
REM
REM
REM
REM
REM
REM ./C.cell (b20cbc046b6831c77cfcea5457e17084)
REM
REM compiler GCC version 9.2.1 20190827 (Red Hat 9.2.1-1)
REM options -cpp -mtune=generic -march=x86-64 -g -O0 -fpre-include=/usr/include/finclude/math-vector-fortran.h
REM seed 1351008947 577714217 1626661752 -1117760472 -1077455149 -1670027476 -2019590986 -743734867 -1812967533 -754493604 -1004597493 -639128806 -2074021906 -1050314986 1899429018 1233466740 733076114 -727512294 -681024575 -1463494180 2135912708 -1117812920 -1183287505 414275243 -1472618039 -1587042034 -1900633051 1784065598 531218093 136768486 963648275 1835400991 1631313255
REM
CELL 1.54180   50.00000   50.00000   50.00000   90.00000   90.00000   90.00000
LATT -1
SFAC C  
C      1  0.4304960000000  0.4585040000000  0.4573630000000 1.0
C      1  0.4857190000000  0.4597760000000  0.4060770000000 1.0
C      1  0.5520560000000  0.4625510000000  0.4349750000000 1.0
C      1  0.5858550000000  0.4748650000000  0.5054810000000 1.0
C      1  0.5548160000000  0.4698630000000  0.5757980000000 1.0
C      1  0.4632360000000  0.4695880000000  0.5799050000000 1.0
C      1  0.4191700000000  0.4589730000000  0.5135320000000 1.0
C      1  0.4960210000000  0.4653210000000  0.5343010000000 1.0
C      1  0.4687470000000  0.4511860000000  0.5310380000000 1.0
C      1  0.4721300000000  0.4794580000000  0.4849020000000 1.0
C      1  0.4890090000000  0.4592990000000  0.4633440000000 1.0
C      1  0.5188800000000  0.4660850000000  0.4784320000000 1.0
C      1  0.5458560000000  0.4507400000000  0.4882880000000 1.0
C      1  0.5226390000000  0.4519840000000  0.5426210000000 1.0
C      1  0.5102330000000  0.4829320000000  0.4275090000000 1.0
C      1  0.5702740000000  0.4896120000000  0.4644650000000 1.0
C      1  0.5507800000000  0.4661400000000  0.5361830000000 1.0
C      1  0.5089620000000  0.4753950000000  0.5858510000000 1.0
C      1  0.4418970000000  0.4877940000000  0.5436980000000 1.0
C      1  0.4342550000000  0.4888450000000  0.4923620000000 1.0
C      1  0.4518140000000  0.4801610000000  0.4315220000000 1.0
C      1  0.4390820000000  0.5075710000000  0.4470700000000 1.0
C      1  0.4873010000000  0.5032370000000  0.4327810000000 1.0
C      1  0.5439720000000  0.5076100000000  0.4535860000000 1.0
C      1  0.5660240000000  0.5184900000000  0.5006120000000 1.0
C      1  0.5447220000000  0.5143940000000  0.5503290000000 1.0
C      1  0.4828250000000  0.5135480000000  0.5610550000000 1.0
C      1  0.4314250000000  0.5111710000000  0.5136450000000 1.0
C      1  0.4720180000000  0.5128380000000  0.4913810000000 1.0
C      1  0.4697410000000  0.5024150000000  0.4593770000000 1.0
C      1  0.5251200000000  0.4974860000000  0.4782730000000 1.0
C      1  0.5338810000000  0.5132010000000  0.5021260000000 1.0
C      1  0.5223660000000  0.5065820000000  0.5289520000000 1.0
C      1  0.4939180000000  0.4951200000000  0.5356460000000 1.0
C      1  0.4634460000000  0.5031810000000  0.5228520000000 1.0
C      1  0.4361840000000  0.5401300000000  0.5119490000000 1.0
C      1  0.4498190000000  0.5369930000000  0.4566970000000 1.0
C      1  0.4960850000000  0.5316930000000  0.4343540000000 1.0
C      1  0.5579340000000  0.5396350000000  0.4561990000000 1.0
C      1  0.5729290000000  0.5441090000000  0.5185950000000 1.0
C      1  0.5277830000000  0.5278290000000  0.5736620000000 1.0
C      1  0.4561990000000  0.5293310000000  0.5540180000000 1.0
C      1  0.4759340000000  0.5466430000000  0.4484320000000 1.0
C      1  0.5256200000000  0.5353580000000  0.4464980000000 1.0
C      1  0.5632220000000  0.5482880000000  0.4857930000000 1.0
C      1  0.5535390000000  0.5439510000000  0.5397260000000 1.0
C      1  0.5033150000000  0.5366470000000  0.5648540000000 1.0
C      1  0.4524850000000  0.5473520000000  0.5333920000000 1.0
C      1  0.4414050000000  0.5484220000000  0.4833740000000 1.0
C      1  0.4735740000000  0.4229210000000  0.5214960000000 1.0
C      1  0.4683930000000  0.4196230000000  0.4938890000000 1.0
C      1  0.4882400000000  0.4280710000000  0.4758620000000 1.0
C      1  0.5133110000000  0.4156910000000  0.4795300000000 1.0
C      1  0.5307900000000  0.4261060000000  0.4991630000000 1.0
C      1  0.5216640000000  0.4258880000000  0.5258750000000 1.0
C      1  0.4976640000000  0.4113760000000  0.5310550000000 1.0
C      1  0.5285070000000  0.4600270000000  0.5731470000000 1.0
C      1  0.4531490000000  0.4647670000000  0.5544830000000 1.0
C      1  0.4520780000000  0.4633740000000  0.5061320000000 1.0
C      1  0.4587680000000  0.4546880000000  0.4484820000000 1.0
C      1  0.5007300000000  0.4549780000000  0.4317190000000 1.0
C      1  0.5623360000000  0.4613940000000  0.4620270000000 1.0
C      1  0.5627670000000  0.4604880000000  0.5124110000000 1.0
C      1  0.5167090000000  0.5543990000000  0.4708430000000 1.0
C      1  0.5322590000000  0.5471260000000  0.4993200000000 1.0
C      1  0.5298030000000  0.5588010000000  0.5311720000000 1.0
C      1  0.5045950000000  0.5571460000000  0.5450330000000 1.0
C      1  0.4767320000000  0.5644310000000  0.5274370000000 1.0
C      1  0.4725850000000  0.5464090000000  0.4967830000000 1.0
C      1  0.4886520000000  0.5584200000000  0.4710370000000 1.0
C      1  0.4167480000000  0.4839840000000  0.5278490000000 1.0
C      1  0.4266660000000  0.4852020000000  0.4662970000000 1.0
C      1  0.4714900000000  0.4843360000000  0.4105200000000 1.0
C      1  0.5367110000000  0.4865720000000  0.4309330000000 1.0
C      1  0.5807800000000  0.4966750000000  0.4887740000000 1.0
C      1  0.5601340000000  0.4888580000000  0.5539790000000 1.0
C      1  0.4845840000000  0.4879540000000  0.5812910000000 1.0
C      1  0.5017660000000  0.5722260000000  0.5061140000000 1.0
C      1  0.5019210000000  0.5391410000000  0.5095600000000 1.0
END
