TITL C-2622961-1971-81 -0.0023255699556836 125000 -376.049949681037 0 0 66 (C1) n - 1
REM
REM in /nfs/bkarasulu/CARBON/AIRSS/Generating-Clusters/AIREBO/with-SteepDescent/Higher-Symm/SD-CG/HFTN-CG
REM
REM
REM
REM
REM
REM ./C.cell (b20cbc046b6831c77cfcea5457e17084)
REM
REM compiler GCC version 9.2.1 20190827 (Red Hat 9.2.1-1)
REM options -cpp -mtune=generic -march=x86-64 -g -O0 -fpre-include=/usr/include/finclude/math-vector-fortran.h
REM seed 446363243 784347591 -1112728370 -1841661490 139126911 -907604970 -1496072289 888319570 2081090030 74458457 1101701808 1734853867 -869791557 -336404033 -1928761598 -230918923 1075487381 -2018103682 -1755527890 -995870061 1756117091 1018265297 -244818433 -572383014 2087572540 526774049 -771315901 2052631966 1216452432 1292060033 153671716 944218666 -544172076
REM
CELL 1.54180   50.00000   50.00000   50.00000   90.00000   90.00000   90.00000
LATT -1
SFAC C  
C      1  0.4808260000000  0.4835120000000  0.5139670000000 1.0
C      1  0.5209030000000  0.4778870000000  0.4770260000000 1.0
C      1  0.4895950000000  0.4779930000000  0.4822350000000 1.0
C      1  0.5132650000000  0.4760880000000  0.5211570000000 1.0
C      1  0.4832890000000  0.5641160000000  0.4285980000000 1.0
C      1  0.5132070000000  0.5656690000000  0.5715450000000 1.0
C      1  0.4855760000000  0.5644620000000  0.5735720000000 1.0
C      1  0.5108060000000  0.5665880000000  0.4308780000000 1.0
C      1  0.5187680000000  0.4839960000000  0.4304610000000 1.0
C      1  0.4839710000000  0.4861240000000  0.5689600000000 1.0
C      1  0.5156870000000  0.4839690000000  0.5703990000000 1.0
C      1  0.4872220000000  0.4858750000000  0.4297760000000 1.0
C      1  0.5544400000000  0.4407510000000  0.4904690000000 1.0
C      1  0.4360080000000  0.4477140000000  0.5136300000000 1.0
C      1  0.5651540000000  0.4513100000000  0.5147150000000 1.0
C      1  0.4398950000000  0.4438010000000  0.4820580000000 1.0
C      1  0.4732580000000  0.4654840000000  0.4428530000000 1.0
C      1  0.5283220000000  0.4636470000000  0.5559980000000 1.0
C      1  0.4702650000000  0.4640050000000  0.5574560000000 1.0
C      1  0.5297300000000  0.4608310000000  0.4420900000000 1.0
C      1  0.5237340000000  0.4458190000000  0.4879910000000 1.0
C      1  0.4772600000000  0.4364300000000  0.5112550000000 1.0
C      1  0.5092040000000  0.4436970000000  0.5138940000000 1.0
C      1  0.4705780000000  0.4339270000000  0.4833830000000 1.0
C      1  0.4430300000000  0.5218770000000  0.4860080000000 1.0
C      1  0.5561910000000  0.5246550000000  0.5135000000000 1.0
C      1  0.4404750000000  0.5265430000000  0.5180590000000 1.0
C      1  0.5564790000000  0.5257000000000  0.4808290000000 1.0
C      1  0.5648280000000  0.4987810000000  0.5248690000000 1.0
C      1  0.4226910000000  0.5031350000000  0.4772260000000 1.0
C      1  0.5786120000000  0.5074110000000  0.4701020000000 1.0
C      1  0.4223820000000  0.5074910000000  0.5294460000000 1.0
C      1  0.4828570000000  0.5169840000000  0.4304450000000 1.0
C      1  0.5119780000000  0.5142550000000  0.5653050000000 1.0
C      1  0.4813230000000  0.5177480000000  0.5667830000000 1.0
C      1  0.5137530000000  0.5150210000000  0.4349560000000 1.0
C      1  0.4636310000000  0.5419630000000  0.4681230000000 1.0
C      1  0.5423960000000  0.5510160000000  0.5269340000000 1.0
C      1  0.4624160000000  0.5484340000000  0.5320470000000 1.0
C      1  0.5411130000000  0.5536480000000  0.4745040000000 1.0
C      1  0.4708940000000  0.5408630000000  0.4392040000000 1.0
C      1  0.5273530000000  0.5423910000000  0.5565650000000 1.0
C      1  0.4715320000000  0.5433190000000  0.5608710000000 1.0
C      1  0.5259360000000  0.5436330000000  0.4453720000000 1.0
C      1  0.4290250000000  0.4792560000000  0.5201840000000 1.0
C      1  0.5755210000000  0.4816670000000  0.4788830000000 1.0
C      1  0.4296620000000  0.4763570000000  0.4866640000000 1.0
C      1  0.5769440000000  0.4777520000000  0.5075040000000 1.0
C      1  0.4913380000000  0.5390990000000  0.5166660000000 1.0
C      1  0.5173500000000  0.5305030000000  0.4744690000000 1.0
C      1  0.4905700000000  0.5341240000000  0.4856110000000 1.0
C      1  0.5166590000000  0.5304320000000  0.5280780000000 1.0
C      1  0.4835040000000  0.4399440000000  0.5437580000000 1.0
C      1  0.5129160000000  0.4431060000000  0.4591610000000 1.0
C      1  0.4850210000000  0.4423580000000  0.4590530000000 1.0
C      1  0.5137370000000  0.4413650000000  0.5472700000000 1.0
C      1  0.5308560000000  0.5053190000000  0.4868690000000 1.0
C      1  0.4706530000000  0.5141730000000  0.5137800000000 1.0
C      1  0.5256190000000  0.5040290000000  0.5167720000000 1.0
C      1  0.4727430000000  0.5056330000000  0.4816700000000 1.0
C      1  0.4586060000000  0.4698780000000  0.4708360000000 1.0
C      1  0.5454320000000  0.4730910000000  0.5319380000000 1.0
C      1  0.4592210000000  0.4677480000000  0.5285710000000 1.0
C      1  0.5510390000000  0.4656690000000  0.4670320000000 1.0
C      1  0.4597270000000  0.5558040000000  0.4989330000000 1.0
C      1  0.5430240000000  0.5674140000000  0.5007840000000 1.0
END
