TITL C-2622956-4641-670 -0.000937951337298608 125000 -747.676361746089 0 0 143 (C1) n - 1
REM
REM in /nfs/bkarasulu/CARBON/AIRSS/Generating-Clusters/AIREBO/with-SteepDescent/Higher-Symm/SD-CG/HFTN-CG
REM
REM
REM
REM
REM
REM ./C.cell (b20cbc046b6831c77cfcea5457e17084)
REM
REM compiler GCC version 9.2.1 20190827 (Red Hat 9.2.1-1)
REM options -cpp -mtune=generic -march=x86-64 -g -O0 -fpre-include=/usr/include/finclude/math-vector-fortran.h
REM seed 1911425214 59579069 -807078131 -1684964057 -18590744 -896987125 2038314363 498004796 -300710076 -514772022 -211359629 -555812836 1497093977 -394913466 -892693051 1369022824 -531557171 1603293190 -1935546056 1537216537 925459830 -699825649 -205021218 1285312357 -1087316615 725224258 1065076580 -1181254939 1968677094 -308371924 611513622 -330699696 541283252
REM
CELL 1.54180   50.00000   50.00000   50.00000   90.00000   90.00000   90.00000
LATT -1
SFAC C  
C      1  0.4931250000000  0.4158320000000  0.4316720000000 1.0
C      1  0.4605930000000  0.4513200000000  0.5584980000000 1.0
C      1  0.4345020000000  0.4878260000000  0.4393750000000 1.0
C      1  0.4205050000000  0.5285010000000  0.5656790000000 1.0
C      1  0.4674880000000  0.5516200000000  0.4464270000000 1.0
C      1  0.5046450000000  0.5616850000000  0.5576430000000 1.0
C      1  0.5343230000000  0.5468740000000  0.4445130000000 1.0
C      1  0.5634260000000  0.5163300000000  0.5591400000000 1.0
C      1  0.5543430000000  0.4711350000000  0.4477390000000 1.0
C      1  0.5447020000000  0.4577950000000  0.5452360000000 1.0
C      1  0.5832530000000  0.5357830000000  0.4963960000000 1.0
C      1  0.5945660000000  0.4753580000000  0.5052110000000 1.0
C      1  0.5624320000000  0.4356840000000  0.4982490000000 1.0
C      1  0.5120710000000  0.4116520000000  0.4988160000000 1.0
C      1  0.4615530000000  0.4113570000000  0.5014290000000 1.0
C      1  0.4120570000000  0.4589130000000  0.5005580000000 1.0
C      1  0.4020870000000  0.5209530000000  0.4966060000000 1.0
C      1  0.4330160000000  0.5648010000000  0.5064850000000 1.0
C      1  0.4878600000000  0.5959070000000  0.5012130000000 1.0
C      1  0.5449790000000  0.5822270000000  0.5019540000000 1.0
C      1  0.4509480000000  0.4920720000000  0.4758070000000 1.0
C      1  0.4609110000000  0.5222300000000  0.5333380000000 1.0
C      1  0.4764090000000  0.5386610000000  0.4831410000000 1.0
C      1  0.5098610000000  0.5381990000000  0.5235360000000 1.0
C      1  0.5280770000000  0.5233890000000  0.4804920000000 1.0
C      1  0.5455270000000  0.5094670000000  0.5243120000000 1.0
C      1  0.5325960000000  0.4838040000000  0.4786150000000 1.0
C      1  0.5090740000000  0.4710660000000  0.5158910000000 1.0
C      1  0.4854040000000  0.4579110000000  0.4641320000000 1.0
C      1  0.4625930000000  0.4666920000000  0.5211770000000 1.0
C      1  0.4440080000000  0.4951610000000  0.5215220000000 1.0
C      1  0.4512600000000  0.5237540000000  0.4853810000000 1.0
C      1  0.4799680000000  0.5472590000000  0.5237670000000 1.0
C      1  0.5079280000000  0.5504310000000  0.4857070000000 1.0
C      1  0.5422240000000  0.5407950000000  0.5196730000000 1.0
C      1  0.5571190000000  0.5060550000000  0.4841220000000 1.0
C      1  0.5418210000000  0.4764950000000  0.5198800000000 1.0
C      1  0.5154000000000  0.4457900000000  0.4707630000000 1.0
C      1  0.4846480000000  0.4493220000000  0.5090450000000 1.0
C      1  0.4569940000000  0.4623240000000  0.4794250000000 1.0
C      1  0.5492790000000  0.5721840000000  0.4714570000000 1.0
C      1  0.5837370000000  0.5275050000000  0.5267920000000 1.0
C      1  0.5839290000000  0.4738680000000  0.4741180000000 1.0
C      1  0.5664180000000  0.4305840000000  0.5265330000000 1.0
C      1  0.5021440000000  0.4082300000000  0.4693240000000 1.0
C      1  0.4532430000000  0.4251680000000  0.5294280000000 1.0
C      1  0.4164380000000  0.4725710000000  0.4713960000000 1.0
C      1  0.4114550000000  0.5205500000000  0.5280130000000 1.0
C      1  0.4462630000000  0.5667170000000  0.4765700000000 1.0
C      1  0.4975010000000  0.5902910000000  0.5313070000000 1.0
C      1  0.5734930000000  0.4996870000000  0.5101280000000 1.0
C      1  0.5573890000000  0.4671510000000  0.4933700000000 1.0
C      1  0.5234240000000  0.4435490000000  0.5019970000000 1.0
C      1  0.4803150000000  0.4302640000000  0.4832740000000 1.0
C      1  0.4419720000000  0.4467130000000  0.5056370000000 1.0
C      1  0.4235350000000  0.4965960000000  0.4944040000000 1.0
C      1  0.4372050000000  0.5329680000000  0.5114110000000 1.0
C      1  0.4719120000000  0.5677980000000  0.4988730000000 1.0
C      1  0.5157860000000  0.5696560000000  0.5120630000000 1.0
C      1  0.5525120000000  0.5453220000000  0.4893470000000 1.0
C      1  0.4541380000000  0.4332350000000  0.4617690000000 1.0
C      1  0.4205960000000  0.4721600000000  0.5304640000000 1.0
C      1  0.4219780000000  0.5287130000000  0.4707550000000 1.0
C      1  0.4512580000000  0.5616230000000  0.5350040000000 1.0
C      1  0.5004200000000  0.5809920000000  0.4743070000000 1.0
C      1  0.5497750000000  0.5697320000000  0.5330790000000 1.0
C      1  0.5769480000000  0.5250780000000  0.4651540000000 1.0
C      1  0.5937530000000  0.4763170000000  0.5353570000000 1.0
C      1  0.5430510000000  0.4277260000000  0.4714480000000 1.0
C      1  0.5063080000000  0.4303740000000  0.5282650000000 1.0
C      1  0.5705370000000  0.4726350000000  0.5776490000000 1.0
C      1  0.5431880000000  0.4318400000000  0.4207350000000 1.0
C      1  0.5061700000000  0.4274100000000  0.5681500000000 1.0
C      1  0.4552040000000  0.4440350000000  0.4234620000000 1.0
C      1  0.4289450000000  0.4826740000000  0.5803600000000 1.0
C      1  0.4324890000000  0.5343000000000  0.4202950000000 1.0
C      1  0.4563830000000  0.5576740000000  0.5744330000000 1.0
C      1  0.5085620000000  0.5696560000000  0.4240980000000 1.0
C      1  0.5514670000000  0.5578360000000  0.5753040000000 1.0
C      1  0.5688910000000  0.5166500000000  0.4240510000000 1.0
C      1  0.5245930000000  0.5596590000000  0.5835060000000 1.0
C      1  0.5458100000000  0.5321300000000  0.4180710000000 1.0
C      1  0.5590690000000  0.4992360000000  0.5862530000000 1.0
C      1  0.5448770000000  0.4611160000000  0.4196040000000 1.0
C      1  0.5243060000000  0.4481000000000  0.5687360000000 1.0
C      1  0.4827000000000  0.4399090000000  0.4221830000000 1.0
C      1  0.4538870000000  0.4679830000000  0.5865570000000 1.0
C      1  0.4394690000000  0.5079270000000  0.4141720000000 1.0
C      1  0.4449400000000  0.5322060000000  0.5783190000000 1.0
C      1  0.4866880000000  0.5529870000000  0.4206400000000 1.0
C      1  0.4110830000000  0.5023800000000  0.4569610000000 1.0
C      1  0.4204500000000  0.5497960000000  0.5431980000000 1.0
C      1  0.4724660000000  0.5804570000000  0.4610340000000 1.0
C      1  0.5269310000000  0.5842690000000  0.5474680000000 1.0
C      1  0.5663890000000  0.5499940000000  0.4521890000000 1.0
C      1  0.5913940000000  0.5020860000000  0.5460390000000 1.0
C      1  0.5687430000000  0.4458410000000  0.4618520000000 1.0
C      1  0.5379370000000  0.4249650000000  0.5395140000000 1.0
C      1  0.4725370000000  0.4059520000000  0.4527430000000 1.0
C      1  0.4312250000000  0.4466460000000  0.5440000000000 1.0
C      1  0.4841290000000  0.5248670000000  0.5584160000000 1.0
C      1  0.4909990000000  0.5293630000000  0.4568340000000 1.0
C      1  0.5229520000000  0.5332730000000  0.5538240000000 1.0
C      1  0.5268510000000  0.5138590000000  0.4478620000000 1.0
C      1  0.5366630000000  0.4959050000000  0.5541800000000 1.0
C      1  0.5203800000000  0.4707470000000  0.4496840000000 1.0
C      1  0.4955570000000  0.4782800000000  0.5437380000000 1.0
C      1  0.4831560000000  0.4771730000000  0.4366770000000 1.0
C      1  0.4552610000000  0.4839180000000  0.5504140000000 1.0
C      1  0.4615590000000  0.5069220000000  0.4470740000000 1.0
C      1  0.5016330000000  0.5347110000000  0.5864690000000 1.0
C      1  0.5154540000000  0.5189780000000  0.4101290000000 1.0
C      1  0.5328160000000  0.5208910000000  0.5846810000000 1.0
C      1  0.5357040000000  0.4938920000000  0.4210800000000 1.0
C      1  0.5184640000000  0.4771460000000  0.5762530000000 1.0
C      1  0.5051100000000  0.4619820000000  0.4203830000000 1.0
C      1  0.4848040000000  0.4778080000000  0.5760090000000 1.0
C      1  0.4688790000000  0.4932390000000  0.4102560000000 1.0
C      1  0.4642760000000  0.5049260000000  0.5756010000000 1.0
C      1  0.4848210000000  0.5191500000000  0.4254480000000 1.0
C      1  0.5246560000000  0.4167610000000  0.4449990000000 1.0
C      1  0.4800680000000  0.4278570000000  0.5489320000000 1.0
C      1  0.4341420000000  0.4558900000000  0.4474360000000 1.0
C      1  0.4156810000000  0.4974700000000  0.5526340000000 1.0
C      1  0.4342370000000  0.5494480000000  0.4497720000000 1.0
C      1  0.4753030000000  0.5750710000000  0.5521060000000 1.0
C      1  0.5227000000000  0.5766280000000  0.4531230000000 1.0
C      1  0.5700930000000  0.5480570000000  0.5485200000000 1.0
C      1  0.5752620000000  0.4958420000000  0.4500400000000 1.0
C      1  0.5768190000000  0.4546260000000  0.5493350000000 1.0
C      1  0.5067190000000  0.4717390000000  0.3924220000000 1.0
C      1  0.4844080000000  0.4782370000000  0.6159310000000 1.0
C      1  0.4824820000000  0.4849780000000  0.3846840000000 1.0
C      1  0.4706240000000  0.5032930000000  0.6089670000000 1.0
C      1  0.4895390000000  0.5067470000000  0.3667260000000 1.0
C      1  0.4904790000000  0.5240620000000  0.6141960000000 1.0
C      1  0.5155420000000  0.5152140000000  0.3770660000000 1.0
C      1  0.5183820000000  0.5096600000000  0.6121370000000 1.0
C      1  0.5294720000000  0.4892140000000  0.3879910000000 1.0
C      1  0.5119280000000  0.4821960000000  0.6070600000000 1.0
C      1  0.5066210000000  0.5058410000000  0.5484970000000 1.0
C      1  0.5004250000000  0.4977050000000  0.4553330000000 1.0
C      1  0.5100160000000  0.4989440000000  0.4972330000000 1.0
END
