TITL C-2622955-8511-469 -9.39341364586221e-05 125000 -341.64353042823 0 0 67 (C1) n - 1
REM
REM in /nfs/bkarasulu/CARBON/AIRSS/Generating-Clusters/AIREBO/with-SteepDescent/Higher-Symm/SD-CG/HFTN-CG
REM
REM
REM
REM
REM
REM ./C.cell (b20cbc046b6831c77cfcea5457e17084)
REM
REM compiler GCC version 9.2.1 20190827 (Red Hat 9.2.1-1)
REM options -cpp -mtune=generic -march=x86-64 -g -O0 -fpre-include=/usr/include/finclude/math-vector-fortran.h
REM seed 1131550659 2031854523 -1656979116 923318004 -663481428 -753117206 234566365 -206688532 203443568 -1438816909 -1548635828 156148064 925273031 -208389482 168673579 1188162511 -1969846478 1458035395 795923290 211100987 1366974332 -1020666138 -1962832888 313165166 361075060 6231593 2016964543 -350246175 -1660395173 -704643956 -193840816 1052106276 1926570578
REM
CELL 1.54180   50.00000   50.00000   50.00000   90.00000   90.00000   90.00000
LATT -1
SFAC C  
C      1  0.5226650000000  0.4427150000000  0.4766960000000 1.0
C      1  0.5235120000000  0.4340810000000  0.5096480000000 1.0
C      1  0.5005920000000  0.4497850000000  0.5282330000000 1.0
C      1  0.4820480000000  0.4551290000000  0.5002310000000 1.0
C      1  0.4902290000000  0.4324870000000  0.4768190000000 1.0
C      1  0.4750570000000  0.5600320000000  0.4840420000000 1.0
C      1  0.4734080000000  0.5607600000000  0.5158590000000 1.0
C      1  0.5036680000000  0.5535530000000  0.5279090000000 1.0
C      1  0.5182310000000  0.5400910000000  0.5002120000000 1.0
C      1  0.5038850000000  0.5542440000000  0.4755920000000 1.0
C      1  0.5270690000000  0.5627160000000  0.4532250000000 1.0
C      1  0.5490940000000  0.5539220000000  0.5037980000000 1.0
C      1  0.5093910000000  0.5636850000000  0.5599010000000 1.0
C      1  0.4410350000000  0.5634420000000  0.5246200000000 1.0
C      1  0.4567450000000  0.5656410000000  0.4559920000000 1.0
C      1  0.4721120000000  0.4352320000000  0.4515660000000 1.0
C      1  0.4508220000000  0.4432970000000  0.5066450000000 1.0
C      1  0.4976930000000  0.4367590000000  0.5595200000000 1.0
C      1  0.5476280000000  0.4335520000000  0.5229170000000 1.0
C      1  0.5410460000000  0.4358020000000  0.4489320000000 1.0
C      1  0.5641720000000  0.4563200000000  0.5197680000000 1.0
C      1  0.5002790000000  0.4605960000000  0.5785130000000 1.0
C      1  0.4392140000000  0.4637490000000  0.5214370000000 1.0
C      1  0.4655630000000  0.4575200000000  0.4408820000000 1.0
C      1  0.5423730000000  0.4607440000000  0.4351850000000 1.0
C      1  0.4284840000000  0.5390100000000  0.5197470000000 1.0
C      1  0.4982520000000  0.5405360000000  0.5729650000000 1.0
C      1  0.5623010000000  0.5342080000000  0.5191350000000 1.0
C      1  0.5386090000000  0.5432600000000  0.4409210000000 1.0
C      1  0.4567200000000  0.5424660000000  0.4403810000000 1.0
C      1  0.4265960000000  0.5336920000000  0.4919100000000 1.0
C      1  0.4841020000000  0.5335920000000  0.4332940000000 1.0
C      1  0.5646160000000  0.5377400000000  0.4707320000000 1.0
C      1  0.5500910000000  0.5346600000000  0.5444380000000 1.0
C      1  0.4710040000000  0.5394570000000  0.5650300000000 1.0
C      1  0.5704780000000  0.4590420000000  0.4924370000000 1.0
C      1  0.5151420000000  0.4680600000000  0.4278110000000 1.0
C      1  0.4376000000000  0.4574640000000  0.4698680000000 1.0
C      1  0.4518610000000  0.4642400000000  0.5465150000000 1.0
C      1  0.5285390000000  0.4607530000000  0.5678520000000 1.0
C      1  0.5524500000000  0.4841260000000  0.5291200000000 1.0
C      1  0.4897540000000  0.4899260000000  0.5675540000000 1.0
C      1  0.4430980000000  0.4914910000000  0.5070960000000 1.0
C      1  0.4776920000000  0.4855770000000  0.4557860000000 1.0
C      1  0.5513480000000  0.4859580000000  0.4533680000000 1.0
C      1  0.4455270000000  0.5130980000000  0.5290570000000 1.0
C      1  0.5110330000000  0.5112250000000  0.5663960000000 1.0
C      1  0.5589470000000  0.5047480000000  0.5073510000000 1.0
C      1  0.5300600000000  0.5123690000000  0.4522860000000 1.0
C      1  0.4587840000000  0.5121180000000  0.4555820000000 1.0
C      1  0.5231620000000  0.5304120000000  0.5434340000000 1.0
C      1  0.4664150000000  0.5362930000000  0.5384530000000 1.0
C      1  0.4562660000000  0.5343850000000  0.4804760000000 1.0
C      1  0.5020530000000  0.5316240000000  0.4532510000000 1.0
C      1  0.5406010000000  0.5206390000000  0.4835400000000 1.0
C      1  0.4786370000000  0.4689140000000  0.5458070000000 1.0
C      1  0.5285040000000  0.4648920000000  0.5404380000000 1.0
C      1  0.5489890000000  0.4642360000000  0.4768390000000 1.0
C      1  0.5016440000000  0.4615030000000  0.4576640000000 1.0
C      1  0.4603380000000  0.4748090000000  0.4829730000000 1.0
C      1  0.5720050000000  0.4967900000000  0.4776500000000 1.0
C      1  0.4596250000000  0.5019000000000  0.5574470000000 1.0
C      1  0.4341820000000  0.5046150000000  0.4779060000000 1.0
C      1  0.5412840000000  0.4981360000000  0.5580340000000 1.0
C      1  0.5049520000000  0.4952330000000  0.4370500000000 1.0
C      1  0.4952100000000  0.4864620000000  0.5016160000000 1.0
C      1  0.5046700000000  0.5089440000000  0.5017770000000 1.0
END
