TITL C-2622964-2985-619 0.00233131903401472 125000 -684.564615754055 0 0 129 (C1) n - 1
REM
REM in /nfs/bkarasulu/CARBON/AIRSS/Generating-Clusters/AIREBO/with-SteepDescent/Higher-Symm/SD-CG/HFTN-CG
REM
REM
REM
REM
REM
REM ./C.cell (b20cbc046b6831c77cfcea5457e17084)
REM
REM compiler GCC version 9.2.1 20190827 (Red Hat 9.2.1-1)
REM options -cpp -mtune=generic -march=x86-64 -g -O0 -fpre-include=/usr/include/finclude/math-vector-fortran.h
REM seed 85808358 -1974138447 889168533 521256241 1968465849 -525024502 737122629 2004757458 1440609513 1886796363 2069047140 882575022 1699019303 -225845466 -590074129 1952097114 71559723 -935809193 2092500575 1419861219 980350357 1742856670 56452825 -345088763 -1590884789 44513066 -1495689938 -455611121 495989767 1010048483 1975646947 -782820931 934265690
REM
CELL 1.54180   50.00000   50.00000   50.00000   90.00000   90.00000   90.00000
LATT -1
SFAC C  
C      1  0.5166390000000  0.4325140000000  0.4296150000000 1.0
C      1  0.5713860000000  0.5679020000000  0.4629700000000 1.0
C      1  0.5702140000000  0.4343350000000  0.5194390000000 1.0
C      1  0.5367090000000  0.5668130000000  0.5531120000000 1.0
C      1  0.4754160000000  0.4360940000000  0.5754270000000 1.0
C      1  0.4270720000000  0.5634040000000  0.5361740000000 1.0
C      1  0.4383450000000  0.4316620000000  0.4762000000000 1.0
C      1  0.4698320000000  0.5696730000000  0.4357100000000 1.0
C      1  0.5166480000000  0.4327560000000  0.5132400000000 1.0
C      1  0.4989350000000  0.5626150000000  0.5178740000000 1.0
C      1  0.4890400000000  0.4254470000000  0.5283740000000 1.0
C      1  0.4718120000000  0.5563720000000  0.5018060000000 1.0
C      1  0.4811590000000  0.4302040000000  0.4956280000000 1.0
C      1  0.4914100000000  0.5700030000000  0.4795290000000 1.0
C      1  0.5103890000000  0.4252810000000  0.4810570000000 1.0
C      1  0.5205770000000  0.5725060000000  0.4935610000000 1.0
C      1  0.5007920000000  0.4831410000000  0.5950710000000 1.0
C      1  0.4330450000000  0.5199430000000  0.5714480000000 1.0
C      1  0.4042520000000  0.4857270000000  0.4957070000000 1.0
C      1  0.4386560000000  0.5217540000000  0.4339000000000 1.0
C      1  0.5060770000000  0.4832700000000  0.4072130000000 1.0
C      1  0.5738090000000  0.5234080000000  0.4363590000000 1.0
C      1  0.5941200000000  0.4797120000000  0.4993760000000 1.0
C      1  0.5655660000000  0.5156100000000  0.5642660000000 1.0
C      1  0.4832770000000  0.4573660000000  0.4752270000000 1.0
C      1  0.5046090000000  0.5385360000000  0.4801240000000 1.0
C      1  0.5294070000000  0.4531700000000  0.4835270000000 1.0
C      1  0.5151850000000  0.5209310000000  0.5072570000000 1.0
C      1  0.5018920000000  0.4628620000000  0.5189850000000 1.0
C      1  0.4900170000000  0.5312780000000  0.5276520000000 1.0
C      1  0.4719840000000  0.4681570000000  0.5036950000000 1.0
C      1  0.4748900000000  0.5260970000000  0.4909960000000 1.0
C      1  0.5531140000000  0.5244890000000  0.4093590000000 1.0
C      1  0.5998650000000  0.4805440000000  0.4658610000000 1.0
C      1  0.5953420000000  0.5191030000000  0.5472910000000 1.0
C      1  0.5341580000000  0.4801260000000  0.6025500000000 1.0
C      1  0.4580710000000  0.5206950000000  0.5945640000000 1.0
C      1  0.3986370000000  0.4868200000000  0.5292790000000 1.0
C      1  0.4080660000000  0.5228530000000  0.4491900000000 1.0
C      1  0.4721470000000  0.4810620000000  0.4063090000000 1.0
C      1  0.5465380000000  0.4211860000000  0.5022000000000 1.0
C      1  0.5225760000000  0.5821760000000  0.5262720000000 1.0
C      1  0.4946460000000  0.4223570000000  0.5553170000000 1.0
C      1  0.4584600000000  0.5696600000000  0.5294320000000 1.0
C      1  0.4516900000000  0.4227440000000  0.5001150000000 1.0
C      1  0.4663370000000  0.5799540000000  0.4631970000000 1.0
C      1  0.5062250000000  0.4125180000000  0.4550690000000 1.0
C      1  0.5405090000000  0.5798750000000  0.4706810000000 1.0
C      1  0.4356960000000  0.5392980000000  0.5055650000000 1.0
C      1  0.4580680000000  0.4576100000000  0.4532180000000 1.0
C      1  0.4955910000000  0.5414720000000  0.4471440000000 1.0
C      1  0.5392160000000  0.4566840000000  0.4520430000000 1.0
C      1  0.5627110000000  0.5450620000000  0.4945030000000 1.0
C      1  0.5476090000000  0.4646010000000  0.5318670000000 1.0
C      1  0.5053250000000  0.5421660000000  0.5559910000000 1.0
C      1  0.4564250000000  0.4609060000000  0.5506500000000 1.0
C      1  0.4355890000000  0.5730210000000  0.5044990000000 1.0
C      1  0.4579500000000  0.4267940000000  0.4488320000000 1.0
C      1  0.5014030000000  0.5724650000000  0.4344280000000 1.0
C      1  0.5433940000000  0.4249590000000  0.4493070000000 1.0
C      1  0.5682860000000  0.5786290000000  0.4950870000000 1.0
C      1  0.5447400000000  0.4335750000000  0.5415520000000 1.0
C      1  0.5042490000000  0.5738560000000  0.5605980000000 1.0
C      1  0.4538850000000  0.4292550000000  0.5515420000000 1.0
C      1  0.5070060000000  0.4674500000000  0.4536800000000 1.0
C      1  0.5384690000000  0.5363780000000  0.4778180000000 1.0
C      1  0.5511460000000  0.4699310000000  0.5005810000000 1.0
C      1  0.5293960000000  0.5300540000000  0.5369820000000 1.0
C      1  0.4859760000000  0.4683770000000  0.5480270000000 1.0
C      1  0.4561350000000  0.5290310000000  0.5257770000000 1.0
C      1  0.4424280000000  0.4615820000000  0.5023740000000 1.0
C      1  0.4682050000000  0.5282880000000  0.4599080000000 1.0
C      1  0.5105450000000  0.4570240000000  0.5667490000000 1.0
C      1  0.4631180000000  0.5401900000000  0.5557820000000 1.0
C      1  0.4357390000000  0.4727590000000  0.5307770000000 1.0
C      1  0.4374120000000  0.5328070000000  0.4736840000000 1.0
C      1  0.4804540000000  0.4720360000000  0.4381450000000 1.0
C      1  0.5352920000000  0.5386440000000  0.4459390000000 1.0
C      1  0.5611290000000  0.4729230000000  0.4695180000000 1.0
C      1  0.5594100000000  0.5402520000000  0.5268180000000 1.0
C      1  0.5139800000000  0.5216340000000  0.5781940000000 1.0
C      1  0.4473770000000  0.4803630000000  0.5752810000000 1.0
C      1  0.4076350000000  0.5232240000000  0.5154300000000 1.0
C      1  0.4311950000000  0.4731140000000  0.4501860000000 1.0
C      1  0.4923890000000  0.5290250000000  0.4160960000000 1.0
C      1  0.5514840000000  0.4766160000000  0.4273800000000 1.0
C      1  0.5882080000000  0.5272030000000  0.4854010000000 1.0
C      1  0.5724840000000  0.4781770000000  0.5475290000000 1.0
C      1  0.4689760000000  0.4983920000000  0.5190280000000 1.0
C      1  0.4547800000000  0.5003650000000  0.4881960000000 1.0
C      1  0.4918350000000  0.5038430000000  0.4594130000000 1.0
C      1  0.5221110000000  0.4956340000000  0.4581110000000 1.0
C      1  0.5398320000000  0.5051030000000  0.4800200000000 1.0
C      1  0.5412420000000  0.4999450000000  0.5136000000000 1.0
C      1  0.5233900000000  0.4828430000000  0.5361540000000 1.0
C      1  0.4888950000000  0.5008620000000  0.5435820000000 1.0
C      1  0.5967070000000  0.5104070000000  0.5138450000000 1.0
C      1  0.5522740000000  0.4865760000000  0.5745100000000 1.0
C      1  0.4861760000000  0.5138200000000  0.5961530000000 1.0
C      1  0.4220770000000  0.4935140000000  0.5530080000000 1.0
C      1  0.4086510000000  0.5164350000000  0.4815240000000 1.0
C      1  0.4441850000000  0.4898280000000  0.4235750000000 1.0
C      1  0.5197700000000  0.5145070000000  0.4058890000000 1.0
C      1  0.5755390000000  0.4926170000000  0.4453360000000 1.0
C      1  0.4307460000000  0.4989580000000  0.5096810000000 1.0
C      1  0.4391520000000  0.5012630000000  0.4610980000000 1.0
C      1  0.4804720000000  0.5042710000000  0.4295260000000 1.0
C      1  0.5374810000000  0.5069100000000  0.4339120000000 1.0
C      1  0.5714100000000  0.5004590000000  0.4848880000000 1.0
C      1  0.5676130000000  0.5076480000000  0.5312560000000 1.0
C      1  0.5192300000000  0.4898960000000  0.5671810000000 1.0
C      1  0.4607200000000  0.5063190000000  0.5579880000000 1.0
C      1  0.5481620000000  0.4140640000000  0.4742360000000 1.0
C      1  0.5528010000000  0.5713770000000  0.5227070000000 1.0
C      1  0.5236950000000  0.4314430000000  0.5599040000000 1.0
C      1  0.4752330000000  0.5682580000000  0.5555130000000 1.0
C      1  0.4469610000000  0.4158900000000  0.5277150000000 1.0
C      1  0.4448400000000  0.5864330000000  0.4785740000000 1.0
C      1  0.4832870000000  0.4209030000000  0.4364290000000 1.0
C      1  0.5286010000000  0.5664650000000  0.4448060000000 1.0
C      1  0.4748070000000  0.4633590000000  0.5860330000000 1.0
C      1  0.4192720000000  0.5352540000000  0.5443410000000 1.0
C      1  0.4212810000000  0.4609760000000  0.4789790000000 1.0
C      1  0.4626350000000  0.5436810000000  0.4237220000000 1.0
C      1  0.5219000000000  0.4635790000000  0.4168160000000 1.0
C      1  0.5831630000000  0.5424960000000  0.4576360000000 1.0
C      1  0.5856870000000  0.4596090000000  0.5221290000000 1.0
C      1  0.5430550000000  0.5374010000000  0.5672450000000 1.0
C      1  0.5039200000000  0.4916330000000  0.5025150000000 1.0
END
