TITL C-2622954-8726-580 0.00169575927834518 125000 -332.420984334959 0 0 59 (C1) n - 1
REM
REM in /nfs/bkarasulu/CARBON/AIRSS/Generating-Clusters/AIREBO/with-SteepDescent/Higher-Symm/SD-CG/HFTN-CG
REM
REM
REM
REM
REM
REM ./C.cell (b20cbc046b6831c77cfcea5457e17084)
REM
REM compiler GCC version 9.2.1 20190827 (Red Hat 9.2.1-1)
REM options -cpp -mtune=generic -march=x86-64 -g -O0 -fpre-include=/usr/include/finclude/math-vector-fortran.h
REM seed -942425631 1422467593 68111316 151302414 921034559 1128373923 1672404137 487734181 -1524291905 1733634734 -221354716 36257276 -1856842570 1191258836 621231725 -1920019822 753311466 -685181028 -67755256 1780850080 -1414196918 1614790965 1473727992 -1351343550 1019457508 -1488782107 -1345037364 697994619 -2118755328 241817058 -1831492036 -716449813 232120975
REM
CELL 1.54180   50.00000   50.00000   50.00000   90.00000   90.00000   90.00000
LATT -1
SFAC C  
C      1  0.5315630000000  0.5488580000000  0.4619210000000 1.0
C      1  0.5165930000000  0.5638770000000  0.5310320000000 1.0
C      1  0.5329590000000  0.5185640000000  0.5394330000000 1.0
C      1  0.5640080000000  0.4720030000000  0.5723540000000 1.0
C      1  0.5306060000000  0.4382040000000  0.4998830000000 1.0
C      1  0.5244490000000  0.4626700000000  0.4691460000000 1.0
C      1  0.5624790000000  0.5002450000000  0.4506430000000 1.0
C      1  0.4993010000000  0.5809680000000  0.4738820000000 1.0
C      1  0.4816470000000  0.5548580000000  0.5610910000000 1.0
C      1  0.4982170000000  0.4959120000000  0.5657920000000 1.0
C      1  0.5102750000000  0.4454740000000  0.5455450000000 1.0
C      1  0.4809430000000  0.4237960000000  0.4754290000000 1.0
C      1  0.4888100000000  0.4712060000000  0.4368820000000 1.0
C      1  0.4944100000000  0.5197930000000  0.4098510000000 1.0
C      1  0.4559290000000  0.4629570000000  0.4299390000000 1.0
C      1  0.4687430000000  0.5296020000000  0.4249750000000 1.0
C      1  0.4702390000000  0.5788720000000  0.4876610000000 1.0
C      1  0.4458380000000  0.5611330000000  0.5615280000000 1.0
C      1  0.4603370000000  0.4987550000000  0.5804860000000 1.0
C      1  0.4804430000000  0.4360970000000  0.5433340000000 1.0
C      1  0.4406140000000  0.4337200000000  0.4797020000000 1.0
C      1  0.5088150000000  0.5653430000000  0.5546990000000 1.0
C      1  0.5256600000000  0.4998400000000  0.5588840000000 1.0
C      1  0.5321150000000  0.4594650000000  0.5372170000000 1.0
C      1  0.5052440000000  0.4312780000000  0.4869280000000 1.0
C      1  0.5165100000000  0.4779890000000  0.4443470000000 1.0
C      1  0.5172700000000  0.5224620000000  0.4236060000000 1.0
C      1  0.5197250000000  0.5630260000000  0.4814750000000 1.0
C      1  0.5173440000000  0.5219020000000  0.4553440000000 1.0
C      1  0.5137520000000  0.5456950000000  0.5057680000000 1.0
C      1  0.5312190000000  0.5217580000000  0.5124840000000 1.0
C      1  0.5415320000000  0.4973560000000  0.4960410000000 1.0
C      1  0.5305340000000  0.4712310000000  0.5076730000000 1.0
C      1  0.5013020000000  0.4640770000000  0.4923960000000 1.0
C      1  0.5362290000000  0.4980710000000  0.4634490000000 1.0
C      1  0.4844110000000  0.5342850000000  0.5002330000000 1.0
C      1  0.4463130000000  0.5181500000000  0.5350730000000 1.0
C      1  0.4558770000000  0.4873910000000  0.5327530000000 1.0
C      1  0.4576940000000  0.4647180000000  0.5139970000000 1.0
C      1  0.4722690000000  0.4724040000000  0.4881170000000 1.0
C      1  0.4691510000000  0.4970420000000  0.4697800000000 1.0
C      1  0.4865360000000  0.5229590000000  0.4698780000000 1.0
C      1  0.4761240000000  0.4411340000000  0.4464320000000 1.0
C      1  0.4742230000000  0.4961320000000  0.4187230000000 1.0
C      1  0.4738680000000  0.5688060000000  0.4571930000000 1.0
C      1  0.4628740000000  0.5627430000000  0.5343120000000 1.0
C      1  0.4801230000000  0.5237040000000  0.5733420000000 1.0
C      1  0.4880780000000  0.4635510000000  0.5621370000000 1.0
C      1  0.4593360000000  0.4200970000000  0.4982510000000 1.0
C      1  0.4556810000000  0.4915840000000  0.4456580000000 1.0
C      1  0.4728640000000  0.5422820000000  0.4492220000000 1.0
C      1  0.4683730000000  0.5598950000000  0.5078590000000 1.0
C      1  0.4500870000000  0.5308630000000  0.5590970000000 1.0
C      1  0.4621050000000  0.4794040000000  0.5610300000000 1.0
C      1  0.4632180000000  0.4376750000000  0.5214720000000 1.0
C      1  0.4555590000000  0.4537420000000  0.4680940000000 1.0
C      1  0.5726890000000  0.4971400000000  0.4980880000000 1.0
C      1  0.5423040000000  0.4765270000000  0.5572840000000 1.0
C      1  0.4722190000000  0.5123110000000  0.5165000000000 1.0
END
