TITL C-2622967-6265-871 -0.000330132873175699 125000 -939.418900568593 0 0 173 (C1) n - 1
REM
REM in /nfs/bkarasulu/CARBON/AIRSS/Generating-Clusters/AIREBO/with-SteepDescent/Higher-Symm/SD-CG/HFTN-CG
REM
REM
REM
REM
REM
REM ./C.cell (b20cbc046b6831c77cfcea5457e17084)
REM
REM compiler GCC version 9.2.1 20190827 (Red Hat 9.2.1-1)
REM options -cpp -mtune=generic -march=x86-64 -g -O0 -fpre-include=/usr/include/finclude/math-vector-fortran.h
REM seed -881590593 2094351877 -2041558629 -1713562581 837629422 -828470116 -1627998141 743676596 1837890971 -1349840317 -1781678962 -812827239 1144849108 1117086669 -292321584 376995091 -550497370 574523909 2127781209 1943129568 -1896465610 1119673688 -1794901591 -1339891472 -1318609167 1612637757 -833665189 -1011990354 -1019900219 447172005 -422403596 872303385 -1041001045
REM
CELL 1.54180   50.00000   50.00000   50.00000   90.00000   90.00000   90.00000
LATT -1
SFAC C  
C      1  0.6228710000000  0.4571090000000  0.5049030000000 1.0
C      1  0.4376540000000  0.4677550000000  0.6001290000000 1.0
C      1  0.4446420000000  0.4628680000000  0.3928880000000 1.0
C      1  0.5694790000000  0.4178620000000  0.4927690000000 1.0
C      1  0.4739980000000  0.4161290000000  0.5659290000000 1.0
C      1  0.4589390000000  0.4168830000000  0.4477290000000 1.0
C      1  0.4839770000000  0.4795180000000  0.4238300000000 1.0
C      1  0.5838890000000  0.4863740000000  0.5174290000000 1.0
C      1  0.4454960000000  0.4841680000000  0.5517360000000 1.0
C      1  0.5020510000000  0.5616420000000  0.5978470000000 1.0
C      1  0.4164820000000  0.5631500000000  0.4625700000000 1.0
C      1  0.5797320000000  0.5669620000000  0.4493100000000 1.0
C      1  0.4808580000000  0.5298180000000  0.5604470000000 1.0
C      1  0.4609960000000  0.5314980000000  0.4484840000000 1.0
C      1  0.5602910000000  0.5336170000000  0.4849730000000 1.0
C      1  0.4945040000000  0.4269140000000  0.4869420000000 1.0
C      1  0.5150680000000  0.4371490000000  0.5120570000000 1.0
C      1  0.4795790000000  0.4194450000000  0.5156670000000 1.0
C      1  0.3893390000000  0.4585370000000  0.4741660000000 1.0
C      1  0.5731670000000  0.4597020000000  0.4166080000000 1.0
C      1  0.5339930000000  0.4588760000000  0.6073890000000 1.0
C      1  0.4871270000000  0.5560820000000  0.4803040000000 1.0
C      1  0.5222790000000  0.5429620000000  0.4978290000000 1.0
C      1  0.4832640000000  0.5510280000000  0.5269450000000 1.0
C      1  0.5028510000000  0.5518850000000  0.4540210000000 1.0
C      1  0.5447750000000  0.5606930000000  0.5276850000000 1.0
C      1  0.4538250000000  0.5584330000000  0.5221490000000 1.0
C      1  0.4866180000000  0.5582500000000  0.4181100000000 1.0
C      1  0.5839650000000  0.5608030000000  0.5340450000000 1.0
C      1  0.4228710000000  0.5540860000000  0.5621760000000 1.0
C      1  0.4299980000000  0.5150690000000  0.5199310000000 1.0
C      1  0.5190560000000  0.5081220000000  0.4292370000000 1.0
C      1  0.5501850000000  0.5111550000000  0.5490760000000 1.0
C      1  0.4813570000000  0.5701970000000  0.5745860000000 1.0
C      1  0.4485660000000  0.5703100000000  0.4537990000000 1.0
C      1  0.5725200000000  0.5743170000000  0.4783930000000 1.0
C      1  0.5121870000000  0.4701050000000  0.4685190000000 1.0
C      1  0.5229020000000  0.4750080000000  0.5222890000000 1.0
C      1  0.4681280000000  0.4749220000000  0.5043750000000 1.0
C      1  0.5238110000000  0.6136130000000  0.4645790000000 1.0
C      1  0.5200580000000  0.6079560000000  0.5366310000000 1.0
C      1  0.4625030000000  0.6068290000000  0.5039710000000 1.0
C      1  0.4913760000000  0.5979210000000  0.5573950000000 1.0
C      1  0.4596240000000  0.5985730000000  0.4705680000000 1.0
C      1  0.5517050000000  0.6010700000000  0.4818490000000 1.0
C      1  0.6071820000000  0.4511520000000  0.4799720000000 1.0
C      1  0.4623600000000  0.4537290000000  0.5963430000000 1.0
C      1  0.4326520000000  0.4502810000000  0.4157130000000 1.0
C      1  0.4483190000000  0.4277390000000  0.4712290000000 1.0
C      1  0.5525670000000  0.4264120000000  0.4712210000000 1.0
C      1  0.5000190000000  0.4255820000000  0.5603600000000 1.0
C      1  0.4530890000000  0.4330470000000  0.4249050000000 1.0
C      1  0.5884170000000  0.4375640000000  0.4993960000000 1.0
C      1  0.4572700000000  0.4360240000000  0.5747350000000 1.0
C      1  0.4216730000000  0.5084270000000  0.5522300000000 1.0
C      1  0.4994180000000  0.5010600000000  0.4025220000000 1.0
C      1  0.5816530000000  0.5074490000000  0.5391280000000 1.0
C      1  0.5902540000000  0.5453500000000  0.4809960000000 1.0
C      1  0.4690310000000  0.5416670000000  0.5884530000000 1.0
C      1  0.4364220000000  0.5460510000000  0.4331860000000 1.0
C      1  0.4405820000000  0.4736700000000  0.4578310000000 1.0
C      1  0.5659020000000  0.4745170000000  0.4692390000000 1.0
C      1  0.4973520000000  0.4653850000000  0.5628340000000 1.0
C      1  0.4588010000000  0.4924030000000  0.4427330000000 1.0
C      1  0.5687940000000  0.4952760000000  0.4914070000000 1.0
C      1  0.4766800000000  0.4902820000000  0.5626530000000 1.0
C      1  0.4984610000000  0.4471100000000  0.5372690000000 1.0
C      1  0.4582750000000  0.4567610000000  0.4773670000000 1.0
C      1  0.5421060000000  0.4553720000000  0.4758270000000 1.0
C      1  0.4614200000000  0.5361230000000  0.4786760000000 1.0
C      1  0.5334320000000  0.5317230000000  0.4714340000000 1.0
C      1  0.5056620000000  0.5338840000000  0.5430700000000 1.0
C      1  0.5157260000000  0.4745590000000  0.4349840000000 1.0
C      1  0.5457120000000  0.4775330000000  0.5460440000000 1.0
C      1  0.4379820000000  0.4815550000000  0.5186690000000 1.0
C      1  0.4684420000000  0.4492600000000  0.5266960000000 1.0
C      1  0.4862250000000  0.4484070000000  0.4651500000000 1.0
C      1  0.5425510000000  0.4544640000000  0.5073600000000 1.0
C      1  0.5711210000000  0.4558110000000  0.5170250000000 1.0
C      1  0.4471220000000  0.4503310000000  0.5504890000000 1.0
C      1  0.4808740000000  0.4469380000000  0.4330580000000 1.0
C      1  0.5526280000000  0.4087430000000  0.5164160000000 1.0
C      1  0.4612420000000  0.4035630000000  0.5395650000000 1.0
C      1  0.4866790000000  0.4050600000000  0.4504760000000 1.0
C      1  0.4556810000000  0.5605650000000  0.5560300000000 1.0
C      1  0.4809500000000  0.5763910000000  0.4453050000000 1.0
C      1  0.5659500000000  0.5780670000000  0.5109270000000 1.0
C      1  0.5379300000000  0.5972240000000  0.5130670000000 1.0
C      1  0.4756340000000  0.6028100000000  0.5275360000000 1.0
C      1  0.4927990000000  0.6014200000000  0.4650660000000 1.0
C      1  0.5941740000000  0.4657050000000  0.4599430000000 1.0
C      1  0.4881900000000  0.4648450000000  0.5938510000000 1.0
C      1  0.4197550000000  0.4640830000000  0.4367230000000 1.0
C      1  0.5517860000000  0.5021720000000  0.4064130000000 1.0
C      1  0.5539150000000  0.4995670000000  0.5887600000000 1.0
C      1  0.3931950000000  0.4970490000000  0.4987860000000 1.0
C      1  0.5668560000000  0.5419020000000  0.4332010000000 1.0
C      1  0.5195700000000  0.5393990000000  0.5930820000000 1.0
C      1  0.4064920000000  0.5362190000000  0.4815270000000 1.0
C      1  0.4474490000000  0.4086810000000  0.4930760000000 1.0
C      1  0.5304090000000  0.4078470000000  0.4671210000000 1.0
C      1  0.5199500000000  0.4054850000000  0.5508180000000 1.0
C      1  0.5320170000000  0.5806480000000  0.4631170000000 1.0
C      1  0.5184530000000  0.5793150000000  0.5512390000000 1.0
C      1  0.4430470000000  0.5830610000000  0.4931830000000 1.0
C      1  0.4258500000000  0.4498140000000  0.5169000000000 1.0
C      1  0.5202370000000  0.4412170000000  0.4299090000000 1.0
C      1  0.5537670000000  0.4457430000000  0.5550800000000 1.0
C      1  0.5486830000000  0.4476420000000  0.4121790000000 1.0
C      1  0.5508320000000  0.4519850000000  0.5879000000000 1.0
C      1  0.3988080000000  0.4531910000000  0.4983670000000 1.0
C      1  0.4137400000000  0.5422420000000  0.5328050000000 1.0
C      1  0.5155170000000  0.5400030000000  0.4178290000000 1.0
C      1  0.5661300000000  0.5406760000000  0.5547220000000 1.0
C      1  0.4371790000000  0.5462610000000  0.5883770000000 1.0
C      1  0.4605200000000  0.5429890000000  0.4104960000000 1.0
C      1  0.6033930000000  0.5469020000000  0.5108270000000 1.0
C      1  0.3945260000000  0.5044770000000  0.5334750000000 1.0
C      1  0.5291950000000  0.4882820000000  0.3962430000000 1.0
C      1  0.5825070000000  0.5035440000000  0.5707810000000 1.0
C      1  0.5817970000000  0.5148950000000  0.4668270000000 1.0
C      1  0.4866630000000  0.5118660000000  0.5869750000000 1.0
C      1  0.4322810000000  0.5136660000000  0.4447600000000 1.0
C      1  0.4338220000000  0.4867020000000  0.4863860000000 1.0
C      1  0.5460020000000  0.4841480000000  0.4471320000000 1.0
C      1  0.5195980000000  0.4865390000000  0.5614450000000 1.0
C      1  0.5461340000000  0.5677940000000  0.5592970000000 1.0
C      1  0.4227760000000  0.5668120000000  0.5151240000000 1.0
C      1  0.5212680000000  0.5702990000000  0.4321580000000 1.0
C      1  0.5200790000000  0.5056880000000  0.5886000000000 1.0
C      1  0.4120600000000  0.5051090000000  0.4712010000000 1.0
C      1  0.5677190000000  0.5080730000000  0.4365400000000 1.0
C      1  0.4714060000000  0.4658070000000  0.3953640000000 1.0
C      1  0.6084470000000  0.4665080000000  0.5255320000000 1.0
C      1  0.4252200000000  0.4730450000000  0.5766660000000 1.0
C      1  0.5454860000000  0.4159700000000  0.5432920000000 1.0
C      1  0.4399540000000  0.4195260000000  0.5183890000000 1.0
C      1  0.5135980000000  0.4129120000000  0.4454460000000 1.0
C      1  0.4499480000000  0.5273110000000  0.5518610000000 1.0
C      1  0.4810970000000  0.5194090000000  0.4237540000000 1.0
C      1  0.5765610000000  0.5273700000000  0.5139630000000 1.0
C      1  0.4620630000000  0.5172850000000  0.5237560000000 1.0
C      1  0.5001550000000  0.5213940000000  0.4519270000000 1.0
C      1  0.5427340000000  0.5279220000000  0.5204460000000 1.0
C      1  0.5426730000000  0.5511610000000  0.4503760000000 1.0
C      1  0.5268580000000  0.5412370000000  0.5613350000000 1.0
C      1  0.4367620000000  0.5507480000000  0.4868950000000 1.0
C      1  0.5465200000000  0.5310180000000  0.4116050000000 1.0
C      1  0.5508960000000  0.5309640000000  0.5835390000000 1.0
C      1  0.3920830000000  0.5290800000000  0.5101360000000 1.0
C      1  0.5236490000000  0.5726790000000  0.4949540000000 1.0
C      1  0.4973810000000  0.5774610000000  0.5246060000000 1.0
C      1  0.4937010000000  0.5843410000000  0.4923630000000 1.0
C      1  0.5277190000000  0.4607810000000  0.3960770000000 1.0
C      1  0.5726700000000  0.4730070000000  0.5772090000000 1.0
C      1  0.3943920000000  0.4734040000000  0.5234070000000 1.0
C      1  0.4007810000000  0.4769230000000  0.4558480000000 1.0
C      1  0.5847530000000  0.4787140000000  0.4342380000000 1.0
C      1  0.5122360000000  0.4770010000000  0.6051030000000 1.0
C      1  0.4993390000000  0.4484920000000  0.4040890000000 1.0
C      1  0.5841810000000  0.4593310000000  0.5482500000000 1.0
C      1  0.4143090000000  0.4597360000000  0.5473370000000 1.0
C      1  0.4939720000000  0.3955150000000  0.5350680000000 1.0
C      1  0.4755130000000  0.4002910000000  0.4810980000000 1.0
C      1  0.5282350000000  0.4092410000000  0.4977540000000 1.0
C      1  0.5202810000000  0.5026390000000  0.4719250000000 1.0
C      1  0.5155100000000  0.5079560000000  0.5246600000000 1.0
C      1  0.4714170000000  0.5072100000000  0.4941540000000 1.0
C      1  0.4797410000000  0.5001540000000  0.4642220000000 1.0
C      1  0.5390470000000  0.5025990000000  0.4980430000000 1.0
C      1  0.4850330000000  0.5000400000000  0.5341570000000 1.0
C      1  0.4929990000000  0.5321560000000  0.5024360000000 1.0
C      1  0.5009230000000  0.4726870000000  0.5003620000000 1.0
END
