TITL C-2622959-7779-509 -3.03866919139296e-05 125000 -848.457183616514 0 0 154 (C1) n - 1
REM
REM in /nfs/bkarasulu/CARBON/AIRSS/Generating-Clusters/AIREBO/with-SteepDescent/Higher-Symm/SD-CG/HFTN-CG
REM
REM
REM
REM
REM
REM ./C.cell (b20cbc046b6831c77cfcea5457e17084)
REM
REM compiler GCC version 9.2.1 20190827 (Red Hat 9.2.1-1)
REM options -cpp -mtune=generic -march=x86-64 -g -O0 -fpre-include=/usr/include/finclude/math-vector-fortran.h
REM seed 2066693438 86758306 -854411959 -427156563 -614994611 -841191350 749079056 -271372368 -1539993606 -1519132367 1381968750 -1692800134 -1307115568 1373180246 -1412520586 1292225673 -1499640242 -1283236471 1222537850 -934130832 -157894444 -842763927 -668520506 1920062345 -1220267292 -1610059654 -1888657170 -1143245306 2118675738 -95511649 -392338091 129900598 484061817
REM
CELL 1.54180   50.00000   50.00000   50.00000   90.00000   90.00000   90.00000
LATT -1
SFAC C  
C      1  0.5912870000000  0.4852080000000  0.4467950000000 1.0
C      1  0.5805620000000  0.4889400000000  0.5603720000000 1.0
C      1  0.4668880000000  0.4858320000000  0.5902440000000 1.0
C      1  0.3913000000000  0.4862950000000  0.4934660000000 1.0
C      1  0.4808940000000  0.4840660000000  0.4047520000000 1.0
C      1  0.5960360000000  0.5119790000000  0.4506590000000 1.0
C      1  0.5797280000000  0.5164590000000  0.5610960000000 1.0
C      1  0.4658500000000  0.5138410000000  0.5939800000000 1.0
C      1  0.3880180000000  0.5139560000000  0.4893230000000 1.0
C      1  0.4766700000000  0.5111150000000  0.4092950000000 1.0
C      1  0.4697140000000  0.5893370000000  0.4851160000000 1.0
C      1  0.5002900000000  0.5944000000000  0.4708010000000 1.0
C      1  0.5231050000000  0.5889210000000  0.4933330000000 1.0
C      1  0.5128110000000  0.5886840000000  0.5180860000000 1.0
C      1  0.4791030000000  0.5931290000000  0.5176740000000 1.0
C      1  0.4726820000000  0.4069650000000  0.4815780000000 1.0
C      1  0.5057140000000  0.4071150000000  0.4733540000000 1.0
C      1  0.5288130000000  0.4114780000000  0.4983280000000 1.0
C      1  0.5069210000000  0.4085500000000  0.5243390000000 1.0
C      1  0.4771190000000  0.4076460000000  0.5137420000000 1.0
C      1  0.4737170000000  0.4396930000000  0.5245970000000 1.0
C      1  0.4686660000000  0.4546400000000  0.4797610000000 1.0
C      1  0.5040660000000  0.4319520000000  0.4501530000000 1.0
C      1  0.5230950000000  0.4589060000000  0.4941250000000 1.0
C      1  0.5161950000000  0.4624470000000  0.5354920000000 1.0
C      1  0.4776320000000  0.5603220000000  0.5265020000000 1.0
C      1  0.4597640000000  0.5407850000000  0.4877180000000 1.0
C      1  0.5042660000000  0.5606340000000  0.4687310000000 1.0
C      1  0.5422040000000  0.5423270000000  0.4936180000000 1.0
C      1  0.5137470000000  0.5420030000000  0.5285550000000 1.0
C      1  0.4001420000000  0.5384970000000  0.5540870000000 1.0
C      1  0.4275140000000  0.5370790000000  0.4211050000000 1.0
C      1  0.5535850000000  0.5366370000000  0.4179890000000 1.0
C      1  0.6139500000000  0.5386010000000  0.5131570000000 1.0
C      1  0.5158040000000  0.5428820000000  0.6081580000000 1.0
C      1  0.4095690000000  0.4643570000000  0.5589010000000 1.0
C      1  0.4308520000000  0.4597790000000  0.4189960000000 1.0
C      1  0.5433740000000  0.4666690000000  0.4059660000000 1.0
C      1  0.6047910000000  0.4579380000000  0.5217840000000 1.0
C      1  0.5102120000000  0.4619700000000  0.6040700000000 1.0
C      1  0.4531980000000  0.5890610000000  0.5393260000000 1.0
C      1  0.4400930000000  0.5741350000000  0.4781550000000 1.0
C      1  0.5113130000000  0.5874620000000  0.4401190000000 1.0
C      1  0.5541670000000  0.5799380000000  0.4893350000000 1.0
C      1  0.5328200000000  0.5804550000000  0.5428600000000 1.0
C      1  0.4480770000000  0.4058550000000  0.5298430000000 1.0
C      1  0.4436020000000  0.4237000000000  0.4759860000000 1.0
C      1  0.5296470000000  0.4013710000000  0.4505980000000 1.0
C      1  0.5549640000000  0.4255400000000  0.4817250000000 1.0
C      1  0.5320010000000  0.4259400000000  0.5377760000000 1.0
C      1  0.4205160000000  0.4914550000000  0.5554320000000 1.0
C      1  0.4288290000000  0.4824690000000  0.4345050000000 1.0
C      1  0.5343910000000  0.4935780000000  0.4157460000000 1.0
C      1  0.6039130000000  0.4837180000000  0.5086600000000 1.0
C      1  0.5221440000000  0.4890820000000  0.5999200000000 1.0
C      1  0.4200720000000  0.5184810000000  0.5573370000000 1.0
C      1  0.4250760000000  0.5094860000000  0.4321330000000 1.0
C      1  0.5313360000000  0.5200980000000  0.4191900000000 1.0
C      1  0.6055590000000  0.5104040000000  0.5069490000000 1.0
C      1  0.5221030000000  0.5160510000000  0.6000500000000 1.0
C      1  0.4907910000000  0.5366240000000  0.4118720000000 1.0
C      1  0.6001450000000  0.5352840000000  0.4708130000000 1.0
C      1  0.5702260000000  0.5452450000000  0.5706360000000 1.0
C      1  0.4538580000000  0.5429030000000  0.5838460000000 1.0
C      1  0.3932010000000  0.5411610000000  0.4714640000000 1.0
C      1  0.5014130000000  0.4603840000000  0.4027530000000 1.0
C      1  0.5939630000000  0.4563850000000  0.4576000000000 1.0
C      1  0.5647690000000  0.4665620000000  0.5715410000000 1.0
C      1  0.4545020000000  0.4598680000000  0.5757910000000 1.0
C      1  0.3982260000000  0.4587670000000  0.4809410000000 1.0
C      1  0.5749030000000  0.4715060000000  0.4989650000000 1.0
C      1  0.5247430000000  0.4784030000000  0.5707550000000 1.0
C      1  0.4425130000000  0.4804070000000  0.5319690000000 1.0
C      1  0.4393000000000  0.4746840000000  0.4614400000000 1.0
C      1  0.5267610000000  0.4756200000000  0.4434660000000 1.0
C      1  0.5770450000000  0.5246530000000  0.5012610000000 1.0
C      1  0.5239840000000  0.5327620000000  0.5703110000000 1.0
C      1  0.4440920000000  0.5304560000000  0.5435380000000 1.0
C      1  0.4362280000000  0.5267600000000  0.4586260000000 1.0
C      1  0.5143230000000  0.5285270000000  0.4431480000000 1.0
C      1  0.5384770000000  0.5883840000000  0.4336150000000 1.0
C      1  0.5717820000000  0.5729650000000  0.5167140000000 1.0
C      1  0.5174050000000  0.5835970000000  0.5709980000000 1.0
C      1  0.4268910000000  0.5700170000000  0.5292620000000 1.0
C      1  0.4595980000000  0.5846210000000  0.4525500000000 1.0
C      1  0.5426210000000  0.4257760000000  0.4418220000000 1.0
C      1  0.5603190000000  0.4140370000000  0.5123430000000 1.0
C      1  0.5081020000000  0.4146040000000  0.5587290000000 1.0
C      1  0.4311700000000  0.4285330000000  0.5264230000000 1.0
C      1  0.4573250000000  0.4090270000000  0.4502710000000 1.0
C      1  0.5335060000000  0.4825720000000  0.5155200000000 1.0
C      1  0.4982350000000  0.4869250000000  0.5337200000000 1.0
C      1  0.4564030000000  0.4963540000000  0.5067370000000 1.0
C      1  0.4697740000000  0.4837650000000  0.4671300000000 1.0
C      1  0.5291700000000  0.4852800000000  0.4739390000000 1.0
C      1  0.5283050000000  0.5130440000000  0.5182620000000 1.0
C      1  0.4964610000000  0.5172390000000  0.5415340000000 1.0
C      1  0.4458380000000  0.5255520000000  0.5147440000000 1.0
C      1  0.4751080000000  0.5155960000000  0.4766840000000 1.0
C      1  0.5286100000000  0.5193080000000  0.4725960000000 1.0
C      1  0.4277270000000  0.5172300000000  0.4878400000000 1.0
C      1  0.4888520000000  0.5124270000000  0.4473160000000 1.0
C      1  0.5624180000000  0.5157020000000  0.4718960000000 1.0
C      1  0.5431560000000  0.5212150000000  0.5459100000000 1.0
C      1  0.4697990000000  0.5207330000000  0.5551210000000 1.0
C      1  0.4309410000000  0.4861400000000  0.4897380000000 1.0
C      1  0.4933170000000  0.4817400000000  0.4426580000000 1.0
C      1  0.5615310000000  0.4839540000000  0.4732840000000 1.0
C      1  0.5432140000000  0.4894170000000  0.5467870000000 1.0
C      1  0.4693660000000  0.4895120000000  0.5507650000000 1.0
C      1  0.4618680000000  0.5243210000000  0.4365260000000 1.0
C      1  0.5712340000000  0.5326260000000  0.4443560000000 1.0
C      1  0.5710330000000  0.5314910000000  0.5332670000000 1.0
C      1  0.4912010000000  0.5300890000000  0.5789260000000 1.0
C      1  0.4058860000000  0.5335180000000  0.5082130000000 1.0
C      1  0.4697780000000  0.4637230000000  0.4265280000000 1.0
C      1  0.5606130000000  0.4714410000000  0.4416940000000 1.0
C      1  0.5693470000000  0.4730020000000  0.5324760000000 1.0
C      1  0.4916390000000  0.4731790000000  0.5706340000000 1.0
C      1  0.4137420000000  0.4725480000000  0.5150170000000 1.0
C      1  0.4507070000000  0.5562910000000  0.4359860000000 1.0
C      1  0.5534730000000  0.5610580000000  0.4401240000000 1.0
C      1  0.5923080000000  0.5538860000000  0.5237900000000 1.0
C      1  0.5005630000000  0.5607540000000  0.5865910000000 1.0
C      1  0.4059680000000  0.5516560000000  0.5293520000000 1.0
C      1  0.4512540000000  0.4372990000000  0.4320810000000 1.0
C      1  0.5521870000000  0.4451910000000  0.4253710000000 1.0
C      1  0.5775490000000  0.4409680000000  0.5244770000000 1.0
C      1  0.5002800000000  0.4413240000000  0.5788960000000 1.0
C      1  0.4137200000000  0.4478060000000  0.5351460000000 1.0
C      1  0.5287320000000  0.4392400000000  0.4697840000000 1.0
C      1  0.5452670000000  0.4443750000000  0.5154320000000 1.0
C      1  0.4964530000000  0.4423840000000  0.5456280000000 1.0
C      1  0.4484480000000  0.4399110000000  0.5027960000000 1.0
C      1  0.4752670000000  0.4373490000000  0.4559220000000 1.0
C      1  0.5371760000000  0.5606230000000  0.4671020000000 1.0
C      1  0.5428940000000  0.5577890000000  0.5209770000000 1.0
C      1  0.4994390000000  0.5613750000000  0.5525670000000 1.0
C      1  0.4491340000000  0.5645260000000  0.5084230000000 1.0
C      1  0.4714350000000  0.5545150000000  0.4630280000000 1.0
C      1  0.5732310000000  0.5526500000000  0.4823460000000 1.0
C      1  0.5452980000000  0.5566950000000  0.5638020000000 1.0
C      1  0.4563940000000  0.5583420000000  0.5535540000000 1.0
C      1  0.4193850000000  0.5512670000000  0.4686490000000 1.0
C      1  0.4999080000000  0.5577480000000  0.4351270000000 1.0
C      1  0.5775950000000  0.4476690000000  0.4780690000000 1.0
C      1  0.5394820000000  0.4511740000000  0.5575790000000 1.0
C      1  0.4535780000000  0.4530400000000  0.5485430000000 1.0
C      1  0.4233730000000  0.4502890000000  0.4737830000000 1.0
C      1  0.5125820000000  0.4505270000000  0.4261230000000 1.0
C      1  0.5034740000000  0.5170110000000  0.4953770000000 1.0
C      1  0.4853030000000  0.4902030000000  0.5057330000000 1.0
C      1  0.4916290000000  0.4587050000000  0.5025120000000 1.0
C      1  0.4970480000000  0.5501180000000  0.5002850000000 1.0
END
