TITL C-2622956-4641-103 -0.00242776670654746 125000 -224.722179037792 0 0 42 (C1) n - 1
REM
REM in /nfs/bkarasulu/CARBON/AIRSS/Generating-Clusters/AIREBO/with-SteepDescent/Higher-Symm/SD-CG/HFTN-CG
REM
REM
REM
REM
REM
REM ./C.cell (b20cbc046b6831c77cfcea5457e17084)
REM
REM compiler GCC version 9.2.1 20190827 (Red Hat 9.2.1-1)
REM options -cpp -mtune=generic -march=x86-64 -g -O0 -fpre-include=/usr/include/finclude/math-vector-fortran.h
REM seed 1187483310 -347999445 1128525896 -644675213 -178905166 1858984422 1713547683 -44108461 1891155019 447460976 1452282408 -610812691 -199259116 1627497685 -2117141354 2105215130 1817193136 -1350531724 782725923 -1165356554 895937112 -1068944845 -1248418640 1053049110 -1461141365 184726837 -1020677822 -803320448 1926303522 -678292012 1335944842 234304375 -959328023
REM
CELL 1.54180   50.00000   50.00000   50.00000   90.00000   90.00000   90.00000
LATT -1
SFAC C  
C      1  0.5661250000000  0.4649710000000  0.5312810000000 1.0
C      1  0.5081740000000  0.5478660000000  0.4634430000000 1.0
C      1  0.5040300000000  0.5520840000000  0.4929390000000 1.0
C      1  0.4940830000000  0.5220690000000  0.5545710000000 1.0
C      1  0.5266940000000  0.4692750000000  0.5015990000000 1.0
C      1  0.4720070000000  0.5090540000000  0.4463350000000 1.0
C      1  0.5158850000000  0.4673530000000  0.5642360000000 1.0
C      1  0.4461070000000  0.5167310000000  0.5320770000000 1.0
C      1  0.4841330000000  0.5137470000000  0.4777530000000 1.0
C      1  0.5607580000000  0.5275450000000  0.4635230000000 1.0
C      1  0.4748450000000  0.4641700000000  0.4683260000000 1.0
C      1  0.5665780000000  0.4654060000000  0.5033290000000 1.0
C      1  0.5669570000000  0.5091870000000  0.4844850000000 1.0
C      1  0.4745790000000  0.4555540000000  0.5008400000000 1.0
C      1  0.4425660000000  0.5400960000000  0.4926630000000 1.0
C      1  0.4913300000000  0.4392040000000  0.5237050000000 1.0
C      1  0.5165390000000  0.5267310000000  0.4995480000000 1.0
C      1  0.4610200000000  0.5436300000000  0.5184150000000 1.0
C      1  0.4434740000000  0.4904750000000  0.5248260000000 1.0
C      1  0.4690200000000  0.4736510000000  0.5277160000000 1.0
C      1  0.4679140000000  0.5337310000000  0.4233860000000 1.0
C      1  0.5154560000000  0.5090700000000  0.4725480000000 1.0
C      1  0.4505110000000  0.5184050000000  0.4785510000000 1.0
C      1  0.5333210000000  0.5160390000000  0.5230840000000 1.0
C      1  0.4859740000000  0.4755540000000  0.5578460000000 1.0
C      1  0.5103490000000  0.4530860000000  0.5359770000000 1.0
C      1  0.4585420000000  0.4842020000000  0.4595270000000 1.0
C      1  0.5307240000000  0.5318460000000  0.5469120000000 1.0
C      1  0.4898730000000  0.4997180000000  0.5342310000000 1.0
C      1  0.5201110000000  0.4851720000000  0.5286990000000 1.0
C      1  0.4272810000000  0.4837360000000  0.5025230000000 1.0
C      1  0.5063020000000  0.4521960000000  0.4890710000000 1.0
C      1  0.5626550000000  0.5176870000000  0.5112490000000 1.0
C      1  0.4790880000000  0.5170210000000  0.5094800000000 1.0
C      1  0.5040390000000  0.4603120000000  0.4585070000000 1.0
C      1  0.4856470000000  0.5624240000000  0.5116140000000 1.0
C      1  0.5271660000000  0.4813840000000  0.4715870000000 1.0
C      1  0.5585560000000  0.4821540000000  0.4815830000000 1.0
C      1  0.4868180000000  0.5400520000000  0.4477790000000 1.0
C      1  0.5336060000000  0.5322770000000  0.4588880000000 1.0
C      1  0.5447810000000  0.4726150000000  0.5480420000000 1.0
C      1  0.4363830000000  0.4925210000000  0.4773060000000 1.0
END
