TITL C-2622965-4321-384 -0.000185856904282614 125000 -628.108120081496 0 0 120 (C1) n - 1
REM
REM in /nfs/bkarasulu/CARBON/AIRSS/Generating-Clusters/AIREBO/with-SteepDescent/Higher-Symm/SD-CG/HFTN-CG
REM
REM
REM
REM
REM
REM ./C.cell (b20cbc046b6831c77cfcea5457e17084)
REM
REM compiler GCC version 9.2.1 20190827 (Red Hat 9.2.1-1)
REM options -cpp -mtune=generic -march=x86-64 -g -O0 -fpre-include=/usr/include/finclude/math-vector-fortran.h
REM seed -332988832 -577181541 -1484122572 702318598 -1782933862 -300991262 581902539 75656985 39785293 -2133756430 -19636518 1678719695 -174124956 -1092111219 -1237059127 -1162231417 469772588 -1508361467 -1833145790 117459605 150717547 1906904307 -1397287665 -1365150079 1824752572 -1095451564 -1801118514 -1782871121 1407375369 666816693 -1456478242 -350135064 -497651237
REM
CELL 1.54180   50.00000   50.00000   50.00000   90.00000   90.00000   90.00000
LATT -1
SFAC C  
C      1  0.4657370000000  0.4589440000000  0.5220270000000 1.0
C      1  0.4609410000000  0.5318860000000  0.4765550000000 1.0
C      1  0.5541410000000  0.5384970000000  0.5386840000000 1.0
C      1  0.5318490000000  0.4603050000000  0.4719240000000 1.0
C      1  0.4776340000000  0.4898020000000  0.5164560000000 1.0
C      1  0.4809960000000  0.5078690000000  0.4754030000000 1.0
C      1  0.5287090000000  0.5186470000000  0.5279150000000 1.0
C      1  0.5097550000000  0.4939770000000  0.4853300000000 1.0
C      1  0.5573120000000  0.5680790000000  0.5278640000000 1.0
C      1  0.5495500000000  0.4317420000000  0.4732860000000 1.0
C      1  0.4448590000000  0.4310250000000  0.5414500000000 1.0
C      1  0.4415080000000  0.5720580000000  0.4708600000000 1.0
C      1  0.5550880000000  0.4745920000000  0.5025580000000 1.0
C      1  0.5676720000000  0.5085700000000  0.4864860000000 1.0
C      1  0.4404550000000  0.5102970000000  0.5114220000000 1.0
C      1  0.4514530000000  0.4748000000000  0.4882210000000 1.0
C      1  0.5321860000000  0.4142710000000  0.4951070000000 1.0
C      1  0.5358200000000  0.5775670000000  0.5064770000000 1.0
C      1  0.4622220000000  0.5799180000000  0.4907640000000 1.0
C      1  0.4560780000000  0.4074090000000  0.5229830000000 1.0
C      1  0.5674250000000  0.5149930000000  0.5191840000000 1.0
C      1  0.5567190000000  0.4834880000000  0.4705000000000 1.0
C      1  0.4390290000000  0.4798400000000  0.5194740000000 1.0
C      1  0.4411460000000  0.5055640000000  0.4777570000000 1.0
C      1  0.4413370000000  0.5246120000000  0.5885840000000 1.0
C      1  0.4563080000000  0.4949770000000  0.3956540000000 1.0
C      1  0.5251070000000  0.4804240000000  0.6033280000000 1.0
C      1  0.5455370000000  0.5250190000000  0.4130810000000 1.0
C      1  0.5017710000000  0.4295570000000  0.5215740000000 1.0
C      1  0.4907670000000  0.5458070000000  0.4799960000000 1.0
C      1  0.4975750000000  0.5460310000000  0.5118490000000 1.0
C      1  0.5089660000000  0.4467500000000  0.4931270000000 1.0
C      1  0.5021430000000  0.4142190000000  0.4853570000000 1.0
C      1  0.5051140000000  0.5768570000000  0.5156130000000 1.0
C      1  0.4879220000000  0.5891380000000  0.4921510000000 1.0
C      1  0.4839190000000  0.4044400000000  0.5115170000000 1.0
C      1  0.5180960000000  0.5116810000000  0.4591190000000 1.0
C      1  0.5343810000000  0.5021290000000  0.5557050000000 1.0
C      1  0.4878680000000  0.4864460000000  0.4527700000000 1.0
C      1  0.4862640000000  0.4991480000000  0.5460060000000 1.0
C      1  0.5905700000000  0.4687060000000  0.4856410000000 1.0
C      1  0.5930800000000  0.5367210000000  0.4981160000000 1.0
C      1  0.4110900000000  0.5225410000000  0.4876510000000 1.0
C      1  0.4099670000000  0.4715860000000  0.5042130000000 1.0
C      1  0.4149140000000  0.5316670000000  0.5467000000000 1.0
C      1  0.4127980000000  0.4886320000000  0.4552280000000 1.0
C      1  0.5697080000000  0.4837070000000  0.5439840000000 1.0
C      1  0.6283410000000  0.4986500000000  0.4905820000000 1.0
C      1  0.4139650000000  0.5552390000000  0.4817620000000 1.0
C      1  0.4226800000000  0.4434600000000  0.5186290000000 1.0
C      1  0.5817420000000  0.4374720000000  0.4751460000000 1.0
C      1  0.5859610000000  0.5662710000000  0.5137050000000 1.0
C      1  0.5096370000000  0.5180410000000  0.5723060000000 1.0
C      1  0.5296600000000  0.4952090000000  0.4342630000000 1.0
C      1  0.4721080000000  0.4928500000000  0.5724290000000 1.0
C      1  0.4736470000000  0.5115360000000  0.4364020000000 1.0
C      1  0.5300240000000  0.5429210000000  0.4552130000000 1.0
C      1  0.5266180000000  0.4644240000000  0.5284810000000 1.0
C      1  0.4776860000000  0.4559830000000  0.4595680000000 1.0
C      1  0.4674000000000  0.5374680000000  0.5489260000000 1.0
C      1  0.6054380000000  0.5841290000000  0.5214690000000 1.0
C      1  0.5995470000000  0.4210000000000  0.4625250000000 1.0
C      1  0.4137760000000  0.4578740000000  0.5470110000000 1.0
C      1  0.3896550000000  0.5671570000000  0.4744330000000 1.0
C      1  0.5472650000000  0.4396510000000  0.5649600000000 1.0
C      1  0.5227600000000  0.5655990000000  0.4123590000000 1.0
C      1  0.4862180000000  0.5551440000000  0.5697300000000 1.0
C      1  0.4692540000000  0.4614110000000  0.4280630000000 1.0
C      1  0.5347870000000  0.4217900000000  0.4459110000000 1.0
C      1  0.5387400000000  0.5727340000000  0.5521350000000 1.0
C      1  0.4556270000000  0.5727360000000  0.4466640000000 1.0
C      1  0.4667690000000  0.4402410000000  0.5590730000000 1.0
C      1  0.5568110000000  0.4888550000000  0.4419500000000 1.0
C      1  0.5718760000000  0.5130400000000  0.5526550000000 1.0
C      1  0.4426290000000  0.5002360000000  0.4453120000000 1.0
C      1  0.4284500000000  0.4802180000000  0.5510780000000 1.0
C      1  0.4952980000000  0.4585710000000  0.5380780000000 1.0
C      1  0.4956710000000  0.5347940000000  0.4481850000000 1.0
C      1  0.4998290000000  0.5300510000000  0.5417960000000 1.0
C      1  0.5141810000000  0.4669770000000  0.4435520000000 1.0
C      1  0.5425270000000  0.5486430000000  0.4282690000000 1.0
C      1  0.5502030000000  0.4638500000000  0.5495860000000 1.0
C      1  0.4515150000000  0.4817200000000  0.4216050000000 1.0
C      1  0.4382140000000  0.5333200000000  0.5621060000000 1.0
C      1  0.5285910000000  0.4195750000000  0.5553080000000 1.0
C      1  0.5018180000000  0.5856280000000  0.4681050000000 1.0
C      1  0.4833780000000  0.5732840000000  0.5411120000000 1.0
C      1  0.4863110000000  0.4248700000000  0.4610810000000 1.0
C      1  0.4585420000000  0.5487040000000  0.5037410000000 1.0
C      1  0.4590480000000  0.4346930000000  0.5045990000000 1.0
C      1  0.5415440000000  0.4391410000000  0.5148550000000 1.0
C      1  0.5433620000000  0.5553640000000  0.4818420000000 1.0
C      1  0.4872420000000  0.4963320000000  0.4091860000000 1.0
C      1  0.4668900000000  0.5131780000000  0.5913630000000 1.0
C      1  0.5149270000000  0.5108860000000  0.4086770000000 1.0
C      1  0.5099610000000  0.4871380000000  0.5828780000000 1.0
C      1  0.4153190000000  0.5266940000000  0.5205070000000 1.0
C      1  0.4045020000000  0.4905170000000  0.4823900000000 1.0
C      1  0.5853490000000  0.4796040000000  0.5172390000000 1.0
C      1  0.5993570000000  0.5037950000000  0.4978580000000 1.0
C      1  0.4885550000000  0.5318370000000  0.5908630000000 1.0
C      1  0.4960140000000  0.4660660000000  0.4148220000000 1.0
C      1  0.4879660000000  0.4647290000000  0.5707060000000 1.0
C      1  0.5051360000000  0.5418670000000  0.4162960000000 1.0
C      1  0.4343280000000  0.4458310000000  0.4867170000000 1.0
C      1  0.4294710000000  0.5657120000000  0.5084620000000 1.0
C      1  0.5751060000000  0.5591960000000  0.4824530000000 1.0
C      1  0.5699970000000  0.4450900000000  0.5049470000000 1.0
C      1  0.5096990000000  0.4338240000000  0.4416590000000 1.0
C      1  0.5133730000000  0.5622480000000  0.5530190000000 1.0
C      1  0.4852610000000  0.5670960000000  0.4503160000000 1.0
C      1  0.4989060000000  0.4295900000000  0.5555000000000 1.0
C      1  0.4563210000000  0.4249640000000  0.4720590000000 1.0
C      1  0.4559830000000  0.5712070000000  0.5291240000000 1.0
C      1  0.5292740000000  0.5850780000000  0.4731770000000 1.0
C      1  0.5357730000000  0.4098940000000  0.5287480000000 1.0
C      1  0.4852030000000  0.4707760000000  0.4892720000000 1.0
C      1  0.4668280000000  0.5222910000000  0.5207560000000 1.0
C      1  0.5434140000000  0.5288540000000  0.4989860000000 1.0
C      1  0.5272540000000  0.4902570000000  0.5098100000000 1.0
END
