TITL C-2622958-629-818 -0.000817048854594893 125000 -959.339965290721 0 0 182 (C1) n - 1
REM
REM in /nfs/bkarasulu/CARBON/AIRSS/Generating-Clusters/AIREBO/with-SteepDescent/Higher-Symm/SD-CG/HFTN-CG
REM
REM
REM
REM
REM
REM ./C.cell (b20cbc046b6831c77cfcea5457e17084)
REM
REM compiler GCC version 9.2.1 20190827 (Red Hat 9.2.1-1)
REM options -cpp -mtune=generic -march=x86-64 -g -O0 -fpre-include=/usr/include/finclude/math-vector-fortran.h
REM seed -229332673 247635317 -304269874 -513292283 -1449249600 2069304021 -1250588914 309674981 -577828396 1995598632 -805963921 -373025722 590078430 601089122 -542885151 -1430566360 1471210819 1343991633 2005025231 1547561166 472496017 2007990172 -901083142 314820791 1802769840 509556300 149461980 -1965587995 1961895062 -708726963 -685267650 -1519187583 1412854976
REM
CELL 1.54180   50.00000   50.00000   50.00000   90.00000   90.00000   90.00000
LATT -1
SFAC C  
C      1  0.5257500000000  0.5698540000000  0.5826160000000 1.0
C      1  0.4850390000000  0.4333420000000  0.4167240000000 1.0
C      1  0.5571040000000  0.5314040000000  0.4872040000000 1.0
C      1  0.4353670000000  0.4596860000000  0.5189150000000 1.0
C      1  0.4454320000000  0.5001140000000  0.4487150000000 1.0
C      1  0.5560450000000  0.4952100000000  0.5523420000000 1.0
C      1  0.4520270000000  0.5162240000000  0.5885960000000 1.0
C      1  0.5514740000000  0.4872010000000  0.4086410000000 1.0
C      1  0.5976570000000  0.4843040000000  0.4817160000000 1.0
C      1  0.4057630000000  0.5212430000000  0.5180390000000 1.0
C      1  0.4837220000000  0.5989650000000  0.5233450000000 1.0
C      1  0.5263190000000  0.4032030000000  0.4790170000000 1.0
C      1  0.4567070000000  0.4398260000000  0.4343860000000 1.0
C      1  0.5514830000000  0.5556530000000  0.5648340000000 1.0
C      1  0.5758080000000  0.4480980000000  0.4947950000000 1.0
C      1  0.4288010000000  0.5545420000000  0.5049810000000 1.0
C      1  0.4737920000000  0.5076540000000  0.5394660000000 1.0
C      1  0.5263990000000  0.4920220000000  0.4574510000000 1.0
C      1  0.5647170000000  0.4999630000000  0.4976750000000 1.0
C      1  0.4379800000000  0.5009050000000  0.5059420000000 1.0
C      1  0.4999640000000  0.5988010000000  0.4719030000000 1.0
C      1  0.4992730000000  0.4004530000000  0.5231120000000 1.0
C      1  0.4628730000000  0.5335460000000  0.4641130000000 1.0
C      1  0.5393900000000  0.4630500000000  0.5354410000000 1.0
C      1  0.3876130000000  0.5529820000000  0.4785690000000 1.0
C      1  0.6163230000000  0.4480780000000  0.5164170000000 1.0
C      1  0.5547210000000  0.5366820000000  0.5198950000000 1.0
C      1  0.4481170000000  0.4612790000000  0.4830390000000 1.0
C      1  0.5540170000000  0.4759960000000  0.5872330000000 1.0
C      1  0.4414710000000  0.5175530000000  0.4129870000000 1.0
C      1  0.5939590000000  0.4694520000000  0.5121540000000 1.0
C      1  0.4092280000000  0.5336990000000  0.4865750000000 1.0
C      1  0.5119700000000  0.5469920000000  0.4749930000000 1.0
C      1  0.4798030000000  0.4531150000000  0.5218660000000 1.0
C      1  0.4298980000000  0.5233230000000  0.5693190000000 1.0
C      1  0.5703400000000  0.4834670000000  0.4326610000000 1.0
C      1  0.4689570000000  0.4123070000000  0.5214010000000 1.0
C      1  0.5306020000000  0.5902650000000  0.4680450000000 1.0
C      1  0.5148210000000  0.6126120000000  0.5250980000000 1.0
C      1  0.4732890000000  0.3835840000000  0.4751190000000 1.0
C      1  0.4112970000000  0.4868890000000  0.4899570000000 1.0
C      1  0.5926400000000  0.5092770000000  0.5150550000000 1.0
C      1  0.4135570000000  0.4679530000000  0.5376290000000 1.0
C      1  0.5870420000000  0.5465640000000  0.4656230000000 1.0
C      1  0.5514660000000  0.4342160000000  0.5230160000000 1.0
C      1  0.4474240000000  0.5620880000000  0.4705600000000 1.0
C      1  0.4943310000000  0.4572050000000  0.5635540000000 1.0
C      1  0.5064710000000  0.5433870000000  0.4269220000000 1.0
C      1  0.4141580000000  0.4988800000000  0.4354000000000 1.0
C      1  0.5855360000000  0.4923710000000  0.5690480000000 1.0
C      1  0.5385540000000  0.5974250000000  0.5130640000000 1.0
C      1  0.4544770000000  0.3925930000000  0.4985860000000 1.0
C      1  0.4694720000000  0.5570160000000  0.4954330000000 1.0
C      1  0.5292760000000  0.4436930000000  0.5021860000000 1.0
C      1  0.4344310000000  0.5168430000000  0.5357840000000 1.0
C      1  0.5671050000000  0.4857720000000  0.4668480000000 1.0
C      1  0.5103910000000  0.4235280000000  0.4288690000000 1.0
C      1  0.4945720000000  0.5824120000000  0.5774830000000 1.0
C      1  0.4013750000000  0.4947250000000  0.5389250000000 1.0
C      1  0.5964310000000  0.5138910000000  0.4649730000000 1.0
C      1  0.5302070000000  0.4328180000000  0.5876360000000 1.0
C      1  0.4653960000000  0.5633480000000  0.4095590000000 1.0
C      1  0.4965970000000  0.5023140000000  0.4446960000000 1.0
C      1  0.5056340000000  0.4990460000000  0.5477690000000 1.0
C      1  0.4268540000000  0.4357840000000  0.4903910000000 1.0
C      1  0.5795890000000  0.5598080000000  0.5177780000000 1.0
C      1  0.4856590000000  0.4637810000000  0.4208930000000 1.0
C      1  0.5183140000000  0.5394030000000  0.5790640000000 1.0
C      1  0.5163950000000  0.5022710000000  0.5012630000000 1.0
C      1  0.4824560000000  0.4991220000000  0.5015320000000 1.0
C      1  0.4703460000000  0.5102600000000  0.4278380000000 1.0
C      1  0.5276820000000  0.4862380000000  0.5688550000000 1.0
C      1  0.5657200000000  0.4562010000000  0.5692780000000 1.0
C      1  0.4307930000000  0.5387610000000  0.4295710000000 1.0
C      1  0.5083030000000  0.5549560000000  0.5037110000000 1.0
C      1  0.4839060000000  0.4385430000000  0.4953680000000 1.0
C      1  0.4551350000000  0.5888830000000  0.4463480000000 1.0
C      1  0.5433790000000  0.4090370000000  0.5522220000000 1.0
C      1  0.5418800000000  0.4072970000000  0.4501480000000 1.0
C      1  0.4609820000000  0.5985880000000  0.5486370000000 1.0
C      1  0.4706710000000  0.5603730000000  0.5789540000000 1.0
C      1  0.5354840000000  0.4418050000000  0.4218840000000 1.0
C      1  0.6102490000000  0.4915800000000  0.5571090000000 1.0
C      1  0.3913660000000  0.5025990000000  0.4505340000000 1.0
C      1  0.5375020000000  0.4606900000000  0.3923960000000 1.0
C      1  0.4648300000000  0.5409260000000  0.6072490000000 1.0
C      1  0.4538430000000  0.5943040000000  0.5077760000000 1.0
C      1  0.5542440000000  0.4073430000000  0.4922800000000 1.0
C      1  0.5355230000000  0.5829740000000  0.4282540000000 1.0
C      1  0.4592010000000  0.4208570000000  0.5653960000000 1.0
C      1  0.4572050000000  0.4912660000000  0.4795910000000 1.0
C      1  0.5425340000000  0.5059200000000  0.5229940000000 1.0
C      1  0.4568290000000  0.4872770000000  0.5982130000000 1.0
C      1  0.5473580000000  0.5146240000000  0.3955100000000 1.0
C      1  0.5727250000000  0.4688030000000  0.5388630000000 1.0
C      1  0.4295900000000  0.5281350000000  0.4597240000000 1.0
C      1  0.5680440000000  0.4275080000000  0.4786640000000 1.0
C      1  0.4394880000000  0.5741770000000  0.5211220000000 1.0
C      1  0.5487260000000  0.5884780000000  0.4882270000000 1.0
C      1  0.4335690000000  0.3940160000000  0.5248290000000 1.0
C      1  0.4455480000000  0.4430470000000  0.5729520000000 1.0
C      1  0.5533330000000  0.5643950000000  0.4189430000000 1.0
C      1  0.4612350000000  0.4816080000000  0.5215700000000 1.0
C      1  0.5294050000000  0.5196020000000  0.4748540000000 1.0
C      1  0.5355130000000  0.5378180000000  0.4122470000000 1.0
C      1  0.4668970000000  0.4664720000000  0.5756760000000 1.0
C      1  0.6026570000000  0.4601050000000  0.4597460000000 1.0
C      1  0.4032290000000  0.5482570000000  0.5381200000000 1.0
C      1  0.5105500000000  0.4708610000000  0.4997560000000 1.0
C      1  0.4855810000000  0.5301420000000  0.5084810000000 1.0
C      1  0.5159990000000  0.4595760000000  0.5864880000000 1.0
C      1  0.4806810000000  0.5366660000000  0.4090110000000 1.0
C      1  0.5751420000000  0.5416660000000  0.5466300000000 1.0
C      1  0.4274080000000  0.4555970000000  0.4559100000000 1.0
C      1  0.5242690000000  0.4994550000000  0.4243410000000 1.0
C      1  0.4790740000000  0.5054990000000  0.5710550000000 1.0
C      1  0.4626880000000  0.4078090000000  0.4371400000000 1.0
C      1  0.5460700000000  0.5883000000000  0.5632850000000 1.0
C      1  0.4873480000000  0.5285010000000  0.3802230000000 1.0
C      1  0.5047920000000  0.4668750000000  0.6140050000000 1.0
C      1  0.4205060000000  0.4541870000000  0.5653160000000 1.0
C      1  0.5796190000000  0.5590520000000  0.4356240000000 1.0
C      1  0.5166760000000  0.4698100000000  0.4175700000000 1.0
C      1  0.4885160000000  0.5319690000000  0.5845560000000 1.0
C      1  0.5559980000000  0.4042480000000  0.5234480000000 1.0
C      1  0.4502400000000  0.5933820000000  0.4797060000000 1.0
C      1  0.6109660000000  0.4915670000000  0.5292830000000 1.0
C      1  0.3952910000000  0.5059810000000  0.4781470000000 1.0
C      1  0.4427220000000  0.5639440000000  0.4271820000000 1.0
C      1  0.5528600000000  0.4311250000000  0.5701670000000 1.0
C      1  0.5125120000000  0.5686950000000  0.4488200000000 1.0
C      1  0.4846390000000  0.4297040000000  0.5460570000000 1.0
C      1  0.4869990000000  0.5901710000000  0.4438710000000 1.0
C      1  0.5102850000000  0.4078660000000  0.5514670000000 1.0
C      1  0.4500400000000  0.5666270000000  0.5525540000000 1.0
C      1  0.5563510000000  0.4380250000000  0.4485100000000 1.0
C      1  0.4594960000000  0.5374550000000  0.5378520000000 1.0
C      1  0.5410750000000  0.4639900000000  0.4642780000000 1.0
C      1  0.4559940000000  0.4219150000000  0.4844550000000 1.0
C      1  0.5423700000000  0.5779160000000  0.5330350000000 1.0
C      1  0.5079240000000  0.4682310000000  0.5335650000000 1.0
C      1  0.4915210000000  0.5326980000000  0.4556960000000 1.0
C      1  0.5679110000000  0.5307600000000  0.4344020000000 1.0
C      1  0.4232550000000  0.4841440000000  0.5727170000000 1.0
C      1  0.4031730000000  0.5052660000000  0.5667150000000 1.0
C      1  0.5842250000000  0.5095500000000  0.4396550000000 1.0
C      1  0.5153050000000  0.5974050000000  0.5549040000000 1.0
C      1  0.4812600000000  0.4008670000000  0.4559100000000 1.0
C      1  0.5084350000000  0.4199930000000  0.4998930000000 1.0
C      1  0.4904370000000  0.5816420000000  0.4959120000000 1.0
C      1  0.5398550000000  0.5300960000000  0.4443450000000 1.0
C      1  0.4483690000000  0.4801170000000  0.5530280000000 1.0
C      1  0.4900690000000  0.5459510000000  0.5379050000000 1.0
C      1  0.5096260000000  0.4550910000000  0.4696160000000 1.0
C      1  0.4471910000000  0.4871110000000  0.4052710000000 1.0
C      1  0.5498510000000  0.5066650000000  0.5948220000000 1.0
C      1  0.4482550000000  0.5304500000000  0.4947050000000 1.0
C      1  0.5524770000000  0.4690080000000  0.5046280000000 1.0
C      1  0.4953510000000  0.5271700000000  0.3559910000000 1.0
C      1  0.4930380000000  0.4686820000000  0.6366140000000 1.0
C      1  0.5998040000000  0.5352890000000  0.5158260000000 1.0
C      1  0.4084290000000  0.4612710000000  0.4803230000000 1.0
C      1  0.5011810000000  0.3707480000000  0.5167630000000 1.0
C      1  0.4964690000000  0.6292560000000  0.4749900000000 1.0
C      1  0.4883380000000  0.4705850000000  0.4520380000000 1.0
C      1  0.5143610000000  0.5313180000000  0.5498180000000 1.0
C      1  0.5143130000000  0.4107660000000  0.5832470000000 1.0
C      1  0.4804650000000  0.5860350000000  0.4128350000000 1.0
C      1  0.5041920000000  0.4693580000000  0.3859090000000 1.0
C      1  0.4959280000000  0.5290720000000  0.6176390000000 1.0
C      1  0.4713270000000  0.4448440000000  0.4644040000000 1.0
C      1  0.5280440000000  0.5517600000000  0.5269040000000 1.0
C      1  0.5063740000000  0.4225730000000  0.4601590000000 1.0
C      1  0.4930280000000  0.5740230000000  0.5445670000000 1.0
C      1  0.4733500000000  0.4793100000000  0.3962120000000 1.0
C      1  0.5246620000000  0.5183660000000  0.6029420000000 1.0
C      1  0.5679600000000  0.5636150000000  0.4880120000000 1.0
C      1  0.4381690000000  0.4258120000000  0.5199330000000 1.0
C      1  0.4421370000000  0.4704880000000  0.4323100000000 1.0
C      1  0.5609510000000  0.5237180000000  0.5702370000000 1.0
C      1  0.5822250000000  0.4560350000000  0.4410980000000 1.0
C      1  0.4219620000000  0.5514890000000  0.5588300000000 1.0
END
