TITL C-2622957-9142-525 0.000991737538860694 125000 -857.025112007828 0 0 159 (C1) n - 1
REM
REM in /nfs/bkarasulu/CARBON/AIRSS/Generating-Clusters/AIREBO/with-SteepDescent/Higher-Symm/SD-CG/HFTN-CG
REM
REM
REM
REM
REM
REM ./C.cell (b20cbc046b6831c77cfcea5457e17084)
REM
REM compiler GCC version 9.2.1 20190827 (Red Hat 9.2.1-1)
REM options -cpp -mtune=generic -march=x86-64 -g -O0 -fpre-include=/usr/include/finclude/math-vector-fortran.h
REM seed 111377927 -2025701418 -1926275895 -219337648 536547612 -1022804175 975484669 -1025342991 -1051795071 1135369128 190600923 193263747 -930235454 1707402892 1893547322 2146210650 1442529138 1775559757 -854335587 1425978670 1780694752 574300915 -1086238120 -1542917751 -1660239386 185331933 1818710030 -1543469200 592435350 1290788496 1480006679 1247435721 -1872656515
REM
CELL 1.54180   50.00000   50.00000   50.00000   90.00000   90.00000   90.00000
LATT -1
SFAC C  
C      1  0.5103250000000  0.4764480000000  0.4270590000000 1.0
C      1  0.4859000000000  0.5207720000000  0.4150070000000 1.0
C      1  0.4804290000000  0.4885100000000  0.4242480000000 1.0
C      1  0.5144170000000  0.5161490000000  0.4263320000000 1.0
C      1  0.4902210000000  0.4206510000000  0.5839620000000 1.0
C      1  0.5193710000000  0.5546520000000  0.5797650000000 1.0
C      1  0.5136130000000  0.4384360000000  0.5861890000000 1.0
C      1  0.4857890000000  0.5510670000000  0.5841490000000 1.0
C      1  0.4440330000000  0.5679620000000  0.5133500000000 1.0
C      1  0.5611400000000  0.4269030000000  0.5158110000000 1.0
C      1  0.5544130000000  0.5860200000000  0.5205580000000 1.0
C      1  0.4379420000000  0.4295730000000  0.5248330000000 1.0
C      1  0.4431610000000  0.4776280000000  0.5670420000000 1.0
C      1  0.5500500000000  0.5175590000000  0.5485290000000 1.0
C      1  0.5492650000000  0.4875910000000  0.5601180000000 1.0
C      1  0.4464850000000  0.5059310000000  0.5491640000000 1.0
C      1  0.5004810000000  0.4469530000000  0.4186660000000 1.0
C      1  0.4953860000000  0.5505780000000  0.4016570000000 1.0
C      1  0.4715830000000  0.4496140000000  0.4221920000000 1.0
C      1  0.5219090000000  0.5543570000000  0.3978340000000 1.0
C      1  0.4754440000000  0.5194780000000  0.5812410000000 1.0
C      1  0.5088740000000  0.4683200000000  0.5845480000000 1.0
C      1  0.5352710000000  0.5337560000000  0.5984770000000 1.0
C      1  0.4803960000000  0.4859340000000  0.5786280000000 1.0
C      1  0.4627790000000  0.5209780000000  0.4393900000000 1.0
C      1  0.5377380000000  0.4813720000000  0.4466000000000 1.0
C      1  0.5378960000000  0.5137950000000  0.4491660000000 1.0
C      1  0.4570250000000  0.4825340000000  0.4483710000000 1.0
C      1  0.4553290000000  0.5385770000000  0.5526450000000 1.0
C      1  0.5356730000000  0.4616360000000  0.5465170000000 1.0
C      1  0.5374190000000  0.5458680000000  0.5516190000000 1.0
C      1  0.4570000000000  0.4541140000000  0.5546230000000 1.0
C      1  0.5585940000000  0.5813050000000  0.4564990000000 1.0
C      1  0.4522080000000  0.4104820000000  0.4655020000000 1.0
C      1  0.4473980000000  0.5818520000000  0.4626890000000 1.0
C      1  0.5557270000000  0.4122150000000  0.4626700000000 1.0
C      1  0.4413550000000  0.5228870000000  0.5787630000000 1.0
C      1  0.5659230000000  0.4797120000000  0.5878150000000 1.0
C      1  0.5619030000000  0.5267800000000  0.5913280000000 1.0
C      1  0.4204090000000  0.4695490000000  0.5895690000000 1.0
C      1  0.5366480000000  0.4755080000000  0.4055300000000 1.0
C      1  0.4573530000000  0.5252240000000  0.3962370000000 1.0
C      1  0.4553420000000  0.4970600000000  0.4044940000000 1.0
C      1  0.5387760000000  0.5040760000000  0.4096730000000 1.0
C      1  0.4103360000000  0.4838780000000  0.4667090000000 1.0
C      1  0.5912900000000  0.5202360000000  0.4635670000000 1.0
C      1  0.5847550000000  0.4910600000000  0.4685080000000 1.0
C      1  0.4202250000000  0.5083990000000  0.4705860000000 1.0
C      1  0.4351360000000  0.4620740000000  0.5222130000000 1.0
C      1  0.5652340000000  0.5334370000000  0.5094870000000 1.0
C      1  0.5631680000000  0.4607950000000  0.5176800000000 1.0
C      1  0.4369000000000  0.5347680000000  0.5111480000000 1.0
C      1  0.4760030000000  0.5891370000000  0.4648230000000 1.0
C      1  0.5255860000000  0.4060600000000  0.4668640000000 1.0
C      1  0.5298830000000  0.5959640000000  0.4606750000000 1.0
C      1  0.4728340000000  0.3927780000000  0.4576830000000 1.0
C      1  0.4506070000000  0.4652650000000  0.4118700000000 1.0
C      1  0.5444610000000  0.5375680000000  0.4125360000000 1.0
C      1  0.5312350000000  0.4448750000000  0.4156390000000 1.0
C      1  0.4651370000000  0.5541150000000  0.4082680000000 1.0
C      1  0.4866840000000  0.4838640000000  0.4629690000000 1.0
C      1  0.5174810000000  0.5144370000000  0.4763860000000 1.0
C      1  0.5169960000000  0.4803500000000  0.4735350000000 1.0
C      1  0.4891710000000  0.5160970000000  0.4576250000000 1.0
C      1  0.5665510000000  0.5207670000000  0.4321880000000 1.0
C      1  0.4280650000000  0.4821360000000  0.4309380000000 1.0
C      1  0.4324710000000  0.5142020000000  0.4331380000000 1.0
C      1  0.5677110000000  0.4867930000000  0.4314880000000 1.0
C      1  0.4519740000000  0.4869460000000  0.4817890000000 1.0
C      1  0.5599960000000  0.5221360000000  0.4715210000000 1.0
C      1  0.5569090000000  0.4824360000000  0.4746610000000 1.0
C      1  0.4507240000000  0.5163820000000  0.4685070000000 1.0
C      1  0.5127410000000  0.5769970000000  0.5549980000000 1.0
C      1  0.4930630000000  0.4175550000000  0.5506220000000 1.0
C      1  0.4837340000000  0.5814830000000  0.5479610000000 1.0
C      1  0.5219730000000  0.4183030000000  0.5454660000000 1.0
C      1  0.5537550000000  0.5500270000000  0.4821100000000 1.0
C      1  0.4435650000000  0.4566340000000  0.4901530000000 1.0
C      1  0.4439140000000  0.5443030000000  0.4812010000000 1.0
C      1  0.5557870000000  0.4521100000000  0.4856430000000 1.0
C      1  0.5262630000000  0.5799670000000  0.5086450000000 1.0
C      1  0.4819060000000  0.4130180000000  0.4921460000000 1.0
C      1  0.4959150000000  0.5812560000000  0.4980880000000 1.0
C      1  0.5120290000000  0.4170320000000  0.5025320000000 1.0
C      1  0.3938850000000  0.4755890000000  0.4899830000000 1.0
C      1  0.6062710000000  0.5323130000000  0.4900990000000 1.0
C      1  0.6033040000000  0.4770830000000  0.4867810000000 1.0
C      1  0.4062420000000  0.5286250000000  0.4846940000000 1.0
C      1  0.5195860000000  0.5153700000000  0.6114660000000 1.0
C      1  0.4837510000000  0.4805860000000  0.6126130000000 1.0
C      1  0.4890790000000  0.5122440000000  0.6105800000000 1.0
C      1  0.5173930000000  0.4844610000000  0.6114490000000 1.0
C      1  0.4767440000000  0.5698690000000  0.5214560000000 1.0
C      1  0.5288370000000  0.4399100000000  0.5212550000000 1.0
C      1  0.5157460000000  0.5575330000000  0.5282950000000 1.0
C      1  0.4802520000000  0.4415710000000  0.5369110000000 1.0
C      1  0.4586780000000  0.5606710000000  0.4385650000000 1.0
C      1  0.5441130000000  0.4385020000000  0.4441950000000 1.0
C      1  0.5455740000000  0.5527910000000  0.4431710000000 1.0
C      1  0.4503400000000  0.4364640000000  0.4532650000000 1.0
C      1  0.4043910000000  0.5817840000000  0.4829910000000 1.0
C      1  0.5986230000000  0.4227080000000  0.4815870000000 1.0
C      1  0.5770450000000  0.5657140000000  0.5098400000000 1.0
C      1  0.4169360000000  0.4227230000000  0.5002060000000 1.0
C      1  0.4139290000000  0.5539820000000  0.4684210000000 1.0
C      1  0.5873060000000  0.4516330000000  0.4735870000000 1.0
C      1  0.5870060000000  0.5565050000000  0.4791280000000 1.0
C      1  0.4119280000000  0.4478530000000  0.4830720000000 1.0
C      1  0.4305490000000  0.5443050000000  0.4427090000000 1.0
C      1  0.5699910000000  0.4572900000000  0.4465440000000 1.0
C      1  0.5789160000000  0.5477540000000  0.4476140000000 1.0
C      1  0.4267960000000  0.4570390000000  0.4538630000000 1.0
C      1  0.5827150000000  0.4844520000000  0.5583320000000 1.0
C      1  0.4116300000000  0.5165310000000  0.5654100000000 1.0
C      1  0.4116290000000  0.4865110000000  0.5616660000000 1.0
C      1  0.5803220000000  0.5143970000000  0.5742870000000 1.0
C      1  0.5373490000000  0.5834890000000  0.5782990000000 1.0
C      1  0.4663030000000  0.4070020000000  0.5663350000000 1.0
C      1  0.4690960000000  0.5709160000000  0.5713420000000 1.0
C      1  0.5355650000000  0.4281970000000  0.5703340000000 1.0
C      1  0.4739980000000  0.5600460000000  0.4830360000000 1.0
C      1  0.5305830000000  0.4363160000000  0.4815700000000 1.0
C      1  0.5295720000000  0.5690360000000  0.4803430000000 1.0
C      1  0.4718540000000  0.4419520000000  0.4862830000000 1.0
C      1  0.5093910000000  0.5063600000000  0.5346320000000 1.0
C      1  0.4766370000000  0.4802650000000  0.5453100000000 1.0
C      1  0.4836610000000  0.5202890000000  0.5482510000000 1.0
C      1  0.5098440000000  0.4794790000000  0.5525980000000 1.0
C      1  0.5644980000000  0.5880830000000  0.4875090000000 1.0
C      1  0.4483680000000  0.4115990000000  0.4975550000000 1.0
C      1  0.4337140000000  0.5827770000000  0.4875310000000 1.0
C      1  0.5709580000000  0.4151600000000  0.4872420000000 1.0
C      1  0.5139950000000  0.4649960000000  0.5037480000000 1.0
C      1  0.4847200000000  0.5392440000000  0.5089780000000 1.0
C      1  0.4836240000000  0.4567640000000  0.5104770000000 1.0
C      1  0.5179340000000  0.5373540000000  0.5015580000000 1.0
C      1  0.4464840000000  0.5674100000000  0.5471610000000 1.0
C      1  0.5575950000000  0.4357170000000  0.5484610000000 1.0
C      1  0.5521870000000  0.5764560000000  0.5493710000000 1.0
C      1  0.4464670000000  0.4235080000000  0.5540420000000 1.0
C      1  0.5150850000000  0.4504240000000  0.4574490000000 1.0
C      1  0.4860270000000  0.5490900000000  0.4551470000000 1.0
C      1  0.4808900000000  0.4513370000000  0.4548700000000 1.0
C      1  0.5177750000000  0.5454680000000  0.4621320000000 1.0
C      1  0.5420060000000  0.4841940000000  0.5049330000000 1.0
C      1  0.4632370000000  0.5156350000000  0.5211940000000 1.0
C      1  0.4615230000000  0.4822350000000  0.5148930000000 1.0
C      1  0.5377810000000  0.5152760000000  0.5181410000000 1.0
C      1  0.6020530000000  0.4876460000000  0.5126240000000 1.0
C      1  0.4062170000000  0.5226890000000  0.5157400000000 1.0
C      1  0.3983920000000  0.4910500000000  0.5130720000000 1.0
C      1  0.5947540000000  0.5171640000000  0.5151520000000 1.0
C      1  0.5822120000000  0.5216080000000  0.5435790000000 1.0
C      1  0.4115770000000  0.4764280000000  0.5329790000000 1.0
C      1  0.3984210000000  0.5302060000000  0.5453080000000 1.0
C      1  0.5871630000000  0.4727350000000  0.5311000000000 1.0
C      1  0.5027680000000  0.6001860000000  0.4706830000000 1.0
C      1  0.5000200000000  0.3977970000000  0.4686520000000 1.0
C      1  0.5029780000000  0.5015680000000  0.5043240000000 1.0
END
