TITL C-2622955-8511-477 -549.370052811362 125000 -1056.22129284888 0 0 187 (C1) n - 1
REM
REM in /nfs/bkarasulu/CARBON/AIRSS/Generating-Clusters/AIREBO/with-SteepDescent/Higher-Symm/SD-CG/HFTN-CG
REM
REM
REM
REM
REM
REM ./C.cell (b20cbc046b6831c77cfcea5457e17084)
REM
REM compiler GCC version 9.2.1 20190827 (Red Hat 9.2.1-1)
REM options -cpp -mtune=generic -march=x86-64 -g -O0 -fpre-include=/usr/include/finclude/math-vector-fortran.h
REM seed 299119381 786032725 2000875979 1867646944 -540307294 -1806341736 -1438333075 2106358744 -1393609047 -308138561 1642311832 1427410200 -340178606 -247350546 -517349240 556271285 -144696440 -1174200218 1620876687 -1716846487 1243202782 1580064045 2113969886 561438031 645437107 66535381 -2133202396 -287723837 -548414046 -1817865323 1809269888 -870431669 1341322178
REM
CELL 1.54180   50.00000   50.00000   50.00000   90.00000   90.00000   90.00000
LATT -1
SFAC C  
C      1  0.5301730000000  0.5083760000000  0.4441320000000 1.0
C      1  0.5390590000000  0.5272620000000  0.5436130000000 1.0
C      1  0.4396460000000  0.5362330000000  0.5160390000000 1.0
C      1  0.5177120000000  0.4753070000000  0.4444780000000 1.0
C      1  0.5406690000000  0.4652410000000  0.5468750000000 1.0
C      1  0.4325360000000  0.4836550000000  0.5038740000000 1.0
C      1  0.5234870000000  0.5056530000000  0.5612590000000 1.0
C      1  0.5500210000000  0.5238720000000  0.4611550000000 1.0
C      1  0.4290580000000  0.5211960000000  0.4915520000000 1.0
C      1  0.5162160000000  0.4725230000000  0.5642420000000 1.0
C      1  0.5494840000000  0.4738690000000  0.4477110000000 1.0
C      1  0.4424850000000  0.4696560000000  0.4759290000000 1.0
C      1  0.4251120000000  0.4426100000000  0.4324390000000 1.0
C      1  0.5880380000000  0.4468680000000  0.4755650000000 1.0
C      1  0.4785210000000  0.4487300000000  0.6019400000000 1.0
C      1  0.4245470000000  0.5576140000000  0.4310020000000 1.0
C      1  0.5951390000000  0.5532330000000  0.4714440000000 1.0
C      1  0.4756580000000  0.5529320000000  0.5975190000000 1.0
C      1  0.4253370000000  0.4546780000000  0.5767430000000 1.0
C      1  0.5989990000000  0.4469490000000  0.5325900000000 1.0
C      1  0.4783240000000  0.4449840000000  0.4028290000000 1.0
C      1  0.4224910000000  0.5501040000000  0.5734050000000 1.0
C      1  0.5961320000000  0.5552650000000  0.5301700000000 1.0
C      1  0.4765640000000  0.5531610000000  0.4078920000000 1.0
C      1  0.5059690000000  0.4487900000000  0.6092520000000 1.0
C      1  0.4039270000000  0.4458470000000  0.4509980000000 1.0
C      1  0.5873910000000  0.4429330000000  0.4479490000000 1.0
C      1  0.5032050000000  0.5534520000000  0.6037670000000 1.0
C      1  0.4026670000000  0.5567300000000  0.4491290000000 1.0
C      1  0.5914550000000  0.5514350000000  0.4435180000000 1.0
C      1  0.5044700000000  0.4482080000000  0.3934530000000 1.0
C      1  0.4085230000000  0.4483270000000  0.5515020000000 1.0
C      1  0.5941090000000  0.4483280000000  0.5607610000000 1.0
C      1  0.5029610000000  0.5540140000000  0.3999270000000 1.0
C      1  0.4028090000000  0.5497660000000  0.5507510000000 1.0
C      1  0.5899600000000  0.5541680000000  0.5578630000000 1.0
C      1  0.5189310000000  0.5452560000000  0.4781090000000 1.0
C      1  0.4986890000000  0.5398350000000  0.5337770000000 1.0
C      1  0.4671560000000  0.5481520000000  0.4814390000000 1.0
C      1  0.5343290000000  0.4543060000000  0.4791160000000 1.0
C      1  0.4950940000000  0.4501730000000  0.5208080000000 1.0
C      1  0.4720220000000  0.4414270000000  0.4893350000000 1.0
C      1  0.5202960000000  0.5441740000000  0.5108770000000 1.0
C      1  0.4936730000000  0.5588430000000  0.4628700000000 1.0
C      1  0.4766680000000  0.5496950000000  0.5108760000000 1.0
C      1  0.5250900000000  0.4608060000000  0.5104230000000 1.0
C      1  0.5006760000000  0.4518240000000  0.4745240000000 1.0
C      1  0.4635580000000  0.4531680000000  0.5171430000000 1.0
C      1  0.4758700000000  0.3847410000000  0.4595960000000 1.0
C      1  0.5481350000000  0.3889400000000  0.4833140000000 1.0
C      1  0.4816570000000  0.3929530000000  0.5566590000000 1.0
C      1  0.4676630000000  0.6143490000000  0.4659560000000 1.0
C      1  0.5501030000000  0.6079190000000  0.4912340000000 1.0
C      1  0.4853220000000  0.6111970000000  0.5456700000000 1.0
C      1  0.4652670000000  0.3928210000000  0.5322820000000 1.0
C      1  0.5427050000000  0.3991020000000  0.5119000000000 1.0
C      1  0.4937750000000  0.3889290000000  0.4421660000000 1.0
C      1  0.4587050000000  0.6147590000000  0.5398070000000 1.0
C      1  0.5563980000000  0.6094140000000  0.5182290000000 1.0
C      1  0.4949260000000  0.6121110000000  0.4498750000000 1.0
C      1  0.4593290000000  0.5280080000000  0.6036780000000 1.0
C      1  0.4320550000000  0.5325650000000  0.4175740000000 1.0
C      1  0.6107250000000  0.5327610000000  0.4865670000000 1.0
C      1  0.4605710000000  0.4743410000000  0.6016910000000 1.0
C      1  0.4332820000000  0.4643700000000  0.4131560000000 1.0
C      1  0.6080650000000  0.4663910000000  0.4877410000000 1.0
C      1  0.4566500000000  0.5306090000000  0.4038750000000 1.0
C      1  0.4326290000000  0.5206030000000  0.5875570000000 1.0
C      1  0.6097720000000  0.5328390000000  0.5141440000000 1.0
C      1  0.4574220000000  0.4671280000000  0.4004440000000 1.0
C      1  0.4352380000000  0.4867440000000  0.5829710000000 1.0
C      1  0.6109070000000  0.4685870000000  0.5154820000000 1.0
C      1  0.4789250000000  0.5254230000000  0.4377220000000 1.0
C      1  0.5698160000000  0.5241090000000  0.5069730000000 1.0
C      1  0.4572050000000  0.5116220000000  0.5496480000000 1.0
C      1  0.4740890000000  0.4720880000000  0.4364350000000 1.0
C      1  0.5713560000000  0.4741340000000  0.5161490000000 1.0
C      1  0.4615190000000  0.4804050000000  0.5507980000000 1.0
C      1  0.4780440000000  0.5261430000000  0.5679230000000 1.0
C      1  0.5736230000000  0.5143590000000  0.4771740000000 1.0
C      1  0.4518400000000  0.5145250000000  0.4472770000000 1.0
C      1  0.4825440000000  0.4703200000000  0.5685380000000 1.0
C      1  0.5718520000000  0.4832250000000  0.4873060000000 1.0
C      1  0.4458120000000  0.4827050000000  0.4463970000000 1.0
C      1  0.4472290000000  0.4309040000000  0.4452940000000 1.0
C      1  0.5645980000000  0.4440640000000  0.4907860000000 1.0
C      1  0.4740640000000  0.4383210000000  0.5723120000000 1.0
C      1  0.4459700000000  0.5684220000000  0.4446320000000 1.0
C      1  0.5715440000000  0.5602000000000  0.4843180000000 1.0
C      1  0.4715360000000  0.5577800000000  0.5671820000000 1.0
C      1  0.4457050000000  0.4382760000000  0.5617820000000 1.0
C      1  0.5709000000000  0.4421840000000  0.5213660000000 1.0
C      1  0.4743070000000  0.4398660000000  0.4348000000000 1.0
C      1  0.4435160000000  0.5635490000000  0.5586260000000 1.0
C      1  0.5694030000000  0.5555050000000  0.5146110000000 1.0
C      1  0.4724130000000  0.5585830000000  0.4375400000000 1.0
C      1  0.5592640000000  0.5502790000000  0.4326250000000 1.0
C      1  0.5279830000000  0.5522740000000  0.5799720000000 1.0
C      1  0.4105120000000  0.5552850000000  0.4828370000000 1.0
C      1  0.5641920000000  0.4466300000000  0.4227930000000 1.0
C      1  0.5344480000000  0.4483250000000  0.5900160000000 1.0
C      1  0.4105090000000  0.4474130000000  0.4846680000000 1.0
C      1  0.5575650000000  0.5516090000000  0.5690470000000 1.0
C      1  0.5322700000000  0.5505250000000  0.4173460000000 1.0
C      1  0.4049040000000  0.5543890000000  0.5164630000000 1.0
C      1  0.5628000000000  0.4480260000000  0.5752520000000 1.0
C      1  0.5339440000000  0.4466850000000  0.4112410000000 1.0
C      1  0.4131110000000  0.4465240000000  0.5172310000000 1.0
C      1  0.4557490000000  0.5190660000000  0.4769010000000 1.0
C      1  0.5198030000000  0.5118330000000  0.4843080000000 1.0
C      1  0.4968840000000  0.5099920000000  0.5455840000000 1.0
C      1  0.4663880000000  0.4899340000000  0.4835910000000 1.0
C      1  0.5413420000000  0.4874410000000  0.4760950000000 1.0
C      1  0.4960280000000  0.4836530000000  0.5266820000000 1.0
C      1  0.4658310000000  0.5209540000000  0.5213670000000 1.0
C      1  0.5394870000000  0.5161310000000  0.5121760000000 1.0
C      1  0.5013600000000  0.5124750000000  0.4557310000000 1.0
C      1  0.4635050000000  0.4872570000000  0.5174480000000 1.0
C      1  0.5420140000000  0.4840020000000  0.5209310000000 1.0
C      1  0.4908940000000  0.4822060000000  0.4642080000000 1.0
C      1  0.5031560000000  0.5620130000000  0.5588560000000 1.0
C      1  0.4407880000000  0.5685920000000  0.4746750000000 1.0
C      1  0.5470020000000  0.5576640000000  0.4634780000000 1.0
C      1  0.5079710000000  0.4400030000000  0.5703460000000 1.0
C      1  0.4413460000000  0.4356760000000  0.4763870000000 1.0
C      1  0.5478090000000  0.4399960000000  0.4513690000000 1.0
C      1  0.5125950000000  0.5679410000000  0.4361150000000 1.0
C      1  0.4344020000000  0.5656910000000  0.5290870000000 1.0
C      1  0.5492440000000  0.5593090000000  0.5383030000000 1.0
C      1  0.5079250000000  0.4448110000000  0.4330530000000 1.0
C      1  0.4416570000000  0.4365280000000  0.5313040000000 1.0
C      1  0.5529060000000  0.4352490000000  0.5453330000000 1.0
C      1  0.5241180000000  0.5892840000000  0.4861950000000 1.0
C      1  0.5005420000000  0.5878490000000  0.5284530000000 1.0
C      1  0.4761210000000  0.5994010000000  0.4952540000000 1.0
C      1  0.5230300000000  0.4116180000000  0.4796120000000 1.0
C      1  0.5016930000000  0.4191790000000  0.5248370000000 1.0
C      1  0.4717290000000  0.4078170000000  0.4840820000000 1.0
C      1  0.5233180000000  0.5747690000000  0.5120780000000 1.0
C      1  0.4972650000000  0.5893510000000  0.4744970000000 1.0
C      1  0.4735600000000  0.5779970000000  0.5183750000000 1.0
C      1  0.5247870000000  0.4274140000000  0.5069470000000 1.0
C      1  0.4968460000000  0.4210250000000  0.4658970000000 1.0
C      1  0.4844820000000  0.3987640000000  0.5116280000000 1.0
C      1  0.5456710000000  0.5915970000000  0.4615560000000 1.0
C      1  0.5122630000000  0.5944020000000  0.5584530000000 1.0
C      1  0.4450470000000  0.5968280000000  0.4849240000000 1.0
C      1  0.5455460000000  0.4082980000000  0.4552790000000 1.0
C      1  0.5087180000000  0.4126140000000  0.5547000000000 1.0
C      1  0.4393940000000  0.4060510000000  0.4932130000000 1.0
C      1  0.5390930000000  0.5898240000000  0.5379550000000 1.0
C      1  0.5198210000000  0.5956510000000  0.4421470000000 1.0
C      1  0.4440420000000  0.5944760000000  0.5183260000000 1.0
C      1  0.5375100000000  0.4099090000000  0.5404360000000 1.0
C      1  0.5160350000000  0.4125970000000  0.4403480000000 1.0
C      1  0.4420760000000  0.4070650000000  0.5226350000000 1.0
C      1  0.6010610000000  0.5158060000000  0.4587190000000 1.0
C      1  0.4900780000000  0.5158130000000  0.5952390000000 1.0
C      1  0.4198470000000  0.5125140000000  0.4405200000000 1.0
C      1  0.5944690000000  0.4838710000000  0.4619270000000 1.0
C      1  0.4919440000000  0.4858010000000  0.5960440000000 1.0
C      1  0.4139060000000  0.4809460000000  0.4347760000000 1.0
C      1  0.5879970000000  0.5163790000000  0.5346540000000 1.0
C      1  0.4867630000000  0.5145930000000  0.4084540000000 1.0
C      1  0.4257720000000  0.5153760000000  0.5546520000000 1.0
C      1  0.5907200000000  0.4857020000000  0.5377490000000 1.0
C      1  0.4862580000000  0.4836530000000  0.4090690000000 1.0
C      1  0.4288060000000  0.4835460000000  0.5497360000000 1.0
C      1  0.5788560000000  0.5219360000000  0.4336500000000 1.0
C      1  0.5211890000000  0.5255060000000  0.5980650000000 1.0
C      1  0.4010220000000  0.5282880000000  0.4644560000000 1.0
C      1  0.5856860000000  0.4715680000000  0.4312930000000 1.0
C      1  0.5234120000000  0.4773510000000  0.6032440000000 1.0
C      1  0.4040800000000  0.4757000000000  0.4669130000000 1.0
C      1  0.5767500000000  0.5246390000000  0.5657110000000 1.0
C      1  0.5185600000000  0.5245370000000  0.4013450000000 1.0
C      1  0.4048080000000  0.5233590000000  0.5303830000000 1.0
C      1  0.5793310000000  0.4769890000000  0.5686190000000 1.0
C      1  0.5189900000000  0.4759000000000  0.4046550000000 1.0
C      1  0.4054030000000  0.4745160000000  0.5315020000000 1.0
C      1  0.4036470000000  0.4990740000000  0.5130440000000 1.0
C      1  0.4050850000000  0.5013900000000  0.4809330000000 1.0
C      1  0.5642310000000  0.4962350000000  0.4272670000000 1.0
C      1  0.5682420000000  0.5011400000000  0.5819810000000 1.0
C      1  0.5338850000000  0.5002650000000  0.4124650000000 1.0
C      1  0.5383600000000  0.5005300000000  0.5890050000000 1.0
C      1  0.5000540000000  0.4992930000000  0.5022980000000 1.0
END
