TITL C-2622966-9038-28 -0.000759510915544937 125000 -439.914735678162 0 0 83 (C1) n - 1
REM
REM in /nfs/bkarasulu/CARBON/AIRSS/Generating-Clusters/AIREBO/with-SteepDescent/Higher-Symm/SD-CG/HFTN-CG
REM
REM
REM
REM
REM
REM ./C.cell (b20cbc046b6831c77cfcea5457e17084)
REM
REM compiler GCC version 9.2.1 20190827 (Red Hat 9.2.1-1)
REM options -cpp -mtune=generic -march=x86-64 -g -O0 -fpre-include=/usr/include/finclude/math-vector-fortran.h
REM seed 1287493355 -794578617 1139251456 -1376423463 684795015 -1438455137 1186390568 -870551296 1693078111 692392834 2141680101 -454857511 -2014794957 1175988252 -474588882 -371602406 391477976 251809833 1934814440 -319851844 -114882222 -390462754 -1648858396 -242431650 800227880 -1134050002 1479679290 -551731862 1372659567 -1736156909 36252323 -1436785849 1772077091
REM
CELL 1.54180   50.00000   50.00000   50.00000   90.00000   90.00000   90.00000
LATT -1
SFAC C  
C      1  0.4794020000000  0.5071560000000  0.4250950000000 1.0
C      1  0.5564810000000  0.5069010000000  0.4352020000000 1.0
C      1  0.5789150000000  0.5066480000000  0.4966570000000 1.0
C      1  0.5392400000000  0.4992180000000  0.5651090000000 1.0
C      1  0.4763080000000  0.5125600000000  0.5739410000000 1.0
C      1  0.4261290000000  0.5067370000000  0.5291560000000 1.0
C      1  0.4267110000000  0.5087250000000  0.4634510000000 1.0
C      1  0.5262980000000  0.5122190000000  0.4343410000000 1.0
C      1  0.5709570000000  0.5093210000000  0.4658550000000 1.0
C      1  0.5605780000000  0.5157830000000  0.5444550000000 1.0
C      1  0.5104430000000  0.5152270000000  0.5735280000000 1.0
C      1  0.4473690000000  0.5129730000000  0.5553100000000 1.0
C      1  0.4196590000000  0.5101260000000  0.4958920000000 1.0
C      1  0.4514160000000  0.5089920000000  0.4405200000000 1.0
C      1  0.5070290000000  0.4636620000000  0.5349280000000 1.0
C      1  0.4740650000000  0.4609400000000  0.5331070000000 1.0
C      1  0.4625740000000  0.4677980000000  0.5019670000000 1.0
C      1  0.4857520000000  0.4767940000000  0.4854150000000 1.0
C      1  0.5185610000000  0.4628480000000  0.4555360000000 1.0
C      1  0.5366920000000  0.4573820000000  0.4837770000000 1.0
C      1  0.5402310000000  0.4673630000000  0.5380090000000 1.0
C      1  0.4695910000000  0.4848160000000  0.4565930000000 1.0
C      1  0.5087070000000  0.4930080000000  0.4561940000000 1.0
C      1  0.5507410000000  0.4859940000000  0.4773690000000 1.0
C      1  0.5551470000000  0.4906990000000  0.5244850000000 1.0
C      1  0.5013000000000  0.4909570000000  0.5515410000000 1.0
C      1  0.4609270000000  0.4893100000000  0.5367320000000 1.0
C      1  0.4371200000000  0.4815960000000  0.4905250000000 1.0
C      1  0.4995860000000  0.5900220000000  0.4596240000000 1.0
C      1  0.5250360000000  0.5816220000000  0.4677900000000 1.0
C      1  0.5416410000000  0.5801090000000  0.4921630000000 1.0
C      1  0.5308370000000  0.5777130000000  0.5206990000000 1.0
C      1  0.4690250000000  0.5796360000000  0.5304100000000 1.0
C      1  0.4773420000000  0.5880600000000  0.5007570000000 1.0
C      1  0.4771660000000  0.5809320000000  0.4743900000000 1.0
C      1  0.4421700000000  0.5375990000000  0.4532920000000 1.0
C      1  0.4993440000000  0.5246480000000  0.4335880000000 1.0
C      1  0.5547160000000  0.5362090000000  0.4528330000000 1.0
C      1  0.5687950000000  0.5268880000000  0.5144200000000 1.0
C      1  0.5374550000000  0.5330900000000  0.5627130000000 1.0
C      1  0.4628630000000  0.5402660000000  0.5648640000000 1.0
C      1  0.4305290000000  0.5357370000000  0.5119520000000 1.0
C      1  0.4938780000000  0.5206860000000  0.5375470000000 1.0
C      1  0.4651690000000  0.5177610000000  0.5198530000000 1.0
C      1  0.4590100000000  0.5058860000000  0.4903960000000 1.0
C      1  0.4842220000000  0.5130180000000  0.4687120000000 1.0
C      1  0.5235640000000  0.5167210000000  0.4737260000000 1.0
C      1  0.5378520000000  0.5049630000000  0.5022520000000 1.0
C      1  0.5247070000000  0.5257920000000  0.5256920000000 1.0
C      1  0.4857380000000  0.4767130000000  0.4277900000000 1.0
C      1  0.5580040000000  0.4775630000000  0.4253890000000 1.0
C      1  0.5795970000000  0.4768290000000  0.5076170000000 1.0
C      1  0.5421910000000  0.4680890000000  0.5701660000000 1.0
C      1  0.4883800000000  0.4827460000000  0.5807230000000 1.0
C      1  0.4332040000000  0.4734420000000  0.5293820000000 1.0
C      1  0.4249620000000  0.4748360000000  0.4599970000000 1.0
C      1  0.5369990000000  0.4249950000000  0.5177120000000 1.0
C      1  0.5140110000000  0.4304810000000  0.5374640000000 1.0
C      1  0.4847830000000  0.4228150000000  0.5280790000000 1.0
C      1  0.4624890000000  0.4340410000000  0.5060220000000 1.0
C      1  0.4682560000000  0.4376180000000  0.4727050000000 1.0
C      1  0.4972660000000  0.4362800000000  0.4567220000000 1.0
C      1  0.5241370000000  0.4273830000000  0.4738500000000 1.0
C      1  0.4931490000000  0.4507880000000  0.4272300000000 1.0
C      1  0.5397200000000  0.4613350000000  0.4318040000000 1.0
C      1  0.5555700000000  0.4528380000000  0.5116920000000 1.0
C      1  0.5256340000000  0.4432090000000  0.5662380000000 1.0
C      1  0.4626100000000  0.4339400000000  0.5473370000000 1.0
C      1  0.4350000000000  0.4468050000000  0.5215340000000 1.0
C      1  0.4516490000000  0.4583200000000  0.4615060000000 1.0
C      1  0.4813840000000  0.5517410000000  0.5439040000000 1.0
C      1  0.4583840000000  0.5445120000000  0.4999660000000 1.0
C      1  0.4647480000000  0.5516730000000  0.4694330000000 1.0
C      1  0.4966570000000  0.5432950000000  0.4609520000000 1.0
C      1  0.5287510000000  0.5488660000000  0.4708140000000 1.0
C      1  0.5467910000000  0.5476100000000  0.5004730000000 1.0
C      1  0.5424770000000  0.5507480000000  0.5340960000000 1.0
C      1  0.5072770000000  0.4939710000000  0.5016170000000 1.0
C      1  0.4870270000000  0.5497190000000  0.5109100000000 1.0
C      1  0.5313650000000  0.4109490000000  0.4946970000000 1.0
C      1  0.5054570000000  0.5281990000000  0.5001290000000 1.0
C      1  0.5020310000000  0.5777900000000  0.5217570000000 1.0
C      1  0.5099380000000  0.4624630000000  0.5020080000000 1.0
END
