TITL C-2622958-629-217 -0.000264995144952146 125000 -528.387070501641 0 0 99 (C1) n - 1
REM
REM in /nfs/bkarasulu/CARBON/AIRSS/Generating-Clusters/AIREBO/with-SteepDescent/Higher-Symm/SD-CG/HFTN-CG
REM
REM
REM
REM
REM
REM ./C.cell (b20cbc046b6831c77cfcea5457e17084)
REM
REM compiler GCC version 9.2.1 20190827 (Red Hat 9.2.1-1)
REM options -cpp -mtune=generic -march=x86-64 -g -O0 -fpre-include=/usr/include/finclude/math-vector-fortran.h
REM seed -124328596 -2135487956 -871495285 -1135829596 1848587601 1158354490 -1540171217 1708491099 1220902495 869988986 -1674177749 -862289296 -578785442 549267587 508185234 1082329607 1093720240 -757812515 245717265 -138631192 -1261998430 -1621378149 722547239 -1052707772 -83911003 -2126397682 1362463520 -157919552 1609883216 708845805 -810039457 1362547210 -9182738
REM
CELL 1.54180   50.00000   50.00000   50.00000   90.00000   90.00000   90.00000
LATT -1
SFAC C  
C      1  0.5221450000000  0.4272850000000  0.4673320000000 1.0
C      1  0.5116770000000  0.4451160000000  0.5541890000000 1.0
C      1  0.5291900000000  0.5324060000000  0.5688390000000 1.0
C      1  0.5254130000000  0.5719060000000  0.4907340000000 1.0
C      1  0.5212670000000  0.5095740000000  0.4178020000000 1.0
C      1  0.4704030000000  0.4254380000000  0.5253460000000 1.0
C      1  0.4842910000000  0.4555020000000  0.4509180000000 1.0
C      1  0.4763310000000  0.5346090000000  0.4338230000000 1.0
C      1  0.4814960000000  0.5730980000000  0.5133490000000 1.0
C      1  0.4828550000000  0.5188370000000  0.5751010000000 1.0
C      1  0.5298610000000  0.5183050000000  0.3946870000000 1.0
C      1  0.5326140000000  0.4091760000000  0.4519330000000 1.0
C      1  0.5225930000000  0.4222400000000  0.5718940000000 1.0
C      1  0.5270800000000  0.5590860000000  0.5752140000000 1.0
C      1  0.5360130000000  0.5998860000000  0.4864250000000 1.0
C      1  0.4732360000000  0.5259360000000  0.6029780000000 1.0
C      1  0.4652710000000  0.4033130000000  0.5102950000000 1.0
C      1  0.4804600000000  0.4512640000000  0.4213710000000 1.0
C      1  0.4654890000000  0.5487700000000  0.4091370000000 1.0
C      1  0.4732570000000  0.6017790000000  0.5184890000000 1.0
C      1  0.5087210000000  0.4746280000000  0.4479810000000 1.0
C      1  0.5034000000000  0.4317160000000  0.5247730000000 1.0
C      1  0.5119430000000  0.5038010000000  0.5738200000000 1.0
C      1  0.5137360000000  0.5651080000000  0.5216870000000 1.0
C      1  0.5084960000000  0.5416430000000  0.4423320000000 1.0
C      1  0.4888870000000  0.4603520000000  0.5698840000000 1.0
C      1  0.4907780000000  0.4310760000000  0.4736630000000 1.0
C      1  0.4893610000000  0.5039770000000  0.4268310000000 1.0
C      1  0.4947220000000  0.5666800000000  0.4841840000000 1.0
C      1  0.4831030000000  0.5427070000000  0.5546100000000 1.0
C      1  0.4579780000000  0.4730390000000  0.4569350000000 1.0
C      1  0.4554510000000  0.4486960000000  0.5248170000000 1.0
C      1  0.4627350000000  0.5004010000000  0.5572700000000 1.0
C      1  0.4604090000000  0.5512460000000  0.5167590000000 1.0
C      1  0.4557010000000  0.5342400000000  0.4587790000000 1.0
C      1  0.5350020000000  0.4678150000000  0.5487010000000 1.0
C      1  0.5364040000000  0.4454320000000  0.4895330000000 1.0
C      1  0.5396340000000  0.4992110000000  0.4426190000000 1.0
C      1  0.5425000000000  0.5482040000000  0.4789430000000 1.0
C      1  0.5473480000000  0.5291980000000  0.5436080000000 1.0
C      1  0.5360110000000  0.4322160000000  0.5161100000000 1.0
C      1  0.5417460000000  0.4883350000000  0.5702430000000 1.0
C      1  0.5457600000000  0.5557500000000  0.5282460000000 1.0
C      1  0.5375910000000  0.5460990000000  0.4500220000000 1.0
C      1  0.5420480000000  0.4680530000000  0.4464470000000 1.0
C      1  0.4585160000000  0.4250270000000  0.4647810000000 1.0
C      1  0.4579890000000  0.4931420000000  0.4342100000000 1.0
C      1  0.4373870000000  0.5539140000000  0.4729020000000 1.0
C      1  0.4530190000000  0.5447330000000  0.5456870000000 1.0
C      1  0.4605460000000  0.4716310000000  0.5647420000000 1.0
C      1  0.5326330000000  0.4524300000000  0.4056440000000 1.0
C      1  0.5151750000000  0.3795860000000  0.5260650000000 1.0
C      1  0.5135310000000  0.5020490000000  0.6254590000000 1.0
C      1  0.5214110000000  0.6073200000000  0.5517520000000 1.0
C      1  0.5002760000000  0.5632210000000  0.3957160000000 1.0
C      1  0.4928230000000  0.4446350000000  0.6170820000000 1.0
C      1  0.4891130000000  0.3788850000000  0.4692110000000 1.0
C      1  0.4802980000000  0.4847010000000  0.3784140000000 1.0
C      1  0.4835290000000  0.5868290000000  0.4633560000000 1.0
C      1  0.4780390000000  0.5807330000000  0.5865930000000 1.0
C      1  0.5539310000000  0.4512550000000  0.4638930000000 1.0
C      1  0.5510880000000  0.4436400000000  0.5363810000000 1.0
C      1  0.5606940000000  0.5075310000000  0.5628070000000 1.0
C      1  0.5602910000000  0.5581530000000  0.5046000000000 1.0
C      1  0.5534760000000  0.5270480000000  0.4375750000000 1.0
C      1  0.4442770000000  0.4568030000000  0.5490960000000 1.0
C      1  0.4451670000000  0.4441950000000  0.4552630000000 1.0
C      1  0.4415510000000  0.5152030000000  0.4374760000000 1.0
C      1  0.4368600000000  0.5560900000000  0.4978210000000 1.0
C      1  0.4397160000000  0.5215890000000  0.5539650000000 1.0
C      1  0.4898200000000  0.5694400000000  0.5663280000000 1.0
C      1  0.4911010000000  0.5880650000000  0.4372880000000 1.0
C      1  0.4871750000000  0.4786340000000  0.4042600000000 1.0
C      1  0.4870890000000  0.4000180000000  0.4870070000000 1.0
C      1  0.4967680000000  0.4642330000000  0.5985120000000 1.0
C      1  0.4990780000000  0.5655150000000  0.4229160000000 1.0
C      1  0.5153690000000  0.5802800000000  0.5520840000000 1.0
C      1  0.5077400000000  0.4888340000000  0.6022960000000 1.0
C      1  0.5049480000000  0.3998580000000  0.5135230000000 1.0
C      1  0.5158220000000  0.4690210000000  0.4164550000000 1.0
C      1  0.5228320000000  0.4862880000000  0.5244430000000 1.0
C      1  0.5290180000000  0.5165400000000  0.5208080000000 1.0
C      1  0.5428470000000  0.5185360000000  0.4924980000000 1.0
C      1  0.5281360000000  0.4966410000000  0.4749610000000 1.0
C      1  0.5205510000000  0.4733530000000  0.4954790000000 1.0
C      1  0.4556740000000  0.4868690000000  0.4838140000000 1.0
C      1  0.4690580000000  0.5147390000000  0.4812690000000 1.0
C      1  0.4765140000000  0.5231530000000  0.5110190000000 1.0
C      1  0.4757380000000  0.4954900000000  0.5274950000000 1.0
C      1  0.4688200000000  0.4715150000000  0.5077720000000 1.0
C      1  0.4937860000000  0.5362030000000  0.4725240000000 1.0
C      1  0.5010440000000  0.5059830000000  0.4586990000000 1.0
C      1  0.4949530000000  0.4529340000000  0.4995710000000 1.0
C      1  0.4991860000000  0.4853930000000  0.5482330000000 1.0
C      1  0.5022520000000  0.5340450000000  0.5276580000000 1.0
C      1  0.4010080000000  0.4926610000000  0.4965810000000 1.0
C      1  0.5968700000000  0.5023690000000  0.4970180000000 1.0
C      1  0.5725200000000  0.5097140000000  0.4949920000000 1.0
C      1  0.4258350000000  0.4913810000000  0.4908080000000 1.0
END
