TITL C-2622963-3633-569 -0.0027934650738135 125000 -341.212200857823 0 0 63 (C1) n - 1
REM
REM in /nfs/bkarasulu/CARBON/AIRSS/Generating-Clusters/AIREBO/with-SteepDescent/Higher-Symm/SD-CG/HFTN-CG
REM
REM
REM
REM
REM
REM ./C.cell (b20cbc046b6831c77cfcea5457e17084)
REM
REM compiler GCC version 9.2.1 20190827 (Red Hat 9.2.1-1)
REM options -cpp -mtune=generic -march=x86-64 -g -O0 -fpre-include=/usr/include/finclude/math-vector-fortran.h
REM seed -81513411 -606428178 341529402 -524306750 -1347935561 643040604 588983059 300454613 -373416997 1514131543 779960571 1744574940 -1554582738 915061266 -180248103 1453070228 1347575945 979584589 1646810707 2073822967 1314268762 2059040693 -1161457763 1351718039 677295606 1792139613 1120065536 -1719331672 -1412088403 -646838738 313739615 -482322924 2079821168
REM
CELL 1.54180   50.00000   50.00000   50.00000   90.00000   90.00000   90.00000
LATT -1
SFAC C  
C      1  0.5443010000000  0.4373190000000  0.4907400000000 1.0
C      1  0.4950310000000  0.5337020000000  0.5674690000000 1.0
C      1  0.5558940000000  0.5267910000000  0.5231470000000 1.0
C      1  0.5136790000000  0.5190580000000  0.4492480000000 1.0
C      1  0.4884650000000  0.5626420000000  0.4955490000000 1.0
C      1  0.4337250000000  0.4786260000000  0.5422600000000 1.0
C      1  0.5483240000000  0.5127880000000  0.4833260000000 1.0
C      1  0.4435080000000  0.4764120000000  0.4530440000000 1.0
C      1  0.4931910000000  0.4974820000000  0.4386420000000 1.0
C      1  0.4680980000000  0.5298160000000  0.5554980000000 1.0
C      1  0.5583110000000  0.4817090000000  0.4822010000000 1.0
C      1  0.4611310000000  0.4644730000000  0.5555560000000 1.0
C      1  0.4873280000000  0.5121430000000  0.5114020000000 1.0
C      1  0.5056400000000  0.5393150000000  0.5107030000000 1.0
C      1  0.4887280000000  0.4468160000000  0.5071220000000 1.0
C      1  0.5564300000000  0.4606440000000  0.4997750000000 1.0
C      1  0.5423650000000  0.5093520000000  0.4440090000000 1.0
C      1  0.5197610000000  0.4155320000000  0.5276510000000 1.0
C      1  0.4689440000000  0.5134280000000  0.4884380000000 1.0
C      1  0.4655270000000  0.5080830000000  0.4427310000000 1.0
C      1  0.5169880000000  0.5525080000000  0.4544560000000 1.0
C      1  0.5131040000000  0.4261710000000  0.4984960000000 1.0
C      1  0.5450490000000  0.4521820000000  0.5460380000000 1.0
C      1  0.5229840000000  0.5692490000000  0.5305750000000 1.0
C      1  0.4718390000000  0.5060170000000  0.5362450000000 1.0
C      1  0.4613810000000  0.5544210000000  0.5386220000000 1.0
C      1  0.4419500000000  0.5317840000000  0.4815760000000 1.0
C      1  0.5157040000000  0.4557220000000  0.4548420000000 1.0
C      1  0.4961160000000  0.4555060000000  0.5385300000000 1.0
C      1  0.4577580000000  0.4544630000000  0.4830100000000 1.0
C      1  0.5268910000000  0.5657560000000  0.4301830000000 1.0
C      1  0.4885590000000  0.4685380000000  0.4809680000000 1.0
C      1  0.4930140000000  0.4679550000000  0.4412550000000 1.0
C      1  0.4861240000000  0.4487460000000  0.5705150000000 1.0
C      1  0.4413100000000  0.5033090000000  0.5267500000000 1.0
C      1  0.5240870000000  0.4320480000000  0.4668930000000 1.0
C      1  0.4437440000000  0.4497470000000  0.5318410000000 1.0
C      1  0.5434970000000  0.5518530000000  0.4762680000000 1.0
C      1  0.5695540000000  0.5370070000000  0.4937220000000 1.0
C      1  0.4337020000000  0.4785310000000  0.4828850000000 1.0
C      1  0.5098710000000  0.5087540000000  0.5641930000000 1.0
C      1  0.5171210000000  0.4978550000000  0.5033710000000 1.0
C      1  0.5396090000000  0.4970050000000  0.5228180000000 1.0
C      1  0.5372490000000  0.5518090000000  0.5097640000000 1.0
C      1  0.4695850000000  0.4902110000000  0.4699500000000 1.0
C      1  0.5543170000000  0.5335610000000  0.5621950000000 1.0
C      1  0.5211320000000  0.4375580000000  0.5444350000000 1.0
C      1  0.4618770000000  0.5609480000000  0.4995600000000 1.0
C      1  0.5185780000000  0.4788730000000  0.4786230000000 1.0
C      1  0.4570010000000  0.4391010000000  0.5101650000000 1.0
C      1  0.5319280000000  0.5171480000000  0.5457510000000 1.0
C      1  0.5516190000000  0.4700860000000  0.5256470000000 1.0
C      1  0.4883060000000  0.4848090000000  0.5535250000000 1.0
C      1  0.4675920000000  0.4561990000000  0.4493720000000 1.0
C      1  0.4621330000000  0.5337750000000  0.4547650000000 1.0
C      1  0.4314710000000  0.5030190000000  0.4964520000000 1.0
C      1  0.5161070000000  0.5235850000000  0.4820520000000 1.0
C      1  0.5613010000000  0.5301260000000  0.4571100000000 1.0
C      1  0.4466260000000  0.5348380000000  0.5151230000000 1.0
C      1  0.5433550000000  0.4841230000000  0.4559230000000 1.0
C      1  0.4832190000000  0.5503960000000  0.4509090000000 1.0
C      1  0.5027060000000  0.5746060000000  0.4759930000000 1.0
C      1  0.4955610000000  0.5539720000000  0.5401250000000 1.0
END
