TITL C-2622960-5345-552 1863.85412700764 125000 -898.046259064178 0 0 167 (C1) n - 1
REM
REM in /nfs/bkarasulu/CARBON/AIRSS/Generating-Clusters/AIREBO/with-SteepDescent/Higher-Symm/SD-CG/HFTN-CG
REM
REM
REM
REM
REM
REM ./C.cell (b20cbc046b6831c77cfcea5457e17084)
REM
REM compiler GCC version 9.2.1 20190827 (Red Hat 9.2.1-1)
REM options -cpp -mtune=generic -march=x86-64 -g -O0 -fpre-include=/usr/include/finclude/math-vector-fortran.h
REM seed -1613036422 -1742593545 93029387 -1647891946 1802659440 867533968 1409842890 -1232233991 -1579666358 1736999141 -428519476 699295530 -131174730 459250721 -692698351 1392417823 1264002349 14037503 -2039904096 -1264082107 -1084114726 -941128576 -1293137987 -74660160 1700518822 -1422943135 393267038 1343454205 -759778815 -1538528173 576103629 -579017791 632945831
REM
CELL 1.54180   50.00000   50.00000   50.00000   90.00000   90.00000   90.00000
LATT -1
SFAC C  
C      1  0.5365610000000  0.5440170000000  0.5282940000000 1.0
C      1  0.4820290000000  0.5525550000000  0.5268870000000 1.0
C      1  0.4601160000000  0.5014650000000  0.5043680000000 1.0
C      1  0.4943850000000  0.4593780000000  0.5095210000000 1.0
C      1  0.5407650000000  0.4802340000000  0.5149870000000 1.0
C      1  0.4525360000000  0.5441900000000  0.4757270000000 1.0
C      1  0.5241640000000  0.5453430000000  0.4965620000000 1.0
C      1  0.5416360000000  0.4862320000000  0.4860820000000 1.0
C      1  0.5201090000000  0.4429270000000  0.4950540000000 1.0
C      1  0.4554050000000  0.4725160000000  0.4871700000000 1.0
C      1  0.5201810000000  0.4033910000000  0.4908740000000 1.0
C      1  0.5915830000000  0.4867670000000  0.4745020000000 1.0
C      1  0.5372900000000  0.5941690000000  0.4898340000000 1.0
C      1  0.4225570000000  0.5697370000000  0.4785930000000 1.0
C      1  0.4181750000000  0.4543720000000  0.4835950000000 1.0
C      1  0.4754160000000  0.4025900000000  0.5178000000000 1.0
C      1  0.4068710000000  0.4891460000000  0.5172800000000 1.0
C      1  0.4601450000000  0.5932370000000  0.5158660000000 1.0
C      1  0.5808920000000  0.5641510000000  0.5150310000000 1.0
C      1  0.5831560000000  0.4460390000000  0.5176490000000 1.0
C      1  0.5638160000000  0.4682600000000  0.4737430000000 1.0
C      1  0.5470950000000  0.5525010000000  0.4763830000000 1.0
C      1  0.4560610000000  0.5770150000000  0.4751270000000 1.0
C      1  0.4315980000000  0.4816840000000  0.4694650000000 1.0
C      1  0.4942440000000  0.4248490000000  0.4843020000000 1.0
C      1  0.4380090000000  0.4883740000000  0.5263900000000 1.0
C      1  0.4580950000000  0.5542070000000  0.5078180000000 1.0
C      1  0.5397360000000  0.5745510000000  0.5377180000000 1.0
C      1  0.5940600000000  0.4838930000000  0.5236490000000 1.0
C      1  0.4972250000000  0.4263660000000  0.5240130000000 1.0
C      1  0.4462250000000  0.4422060000000  0.4037960000000 1.0
C      1  0.5040880000000  0.4371680000000  0.4190140000000 1.0
C      1  0.5559230000000  0.4964330000000  0.4034580000000 1.0
C      1  0.5117780000000  0.5540220000000  0.4048250000000 1.0
C      1  0.4569570000000  0.5502030000000  0.4142540000000 1.0
C      1  0.5560970000000  0.4693380000000  0.5799260000000 1.0
C      1  0.4909290000000  0.4344800000000  0.5866630000000 1.0
C      1  0.4439300000000  0.4935450000000  0.6013160000000 1.0
C      1  0.4547540000000  0.5516060000000  0.5786710000000 1.0
C      1  0.5141110000000  0.5497910000000  0.5982190000000 1.0
C      1  0.4405890000000  0.4318710000000  0.4872650000000 1.0
C      1  0.5495710000000  0.4154700000000  0.4913680000000 1.0
C      1  0.5942210000000  0.5171390000000  0.4805970000000 1.0
C      1  0.5072840000000  0.6002150000000  0.4922680000000 1.0
C      1  0.4110640000000  0.5376800000000  0.4798110000000 1.0
C      1  0.5610160000000  0.4262200000000  0.5160280000000 1.0
C      1  0.4530020000000  0.4272970000000  0.5176400000000 1.0
C      1  0.4123550000000  0.5221230000000  0.5100670000000 1.0
C      1  0.4902890000000  0.5959470000000  0.5198200000000 1.0
C      1  0.5908980000000  0.5321130000000  0.5110040000000 1.0
C      1  0.4813180000000  0.4471370000000  0.5569480000000 1.0
C      1  0.5522490000000  0.4735870000000  0.5464020000000 1.0
C      1  0.5537030000000  0.5396120000000  0.5571550000000 1.0
C      1  0.4771920000000  0.5428600000000  0.5557460000000 1.0
C      1  0.4395070000000  0.4993570000000  0.5714200000000 1.0
C      1  0.5200800000000  0.4459470000000  0.4477090000000 1.0
C      1  0.4572100000000  0.4622180000000  0.4264910000000 1.0
C      1  0.4460600000000  0.5398630000000  0.4426240000000 1.0
C      1  0.5286200000000  0.5485530000000  0.4323340000000 1.0
C      1  0.5606310000000  0.5021370000000  0.4354000000000 1.0
C      1  0.5120530000000  0.4863480000000  0.4693280000000 1.0
C      1  0.5302450000000  0.5135680000000  0.4702650000000 1.0
C      1  0.5029630000000  0.5313760000000  0.4755870000000 1.0
C      1  0.4800870000000  0.5103760000000  0.4779520000000 1.0
C      1  0.4876200000000  0.4788630000000  0.4862090000000 1.0
C      1  0.4919370000000  0.4930680000000  0.5433390000000 1.0
C      1  0.4753020000000  0.5132710000000  0.5293780000000 1.0
C      1  0.5059590000000  0.5286900000000  0.5283790000000 1.0
C      1  0.5272820000000  0.5057740000000  0.5300290000000 1.0
C      1  0.5109610000000  0.4775250000000  0.5269800000000 1.0
C      1  0.4128810000000  0.4610250000000  0.4509020000000 1.0
C      1  0.5023280000000  0.4010030000000  0.4620330000000 1.0
C      1  0.5826180000000  0.4704790000000  0.4458360000000 1.0
C      1  0.5425170000000  0.5802260000000  0.4664100000000 1.0
C      1  0.4365740000000  0.5780980000000  0.4487570000000 1.0
C      1  0.5904690000000  0.4630950000000  0.5477190000000 1.0
C      1  0.4975500000000  0.3989780000000  0.5441590000000 1.0
C      1  0.4152660000000  0.4760930000000  0.5484980000000 1.0
C      1  0.4459950000000  0.5696640000000  0.5343790000000 1.0
C      1  0.5718670000000  0.5723280000000  0.5431150000000 1.0
C      1  0.5014050000000  0.5713490000000  0.5746410000000 1.0
C      1  0.4333650000000  0.5460590000000  0.5490930000000 1.0
C      1  0.4376700000000  0.4527100000000  0.5658530000000 1.0
C      1  0.5132890000000  0.4228850000000  0.5625230000000 1.0
C      1  0.5831250000000  0.4948350000000  0.5603130000000 1.0
C      1  0.4684150000000  0.5722890000000  0.4374270000000 1.0
C      1  0.5740030000000  0.5388670000000  0.4274940000000 1.0
C      1  0.5578860000000  0.4495480000000  0.4354050000000 1.0
C      1  0.4843860000000  0.4222960000000  0.4426330000000 1.0
C      1  0.3908060000000  0.4869280000000  0.4502280000000 1.0
C      1  0.5165100000000  0.5062390000000  0.4221310000000 1.0
C      1  0.4990700000000  0.5320810000000  0.4357210000000 1.0
C      1  0.4769150000000  0.5111300000000  0.4242160000000 1.0
C      1  0.4796600000000  0.4829150000000  0.4352870000000 1.0
C      1  0.5117210000000  0.4772820000000  0.4374620000000 1.0
C      1  0.4796630000000  0.5084190000000  0.5858590000000 1.0
C      1  0.5011840000000  0.5272460000000  0.5683170000000 1.0
C      1  0.5253720000000  0.5040330000000  0.5739120000000 1.0
C      1  0.5138260000000  0.4770820000000  0.5733040000000 1.0
C      1  0.4829700000000  0.4784890000000  0.5700320000000 1.0
C      1  0.5760020000000  0.5448810000000  0.4774210000000 1.0
C      1  0.4848580000000  0.5843850000000  0.4717610000000 1.0
C      1  0.4293380000000  0.5125360000000  0.4659720000000 1.0
C      1  0.4706540000000  0.4439170000000  0.4768770000000 1.0
C      1  0.5373210000000  0.4487980000000  0.4730540000000 1.0
C      1  0.4425020000000  0.5264510000000  0.5010040000000 1.0
C      1  0.5076380000000  0.5674520000000  0.5149530000000 1.0
C      1  0.5710380000000  0.5088770000000  0.5250400000000 1.0
C      1  0.5251310000000  0.4402340000000  0.5263820000000 1.0
C      1  0.4681770000000  0.4542280000000  0.5288440000000 1.0
C      1  0.5910890000000  0.5360320000000  0.4517350000000 1.0
C      1  0.4922550000000  0.6159440000000  0.4666260000000 1.0
C      1  0.3980970000000  0.5124180000000  0.4583320000000 1.0
C      1  0.4521380000000  0.4258230000000  0.4548180000000 1.0
C      1  0.5594120000000  0.4270010000000  0.4610450000000 1.0
C      1  0.4092090000000  0.5377020000000  0.5355180000000 1.0
C      1  0.5105960000000  0.5836950000000  0.5446870000000 1.0
C      1  0.6021330000000  0.5137560000000  0.5379000000000 1.0
C      1  0.5436440000000  0.4199070000000  0.5446180000000 1.0
C      1  0.4379360000000  0.4293130000000  0.5450860000000 1.0
C      1  0.5264040000000  0.5496770000000  0.5667820000000 1.0
C      1  0.4525410000000  0.5209320000000  0.5532860000000 1.0
C      1  0.4548060000000  0.4764390000000  0.5514930000000 1.0
C      1  0.5269910000000  0.4536180000000  0.5575880000000 1.0
C      1  0.5521150000000  0.5069030000000  0.5532250000000 1.0
C      1  0.4926540000000  0.5571740000000  0.4559300000000 1.0
C      1  0.5501500000000  0.5308190000000  0.4503630000000 1.0
C      1  0.5438080000000  0.4779780000000  0.4409910000000 1.0
C      1  0.4808810000000  0.4536910000000  0.4470290000000 1.0
C      1  0.4604020000000  0.5121620000000  0.4539210000000 1.0
C      1  0.4717630000000  0.5769600000000  0.5758170000000 1.0
C      1  0.4416080000000  0.5185510000000  0.6174130000000 1.0
C      1  0.4617140000000  0.4515340000000  0.5905530000000 1.0
C      1  0.5397460000000  0.4458660000000  0.5881430000000 1.0
C      1  0.5695850000000  0.5057800000000  0.5891350000000 1.0
C      1  0.4888720000000  0.5686990000000  0.4104960000000 1.0
C      1  0.5627430000000  0.5278190000000  0.4033480000000 1.0
C      1  0.5334820000000  0.4529720000000  0.4118320000000 1.0
C      1  0.4640570000000  0.4311730000000  0.3873530000000 1.0
C      1  0.4479790000000  0.5394950000000  0.3893830000000 1.0
C      1  0.5502770000000  0.5081230000000  0.6047490000000 1.0
C      1  0.5175610000000  0.5173680000000  0.6036950000000 1.0
C      1  0.4593490000000  0.5300430000000  0.5974630000000 1.0
C      1  0.4655940000000  0.4761130000000  0.6058520000000 1.0
C      1  0.5196180000000  0.4335670000000  0.6019700000000 1.0
C      1  0.4612700000000  0.5176620000000  0.3789690000000 1.0
C      1  0.4805710000000  0.5067070000000  0.3941690000000 1.0
C      1  0.5299110000000  0.5265000000000  0.3991190000000 1.0
C      1  0.5340540000000  0.4790790000000  0.3986160000000 1.0
C      1  0.4913340000000  0.4301720000000  0.3913090000000 1.0
C      1  0.5649890000000  0.4425740000000  0.5521570000000 1.0
C      1  0.5789660000000  0.5572350000000  0.5667300000000 1.0
C      1  0.4588510000000  0.5911610000000  0.5553950000000 1.0
C      1  0.4064820000000  0.4957110000000  0.5697060000000 1.0
C      1  0.4744610000000  0.4165890000000  0.5552420000000 1.0
C      1  0.4316730000000  0.4430950000000  0.4345950000000 1.0
C      1  0.4167920000000  0.5524050000000  0.4430670000000 1.0
C      1  0.5363330000000  0.5784310000000  0.4401640000000 1.0
C      1  0.5898900000000  0.4898860000000  0.4231470000000 1.0
C      1  0.5233240000000  0.4139770000000  0.4447170000000 1.0
C      1  0.3986600000000  0.4661450000000  0.5015470000000 1.0
C      1  0.4909720000000  0.3872560000000  0.4974030000000 1.0
C      1  0.5543780000000  0.5852280000000  0.5101120000000 1.0
C      1  0.4321040000000  0.5913990000000  0.5030520000000 1.0
C      1  0.5974900000000  0.4667420000000  0.4979510000000 1.0
C      1  0.5104620000000  0.5001450000000  0.3892310000000 1.0
C      1  0.4940150000000  0.4938540000000  0.6116530000000 1.0
END
