TITL C-2622961-1971-299 -0.00275779331245242 125000 -734.952017757374 0 0 138 (C1) n - 1
REM
REM in /nfs/bkarasulu/CARBON/AIRSS/Generating-Clusters/AIREBO/with-SteepDescent/Higher-Symm/SD-CG/HFTN-CG
REM
REM
REM
REM
REM
REM ./C.cell (b20cbc046b6831c77cfcea5457e17084)
REM
REM compiler GCC version 9.2.1 20190827 (Red Hat 9.2.1-1)
REM options -cpp -mtune=generic -march=x86-64 -g -O0 -fpre-include=/usr/include/finclude/math-vector-fortran.h
REM seed 190839909 1882879082 -2019273785 -678183869 1671553560 -784205295 -910119284 -1959202134 1036120435 1539152009 -413919355 281071483 752550286 -1314899573 1236008411 -1478324005 2110697732 955480604 936895052 -486829812 688262075 698331369 -366829795 1333366209 -1448692772 -224787461 628410664 1768414534 -1800776432 -1902144351 -1734721960 -284368387 -1733670923
REM
CELL 1.54180   50.00000   50.00000   50.00000   90.00000   90.00000   90.00000
LATT -1
SFAC C  
C      1  0.4886760000000  0.5051900000000  0.4579930000000 1.0
C      1  0.5104630000000  0.5459130000000  0.4178470000000 1.0
C      1  0.5295050000000  0.4761390000000  0.5586100000000 1.0
C      1  0.4998410000000  0.5429130000000  0.5078150000000 1.0
C      1  0.5365490000000  0.5746240000000  0.4549050000000 1.0
C      1  0.5748220000000  0.4637460000000  0.4509480000000 1.0
C      1  0.5047510000000  0.4344640000000  0.5369520000000 1.0
C      1  0.4729730000000  0.5548680000000  0.4610830000000 1.0
C      1  0.5577620000000  0.4007100000000  0.4471870000000 1.0
C      1  0.5815920000000  0.4765960000000  0.5430460000000 1.0
C      1  0.4390260000000  0.5261570000000  0.5823440000000 1.0
C      1  0.5751740000000  0.5437400000000  0.4675740000000 1.0
C      1  0.5348990000000  0.3964350000000  0.5378610000000 1.0
C      1  0.4503400000000  0.4694230000000  0.5808140000000 1.0
C      1  0.5834650000000  0.4769970000000  0.5024490000000 1.0
C      1  0.5395830000000  0.5773910000000  0.4875270000000 1.0
C      1  0.5219630000000  0.4868960000000  0.5272490000000 1.0
C      1  0.4980500000000  0.4532850000000  0.4202250000000 1.0
C      1  0.4749220000000  0.4875810000000  0.4358640000000 1.0
C      1  0.5869990000000  0.4492970000000  0.5149060000000 1.0
C      1  0.5949060000000  0.4989230000000  0.5249840000000 1.0
C      1  0.5508750000000  0.5407480000000  0.4988870000000 1.0
C      1  0.4469310000000  0.5305960000000  0.5223710000000 1.0
C      1  0.5212660000000  0.5329090000000  0.4859660000000 1.0
C      1  0.5685380000000  0.4454320000000  0.5398380000000 1.0
C      1  0.4599020000000  0.5148160000000  0.4109740000000 1.0
C      1  0.5220590000000  0.4683540000000  0.4210450000000 1.0
C      1  0.4689710000000  0.5299790000000  0.4823920000000 1.0
C      1  0.4151390000000  0.4557590000000  0.5136100000000 1.0
C      1  0.5241210000000  0.4745030000000  0.4894720000000 1.0
C      1  0.4238530000000  0.5137890000000  0.4904840000000 1.0
C      1  0.5598450000000  0.4993390000000  0.5060560000000 1.0
C      1  0.5148200000000  0.5173940000000  0.4480870000000 1.0
C      1  0.4915710000000  0.5050960000000  0.4039930000000 1.0
C      1  0.4221310000000  0.4500210000000  0.4661130000000 1.0
C      1  0.5245070000000  0.6007310000000  0.4421390000000 1.0
C      1  0.5200730000000  0.5904050000000  0.5125360000000 1.0
C      1  0.5273330000000  0.5049230000000  0.4989220000000 1.0
C      1  0.4855890000000  0.4105560000000  0.4845910000000 1.0
C      1  0.5001290000000  0.4628780000000  0.4601690000000 1.0
C      1  0.6078220000000  0.4342280000000  0.5101600000000 1.0
C      1  0.4255980000000  0.4698790000000  0.4386540000000 1.0
C      1  0.5431630000000  0.5035440000000  0.4543290000000 1.0
C      1  0.5314570000000  0.4760470000000  0.4590160000000 1.0
C      1  0.4566450000000  0.4910740000000  0.5334470000000 1.0
C      1  0.5394340000000  0.4839310000000  0.5901950000000 1.0
C      1  0.4829820000000  0.4061490000000  0.5131350000000 1.0
C      1  0.5517490000000  0.4162210000000  0.5471700000000 1.0
C      1  0.4361330000000  0.4332700000000  0.5142880000000 1.0
C      1  0.4417350000000  0.4321480000000  0.4825860000000 1.0
C      1  0.4662230000000  0.4516360000000  0.4958920000000 1.0
C      1  0.4261770000000  0.5007510000000  0.4528990000000 1.0
C      1  0.5444560000000  0.5114050000000  0.5343010000000 1.0
C      1  0.5265050000000  0.5564990000000  0.5529640000000 1.0
C      1  0.4400130000000  0.5627640000000  0.4637910000000 1.0
C      1  0.5166240000000  0.5471550000000  0.4573240000000 1.0
C      1  0.5458790000000  0.4547080000000  0.4411340000000 1.0
C      1  0.4950150000000  0.5657890000000  0.4388320000000 1.0
C      1  0.4885560000000  0.4831160000000  0.5323440000000 1.0
C      1  0.4703020000000  0.4580350000000  0.4093830000000 1.0
C      1  0.4208840000000  0.5018720000000  0.5507390000000 1.0
C      1  0.5291950000000  0.5097770000000  0.5800350000000 1.0
C      1  0.4935800000000  0.5165510000000  0.5283920000000 1.0
C      1  0.4556150000000  0.5111750000000  0.4502740000000 1.0
C      1  0.5383500000000  0.4278490000000  0.4542400000000 1.0
C      1  0.5087570000000  0.4043180000000  0.5293360000000 1.0
C      1  0.5561400000000  0.5659560000000  0.5293810000000 1.0
C      1  0.5081470000000  0.4311400000000  0.4694070000000 1.0
C      1  0.4285730000000  0.5559450000000  0.5152210000000 1.0
C      1  0.5553460000000  0.5071950000000  0.4280450000000 1.0
C      1  0.5887620000000  0.5264430000000  0.5237060000000 1.0
C      1  0.4967350000000  0.4296400000000  0.4374060000000 1.0
C      1  0.4750530000000  0.4662170000000  0.5586060000000 1.0
C      1  0.4812700000000  0.6048520000000  0.4788580000000 1.0
C      1  0.4042540000000  0.4913280000000  0.4771300000000 1.0
C      1  0.4575280000000  0.5389530000000  0.4350910000000 1.0
C      1  0.4855340000000  0.5358780000000  0.4019940000000 1.0
C      1  0.4573640000000  0.4329740000000  0.4131680000000 1.0
C      1  0.4491110000000  0.5035680000000  0.5048540000000 1.0
C      1  0.4898980000000  0.4545630000000  0.5138900000000 1.0
C      1  0.4560470000000  0.4786060000000  0.4839070000000 1.0
C      1  0.5352300000000  0.4459470000000  0.5467210000000 1.0
C      1  0.5567830000000  0.4115870000000  0.4765570000000 1.0
C      1  0.4990820000000  0.4796620000000  0.5738010000000 1.0
C      1  0.5489250000000  0.5432630000000  0.5710170000000 1.0
C      1  0.5076230000000  0.5875940000000  0.4828400000000 1.0
C      1  0.4722060000000  0.4482050000000  0.4625920000000 1.0
C      1  0.4552710000000  0.5766290000000  0.5193780000000 1.0
C      1  0.4006450000000  0.4783860000000  0.5636190000000 1.0
C      1  0.4977210000000  0.5687730000000  0.5511970000000 1.0
C      1  0.4511000000000  0.4988490000000  0.5660790000000 1.0
C      1  0.4178360000000  0.5311540000000  0.5366630000000 1.0
C      1  0.5652070000000  0.5367500000000  0.5418240000000 1.0
C      1  0.5419890000000  0.5550590000000  0.4276250000000 1.0
C      1  0.5388460000000  0.4354320000000  0.5145810000000 1.0
C      1  0.5014730000000  0.5951110000000  0.4319390000000 1.0
C      1  0.4607430000000  0.4235270000000  0.5270850000000 1.0
C      1  0.5683130000000  0.5159440000000  0.5756410000000 1.0
C      1  0.4930000000000  0.5370900000000  0.5626430000000 1.0
C      1  0.4777810000000  0.5631880000000  0.5784090000000 1.0
C      1  0.4996160000000  0.5268230000000  0.6005790000000 1.0
C      1  0.4752360000000  0.4383320000000  0.5472530000000 1.0
C      1  0.5695590000000  0.5669370000000  0.4917890000000 1.0
C      1  0.5583360000000  0.4220140000000  0.5018170000000 1.0
C      1  0.5273480000000  0.4688720000000  0.6106880000000 1.0
C      1  0.4671580000000  0.5331360000000  0.5419160000000 1.0
C      1  0.5374580000000  0.5259550000000  0.4124560000000 1.0
C      1  0.4811110000000  0.5090320000000  0.4982280000000 1.0
C      1  0.5908130000000  0.5419080000000  0.5006220000000 1.0
C      1  0.4949900000000  0.4876260000000  0.4830080000000 1.0
C      1  0.5291400000000  0.5464240000000  0.5226330000000 1.0
C      1  0.5010940000000  0.4645360000000  0.6022480000000 1.0
C      1  0.4060090000000  0.5257350000000  0.4645050000000 1.0
C      1  0.4484280000000  0.4831950000000  0.4160900000000 1.0
C      1  0.5491010000000  0.5926120000000  0.5247860000000 1.0
C      1  0.4658780000000  0.4219350000000  0.4416190000000 1.0
C      1  0.4898420000000  0.5786380000000  0.5227570000000 1.0
C      1  0.4593400000000  0.5923490000000  0.4928270000000 1.0
C      1  0.5172060000000  0.4994770000000  0.4192030000000 1.0
C      1  0.5284700000000  0.5349080000000  0.5968940000000 1.0
C      1  0.4547210000000  0.5453780000000  0.5700760000000 1.0
C      1  0.4107870000000  0.4735570000000  0.5344060000000 1.0
C      1  0.4820580000000  0.5669420000000  0.4915710000000 1.0
C      1  0.4534520000000  0.4715810000000  0.4539010000000 1.0
C      1  0.4237780000000  0.5471600000000  0.4842410000000 1.0
C      1  0.5597620000000  0.4917200000000  0.5567960000000 1.0
C      1  0.5170840000000  0.4468190000000  0.4982320000000 1.0
C      1  0.4603900000000  0.4109820000000  0.4702250000000 1.0
C      1  0.4492600000000  0.4572290000000  0.6034560000000 1.0
C      1  0.5692570000000  0.5527880000000  0.4411060000000 1.0
C      1  0.4819140000000  0.5087390000000  0.5778040000000 1.0
C      1  0.4071660000000  0.4637510000000  0.4864630000000 1.0
C      1  0.4324100000000  0.5618580000000  0.4344080000000 1.0
C      1  0.4109390000000  0.4639940000000  0.5842970000000 1.0
C      1  0.5585840000000  0.5161760000000  0.4768350000000 1.0
C      1  0.5179440000000  0.5177960000000  0.5522310000000 1.0
C      1  0.5859020000000  0.4722170000000  0.4714360000000 1.0
C      1  0.5621570000000  0.6160570000000  0.5290330000000 1.0
END
