TITL C-2622958-629-355 0.000508106463603845 125000 -135.915139062639 0 0 28 (C1) n - 1
REM
REM in /nfs/bkarasulu/CARBON/AIRSS/Generating-Clusters/AIREBO/with-SteepDescent/Higher-Symm/SD-CG/HFTN-CG
REM
REM
REM
REM
REM
REM ./C.cell (b20cbc046b6831c77cfcea5457e17084)
REM
REM compiler GCC version 9.2.1 20190827 (Red Hat 9.2.1-1)
REM options -cpp -mtune=generic -march=x86-64 -g -O0 -fpre-include=/usr/include/finclude/math-vector-fortran.h
REM seed -769038128 -639729091 204931046 1176091404 1857711577 -963465661 2084312980 -2140101068 80475991 221511340 -436965885 -414348789 498297917 -1299470996 1185197864 897059280 2053161805 2045567378 -663775293 2011312853 509347228 -632519573 1973398507 -1361051620 -2059990329 -519343153 1162967418 -1781997726 -1251558596 -1947929340 330916523 -760061917 -1684919944
REM
CELL 1.54180   50.00000   50.00000   50.00000   90.00000   90.00000   90.00000
LATT -1
SFAC C  
C      1  0.5195990000000  0.4779320000000  0.4493710000000 1.0
C      1  0.5307920000000  0.5340060000000  0.4663350000000 1.0
C      1  0.4994440000000  0.5175110000000  0.4294850000000 1.0
C      1  0.4515590000000  0.5208100000000  0.4399990000000 1.0
C      1  0.4838650000000  0.4702750000000  0.4333210000000 1.0
C      1  0.4529500000000  0.4698380000000  0.4731780000000 1.0
C      1  0.5052890000000  0.4488330000000  0.4918680000000 1.0
C      1  0.5400250000000  0.5163900000000  0.4813490000000 1.0
C      1  0.5000480000000  0.5523120000000  0.4841090000000 1.0
C      1  0.4673840000000  0.5190300000000  0.4879820000000 1.0
C      1  0.4912000000000  0.4850890000000  0.5884720000000 1.0
C      1  0.5139400000000  0.4848410000000  0.5706830000000 1.0
C      1  0.5352960000000  0.5105640000000  0.5735250000000 1.0
C      1  0.5053950000000  0.5256380000000  0.5747570000000 1.0
C      1  0.4853770000000  0.5129540000000  0.5912180000000 1.0
C      1  0.4740140000000  0.5145630000000  0.4570860000000 1.0
C      1  0.4812910000000  0.4829310000000  0.4597110000000 1.0
C      1  0.5080730000000  0.4769340000000  0.4798040000000 1.0
C      1  0.5251950000000  0.4952150000000  0.4988390000000 1.0
C      1  0.5001260000000  0.5355910000000  0.4566750000000 1.0
C      1  0.5458200000000  0.4778440000000  0.5137600000000 1.0
C      1  0.5059490000000  0.5426430000000  0.5064350000000 1.0
C      1  0.4781900000000  0.5140620000000  0.5095970000000 1.0
C      1  0.4713170000000  0.4740140000000  0.4950700000000 1.0
C      1  0.5012660000000  0.4264600000000  0.5034740000000 1.0
C      1  0.5143640000000  0.5091280000000  0.5464170000000 1.0
C      1  0.5086980000000  0.5125170000000  0.5188240000000 1.0
C      1  0.5149850000000  0.4949470000000  0.4286110000000 1.0
END
