TITL C-2622953-3516-604 0.00178804456253941 125000 -244.545481385225 0 0 48 (C1) n - 1
REM
REM in /nfs/bkarasulu/CARBON/AIRSS/Generating-Clusters/AIREBO/with-SteepDescent/Higher-Symm/SD-CG/HFTN-CG
REM
REM
REM
REM
REM
REM ./C.cell (b20cbc046b6831c77cfcea5457e17084)
REM
REM compiler GCC version 9.2.1 20190827 (Red Hat 9.2.1-1)
REM options -cpp -mtune=generic -march=x86-64 -g -O0 -fpre-include=/usr/include/finclude/math-vector-fortran.h
REM seed -180406908 -467268027 1658495747 -794762163 -1116689478 1507348747 -388527648 -376253877 -88096666 -1811484544 1106209266 -16973951 854651454 -51914358 -370897034 546867028 -547481515 -853749720 732855135 -35429947 1872730993 453122867 1462642862 509589882 567297542 124847594 468198297 -1607799251 -1429271224 1367882327 603442431 -586912754 1880121207
REM
CELL 1.54180   50.00000   50.00000   50.00000   90.00000   90.00000   90.00000
LATT -1
SFAC C  
C      1  0.4795690000000  0.4970380000000  0.5720810000000 1.0
C      1  0.5003400000000  0.5798520000000  0.4742430000000 1.0
C      1  0.5792740000000  0.4815140000000  0.5052040000000 1.0
C      1  0.4740520000000  0.5006810000000  0.4201360000000 1.0
C      1  0.5246140000000  0.5006820000000  0.4203770000000 1.0
C      1  0.5189240000000  0.4968860000000  0.5725390000000 1.0
C      1  0.5008610000000  0.4232510000000  0.5274200000000 1.0
C      1  0.5007350000000  0.5701590000000  0.5128480000000 1.0
C      1  0.5007700000000  0.4217430000000  0.4763290000000 1.0
C      1  0.5781890000000  0.5211010000000  0.5061360000000 1.0
C      1  0.4224980000000  0.4764790000000  0.5054660000000 1.0
C      1  0.4243870000000  0.5261350000000  0.5064820000000 1.0
C      1  0.4753730000000  0.5746710000000  0.4939830000000 1.0
C      1  0.4990970000000  0.4712110000000  0.5770960000000 1.0
C      1  0.5753110000000  0.5018540000000  0.4797880000000 1.0
C      1  0.4810130000000  0.4275290000000  0.5016670000000 1.0
C      1  0.5204310000000  0.4281610000000  0.5016130000000 1.0
C      1  0.5256880000000  0.5746260000000  0.4934670000000 1.0
C      1  0.4994040000000  0.5206840000000  0.4256820000000 1.0
C      1  0.4993160000000  0.5224230000000  0.5783340000000 1.0
C      1  0.4992860000000  0.4810840000000  0.4259390000000 1.0
C      1  0.5830540000000  0.5008100000000  0.5309450000000 1.0
C      1  0.4236250000000  0.5018730000000  0.4856430000000 1.0
C      1  0.4158900000000  0.5012120000000  0.5248690000000 1.0
C      1  0.5277140000000  0.4596900000000  0.5008010000000 1.0
C      1  0.4497890000000  0.4999650000000  0.5228660000000 1.0
C      1  0.4990510000000  0.5283270000000  0.4580030000000 1.0
C      1  0.5267550000000  0.5422060000000  0.5015000000000 1.0
C      1  0.4729440000000  0.4588580000000  0.5008990000000 1.0
C      1  0.4747130000000  0.5421530000000  0.5016780000000 1.0
C      1  0.4541220000000  0.5003410000000  0.4698870000000 1.0
C      1  0.5431670000000  0.5009470000000  0.4704070000000 1.0
C      1  0.5496230000000  0.5000770000000  0.5242390000000 1.0
C      1  0.4995110000000  0.4777140000000  0.5433610000000 1.0
C      1  0.4996490000000  0.5175730000000  0.5443180000000 1.0
C      1  0.4991010000000  0.4736550000000  0.4580920000000 1.0
C      1  0.5189470000000  0.5010080000000  0.4542650000000 1.0
C      1  0.4566320000000  0.5203220000000  0.4973950000000 1.0
C      1  0.5002810000000  0.4566710000000  0.5209980000000 1.0
C      1  0.5270220000000  0.4976060000000  0.5414610000000 1.0
C      1  0.4790530000000  0.5011490000000  0.4537950000000 1.0
C      1  0.4721790000000  0.4978030000000  0.5408170000000 1.0
C      1  0.4550850000000  0.4803830000000  0.4966660000000 1.0
C      1  0.5463570000000  0.4807310000000  0.4970660000000 1.0
C      1  0.5452480000000  0.5205690000000  0.4978980000000 1.0
C      1  0.5004080000000  0.5462950000000  0.4808630000000 1.0
C      1  0.5006990000000  0.5384830000000  0.5233050000000 1.0
C      1  0.5002500000000  0.4558150000000  0.4811320000000 1.0
END
