TITL C-2622967-6265-163 0.00135592729857535 125000 -706.033909243324 0 0 136 (C1) n - 1
REM
REM in /nfs/bkarasulu/CARBON/AIRSS/Generating-Clusters/AIREBO/with-SteepDescent/Higher-Symm/SD-CG/HFTN-CG
REM
REM
REM
REM
REM
REM ./C.cell (b20cbc046b6831c77cfcea5457e17084)
REM
REM compiler GCC version 9.2.1 20190827 (Red Hat 9.2.1-1)
REM options -cpp -mtune=generic -march=x86-64 -g -O0 -fpre-include=/usr/include/finclude/math-vector-fortran.h
REM seed 1866811063 954078638 -2083584031 1146161755 1770311693 -1991988029 -785770153 -2041889966 481567150 -317144103 41963314 -1656730402 -190225469 928977049 1720705032 -728738153 1833920036 896635656 -1104897604 2092027629 258427118 681462300 -769479098 1259638938 341048913 -95517281 177083139 118750067 1513766441 599982689 1140580738 506385142 1143196104
REM
CELL 1.54180   50.00000   50.00000   50.00000   90.00000   90.00000   90.00000
LATT -1
SFAC C  
C      1  0.4963010000000  0.5442990000000  0.5694100000000 1.0
C      1  0.5494250000000  0.5723320000000  0.4990900000000 1.0
C      1  0.5679470000000  0.5000570000000  0.5471510000000 1.0
C      1  0.4996500000000  0.4531340000000  0.4281310000000 1.0
C      1  0.4989220000000  0.5478230000000  0.4279090000000 1.0
C      1  0.5008730000000  0.4423050000000  0.5726280000000 1.0
C      1  0.5543840000000  0.4306030000000  0.5041690000000 1.0
C      1  0.4459010000000  0.5710580000000  0.4997330000000 1.0
C      1  0.4487570000000  0.4254890000000  0.4990260000000 1.0
C      1  0.5760320000000  0.5016820000000  0.4459880000000 1.0
C      1  0.4271250000000  0.5046120000000  0.4537230000000 1.0
C      1  0.4250400000000  0.4953480000000  0.5475960000000 1.0
C      1  0.5476790000000  0.5835720000000  0.5316750000000 1.0
C      1  0.5816050000000  0.5316350000000  0.5459160000000 1.0
C      1  0.5278080000000  0.5496170000000  0.5762560000000 1.0
C      1  0.5461250000000  0.4231940000000  0.4712140000000 1.0
C      1  0.4540860000000  0.5842320000000  0.4694020000000 1.0
C      1  0.4497640000000  0.4125820000000  0.5312620000000 1.0
C      1  0.5852480000000  0.4697330000000  0.4534390000000 1.0
C      1  0.4129040000000  0.5354450000000  0.4555370000000 1.0
C      1  0.4128600000000  0.4635510000000  0.5446570000000 1.0
C      1  0.5329460000000  0.4571460000000  0.4225020000000 1.0
C      1  0.4661660000000  0.5454430000000  0.4189060000000 1.0
C      1  0.4667400000000  0.4462640000000  0.5782650000000 1.0
C      1  0.5653240000000  0.5412670000000  0.4593250000000 1.0
C      1  0.5418210000000  0.4624150000000  0.5589070000000 1.0
C      1  0.4610180000000  0.5674920000000  0.5466280000000 1.0
C      1  0.5575720000000  0.4462730000000  0.5341750000000 1.0
C      1  0.4368290000000  0.5494580000000  0.5364690000000 1.0
C      1  0.4371280000000  0.4629170000000  0.4652250000000 1.0
C      1  0.5421240000000  0.5379990000000  0.4384370000000 1.0
C      1  0.4569210000000  0.4623390000000  0.4416000000000 1.0
C      1  0.4518970000000  0.5425170000000  0.5630000000000 1.0
C      1  0.4594260000000  0.4405420000000  0.4636160000000 1.0
C      1  0.5410210000000  0.5613630000000  0.4591390000000 1.0
C      1  0.5335120000000  0.4324850000000  0.5517430000000 1.0
C      1  0.4943320000000  0.3989530000000  0.4598080000000 1.0
C      1  0.3959450000000  0.4589040000000  0.4911450000000 1.0
C      1  0.4578850000000  0.4948660000000  0.4039340000000 1.0
C      1  0.4919820000000  0.6072520000000  0.5265950000000 1.0
C      1  0.5071130000000  0.3980800000000  0.5348540000000 1.0
C      1  0.5104990000000  0.6003370000000  0.4553950000000 1.0
C      1  0.4009550000000  0.5398980000000  0.5074660000000 1.0
C      1  0.6046980000000  0.4602870000000  0.5106410000000 1.0
C      1  0.6011310000000  0.5357360000000  0.4919470000000 1.0
C      1  0.4685690000000  0.4952720000000  0.5906950000000 1.0
C      1  0.5381250000000  0.4918610000000  0.5987420000000 1.0
C      1  0.5375860000000  0.5062580000000  0.3945730000000 1.0
C      1  0.5874260000000  0.4366410000000  0.4988440000000 1.0
C      1  0.4395420000000  0.4909840000000  0.5780540000000 1.0
C      1  0.4980490000000  0.5816200000000  0.4334540000000 1.0
C      1  0.5812330000000  0.5609320000000  0.5032230000000 1.0
C      1  0.4160630000000  0.4345680000000  0.5021710000000 1.0
C      1  0.4171430000000  0.5675730000000  0.5062800000000 1.0
C      1  0.4316510000000  0.4942460000000  0.4254530000000 1.0
C      1  0.5635330000000  0.4972930000000  0.4143950000000 1.0
C      1  0.5597340000000  0.5063670000000  0.5795450000000 1.0
C      1  0.4993990000000  0.4090570000000  0.5656550000000 1.0
C      1  0.5048540000000  0.5965180000000  0.5561780000000 1.0
C      1  0.5028940000000  0.4204890000000  0.4382270000000 1.0
C      1  0.5147520000000  0.4696220000000  0.5874060000000 1.0
C      1  0.4728570000000  0.5902660000000  0.5039090000000 1.0
C      1  0.5928980000000  0.5070740000000  0.4738330000000 1.0
C      1  0.5103940000000  0.5234450000000  0.4071570000000 1.0
C      1  0.4878640000000  0.4788980000000  0.4092700000000 1.0
C      1  0.4893620000000  0.5197400000000  0.5898330000000 1.0
C      1  0.4755690000000  0.4085370000000  0.4867800000000 1.0
C      1  0.5259750000000  0.5915170000000  0.4845960000000 1.0
C      1  0.5257770000000  0.4135280000000  0.5109820000000 1.0
C      1  0.5885100000000  0.4865370000000  0.5249720000000 1.0
C      1  0.4050390000000  0.5101790000000  0.5244430000000 1.0
C      1  0.4079970000000  0.4878350000000  0.4765100000000 1.0
C      1  0.5056980000000  0.4320480000000  0.5338030000000 1.0
C      1  0.4313720000000  0.5267420000000  0.5137880000000 1.0
C      1  0.5275630000000  0.5110290000000  0.4318430000000 1.0
C      1  0.5126230000000  0.5641320000000  0.4714270000000 1.0
C      1  0.4882700000000  0.4357280000000  0.4725530000000 1.0
C      1  0.4862800000000  0.5739250000000  0.5291250000000 1.0
C      1  0.4316860000000  0.4744210000000  0.4940190000000 1.0
C      1  0.5686850000000  0.5264420000000  0.4877900000000 1.0
C      1  0.5659130000000  0.4684540000000  0.5098560000000 1.0
C      1  0.5250010000000  0.4895260000000  0.5618130000000 1.0
C      1  0.4664650000000  0.5172930000000  0.5648750000000 1.0
C      1  0.4700750000000  0.4889710000000  0.4351220000000 1.0
C      1  0.4925540000000  0.5085500000000  0.4616500000000 1.0
C      1  0.5066430000000  0.4636450000000  0.4936940000000 1.0
C      1  0.4647560000000  0.4885420000000  0.5111070000000 1.0
C      1  0.4882090000000  0.4916570000000  0.5432090000000 1.0
C      1  0.5060500000000  0.5133300000000  0.5360430000000 1.0
C      1  0.5141200000000  0.4892230000000  0.4625140000000 1.0
C      1  0.5115640000000  0.5371550000000  0.5119970000000 1.0
C      1  0.4848450000000  0.4615590000000  0.5160700000000 1.0
C      1  0.4874850000000  0.5380390000000  0.4879970000000 1.0
C      1  0.4664710000000  0.5113130000000  0.4917540000000 1.0
C      1  0.5406440000000  0.4848960000000  0.4833140000000 1.0
C      1  0.5380220000000  0.5077310000000  0.5050700000000 1.0
C      1  0.5653320000000  0.5545230000000  0.5309180000000 1.0
C      1  0.5514580000000  0.5331370000000  0.5615700000000 1.0
C      1  0.5236780000000  0.5752350000000  0.5542690000000 1.0
C      1  0.5734210000000  0.4434640000000  0.4715040000000 1.0
C      1  0.4338940000000  0.5589950000000  0.4636990000000 1.0
C      1  0.4305960000000  0.4408390000000  0.5308380000000 1.0
C      1  0.5610410000000  0.4689610000000  0.4295710000000 1.0
C      1  0.4418540000000  0.5399230000000  0.4381050000000 1.0
C      1  0.4419640000000  0.4624330000000  0.5623530000000 1.0
C      1  0.5300790000000  0.4345820000000  0.4458090000000 1.0
C      1  0.4691590000000  0.5704320000000  0.4417720000000 1.0
C      1  0.4711460000000  0.4215560000000  0.5561280000000 1.0
C      1  0.5454900000000  0.5017320000000  0.4548620000000 1.0
C      1  0.4992540000000  0.4629400000000  0.5464660000000 1.0
C      1  0.4573120000000  0.5420120000000  0.5031710000000 1.0
C      1  0.5381230000000  0.5020760000000  0.5350410000000 1.0
C      1  0.4561390000000  0.4973490000000  0.5411790000000 1.0
C      1  0.4587170000000  0.5053240000000  0.4607840000000 1.0
C      1  0.5026690000000  0.5374510000000  0.4575620000000 1.0
C      1  0.5030870000000  0.4604120000000  0.4599890000000 1.0
C      1  0.4928090000000  0.5444800000000  0.5394020000000 1.0
C      1  0.4555110000000  0.4565640000000  0.5001450000000 1.0
C      1  0.5417600000000  0.5408370000000  0.4982820000000 1.0
C      1  0.5353580000000  0.4588210000000  0.5023360000000 1.0
C      1  0.5212060000000  0.5163820000000  0.5823490000000 1.0
C      1  0.5184220000000  0.5901920000000  0.5163420000000 1.0
C      1  0.5872450000000  0.5171450000000  0.5168060000000 1.0
C      1  0.5185450000000  0.4847370000000  0.4127560000000 1.0
C      1  0.4793320000000  0.5176150000000  0.4115780000000 1.0
C      1  0.4825900000000  0.4694050000000  0.5944900000000 1.0
C      1  0.5144320000000  0.4158730000000  0.4813950000000 1.0
C      1  0.4873880000000  0.5862730000000  0.4759890000000 1.0
C      1  0.4807900000000  0.4121360000000  0.5185500000000 1.0
C      1  0.5885700000000  0.4774560000000  0.4861210000000 1.0
C      1  0.4089770000000  0.5194860000000  0.4837200000000 1.0
C      1  0.4072710000000  0.4795910000000  0.5156430000000 1.0
C      1  0.5469970000000  0.4612850000000  0.4596620000000 1.0
C      1  0.4625690000000  0.4493410000000  0.5386870000000 1.0
C      1  0.4644080000000  0.5459350000000  0.4642950000000 1.0
C      1  0.5324630000000  0.5474120000000  0.5368020000000 1.0
END
