TITL C-2622959-7779-669 -0.000219982139886539 125000 -675.291000959926 0 0 122 (C1) n - 1
REM
REM in /nfs/bkarasulu/CARBON/AIRSS/Generating-Clusters/AIREBO/with-SteepDescent/Higher-Symm/SD-CG/HFTN-CG
REM
REM
REM
REM
REM
REM ./C.cell (b20cbc046b6831c77cfcea5457e17084)
REM
REM compiler GCC version 9.2.1 20190827 (Red Hat 9.2.1-1)
REM options -cpp -mtune=generic -march=x86-64 -g -O0 -fpre-include=/usr/include/finclude/math-vector-fortran.h
REM seed 1470702451 768771403 -335811153 -343191866 1386101703 755302512 968775705 496628038 -673809797 -1764309933 1668433365 392585758 1534658483 -644281436 777584155 2070666215 419983880 -2115888932 -572188911 -1782238959 -387437997 1512725817 312035032 2053551833 1252064789 1963143031 1521270858 -2027179298 -256400080 1019020257 321606319 -468019244 -1805647098
REM
CELL 1.54180   50.00000   50.00000   50.00000   90.00000   90.00000   90.00000
LATT -1
SFAC C  
C      1  0.5553010000000  0.5621930000000  0.5172370000000 1.0
C      1  0.5397010000000  0.4410430000000  0.5452840000000 1.0
C      1  0.5038730000000  0.5470790000000  0.5678130000000 1.0
C      1  0.4659640000000  0.4515740000000  0.5554970000000 1.0
C      1  0.4404130000000  0.5496750000000  0.5300320000000 1.0
C      1  0.4383100000000  0.4521830000000  0.4891920000000 1.0
C      1  0.4585910000000  0.5497390000000  0.4536630000000 1.0
C      1  0.4938590000000  0.4517480000000  0.4397460000000 1.0
C      1  0.5286660000000  0.5517330000000  0.4442990000000 1.0
C      1  0.5561420000000  0.4460290000000  0.4718410000000 1.0
C      1  0.4811070000000  0.5236690000000  0.5138800000000 1.0
C      1  0.4803040000000  0.4808420000000  0.5019420000000 1.0
C      1  0.4875290000000  0.5230020000000  0.4859470000000 1.0
C      1  0.5006160000000  0.4782640000000  0.4802400000000 1.0
C      1  0.5166920000000  0.5270460000000  0.4759760000000 1.0
C      1  0.5317290000000  0.4743510000000  0.4858440000000 1.0
C      1  0.5288910000000  0.5268410000000  0.5075410000000 1.0
C      1  0.5244290000000  0.4691420000000  0.5138970000000 1.0
C      1  0.5041630000000  0.5253730000000  0.5261860000000 1.0
C      1  0.4995570000000  0.4739940000000  0.5199530000000 1.0
C      1  0.5336420000000  0.5634080000000  0.5697170000000 1.0
C      1  0.4891760000000  0.4342990000000  0.5733580000000 1.0
C      1  0.4472430000000  0.5617150000000  0.5610930000000 1.0
C      1  0.4257690000000  0.4397620000000  0.5182510000000 1.0
C      1  0.4318570000000  0.5641520000000  0.4689690000000 1.0
C      1  0.4627930000000  0.4380200000000  0.4381340000000 1.0
C      1  0.5079070000000  0.5617730000000  0.4199600000000 1.0
C      1  0.5532450000000  0.4359440000000  0.4394920000000 1.0
C      1  0.5665560000000  0.5643790000000  0.4851660000000 1.0
C      1  0.5710250000000  0.4339910000000  0.5340390000000 1.0
C      1  0.4509350000000  0.5099200000000  0.4918090000000 1.0
C      1  0.4667130000000  0.4933150000000  0.4665130000000 1.0
C      1  0.4940490000000  0.5059850000000  0.4506150000000 1.0
C      1  0.5240620000000  0.4928830000000  0.4516750000000 1.0
C      1  0.5426390000000  0.5096040000000  0.4733300000000 1.0
C      1  0.5516030000000  0.4954780000000  0.5017910000000 1.0
C      1  0.5361210000000  0.5033230000000  0.5310440000000 1.0
C      1  0.5101340000000  0.4952530000000  0.5514890000000 1.0
C      1  0.4770420000000  0.5021770000000  0.5470260000000 1.0
C      1  0.4523930000000  0.4982180000000  0.5238600000000 1.0
C      1  0.4788090000000  0.4934500000000  0.4241350000000 1.0
C      1  0.5276360000000  0.5058970000000  0.4221230000000 1.0
C      1  0.5663810000000  0.4960480000000  0.4544610000000 1.0
C      1  0.5806620000000  0.5061160000000  0.5039760000000 1.0
C      1  0.5612240000000  0.4943500000000  0.5501140000000 1.0
C      1  0.5203790000000  0.5040990000000  0.5800850000000 1.0
C      1  0.4702740000000  0.4913410000000  0.5765680000000 1.0
C      1  0.4309850000000  0.5095200000000  0.5459950000000 1.0
C      1  0.4208210000000  0.4960440000000  0.4982950000000 1.0
C      1  0.4389390000000  0.5063920000000  0.4527680000000 1.0
C      1  0.5094380000000  0.5830160000000  0.5560410000000 1.0
C      1  0.4792460000000  0.4153840000000  0.5480480000000 1.0
C      1  0.4577450000000  0.5831040000000  0.5393630000000 1.0
C      1  0.4459560000000  0.4185890000000  0.5081120000000 1.0
C      1  0.4554540000000  0.5859260000000  0.4674360000000 1.0
C      1  0.4836140000000  0.4153380000000  0.4476090000000 1.0
C      1  0.5238100000000  0.5877480000000  0.4278790000000 1.0
C      1  0.5465270000000  0.4105490000000  0.4575960000000 1.0
C      1  0.5588030000000  0.5886460000000  0.4710810000000 1.0
C      1  0.5508740000000  0.4084320000000  0.5254810000000 1.0
C      1  0.4162540000000  0.5435850000000  0.5130310000000 1.0
C      1  0.4261710000000  0.4596490000000  0.4635820000000 1.0
C      1  0.4630020000000  0.5409760000000  0.4251080000000 1.0
C      1  0.5139670000000  0.4575540000000  0.4168720000000 1.0
C      1  0.5574210000000  0.5431280000000  0.4415220000000 1.0
C      1  0.5798670000000  0.4568510000000  0.4876660000000 1.0
C      1  0.5700010000000  0.5451120000000  0.5404950000000 1.0
C      1  0.5354920000000  0.4542910000000  0.5728490000000 1.0
C      1  0.4835000000000  0.5381220000000  0.5873660000000 1.0
C      1  0.4379510000000  0.4593020000000  0.5599230000000 1.0
C      1  0.4597800000000  0.5424480000000  0.4868800000000 1.0
C      1  0.4767300000000  0.4607880000000  0.4677310000000 1.0
C      1  0.4976970000000  0.5397990000000  0.4516930000000 1.0
C      1  0.5279640000000  0.4597680000000  0.4586660000000 1.0
C      1  0.5286590000000  0.5589520000000  0.4963580000000 1.0
C      1  0.5415300000000  0.4457950000000  0.5116560000000 1.0
C      1  0.5259950000000  0.5316730000000  0.5470930000000 1.0
C      1  0.4957870000000  0.4645130000000  0.5484160000000 1.0
C      1  0.4687120000000  0.5346820000000  0.5414610000000 1.0
C      1  0.4555300000000  0.4661910000000  0.5149500000000 1.0
C      1  0.4469300000000  0.5174870000000  0.4218040000000 1.0
C      1  0.5026390000000  0.4806630000000  0.4036140000000 1.0
C      1  0.5582370000000  0.5200980000000  0.4237770000000 1.0
C      1  0.5890090000000  0.4808290000000  0.4744330000000 1.0
C      1  0.5844220000000  0.5216910000000  0.5327570000000 1.0
C      1  0.5506900000000  0.4783470000000  0.5771020000000 1.0
C      1  0.4941120000000  0.5140270000000  0.5992070000000 1.0
C      1  0.4383280000000  0.4806690000000  0.5791900000000 1.0
C      1  0.4052940000000  0.5199220000000  0.5263340000000 1.0
C      1  0.4104960000000  0.4832560000000  0.4686200000000 1.0
C      1  0.4563290000000  0.5410530000000  0.5788840000000 1.0
C      1  0.4212570000000  0.4592250000000  0.5374150000000 1.0
C      1  0.4178290000000  0.5449350000000  0.4844850000000 1.0
C      1  0.4427160000000  0.4572310000000  0.4407570000000 1.0
C      1  0.4890470000000  0.5423110000000  0.4127880000000 1.0
C      1  0.5429740000000  0.4565570000000  0.4219620000000 1.0
C      1  0.5717270000000  0.5427290000000  0.4670640000000 1.0
C      1  0.5810870000000  0.4563740000000  0.5170320000000 1.0
C      1  0.5572260000000  0.5453460000000  0.5669790000000 1.0
C      1  0.5087890000000  0.4526380000000  0.5841900000000 1.0
C      1  0.4846910000000  0.5682450000000  0.4651630000000 1.0
C      1  0.5079720000000  0.4328200000000  0.4642180000000 1.0
C      1  0.5170360000000  0.5684260000000  0.4715560000000 1.0
C      1  0.5333160000000  0.4251190000000  0.4859320000000 1.0
C      1  0.5229740000000  0.5600170000000  0.5285460000000 1.0
C      1  0.5084350000000  0.4374320000000  0.5321580000000 1.0
C      1  0.4905150000000  0.5606590000000  0.5387050000000 1.0
C      1  0.4750830000000  0.4401480000000  0.5247900000000 1.0
C      1  0.4671670000000  0.5627610000000  0.5136190000000 1.0
C      1  0.4688570000000  0.4373870000000  0.4912700000000 1.0
C      1  0.5507000000000  0.5132860000000  0.5763190000000 1.0
C      1  0.4974520000000  0.4811510000000  0.5898830000000 1.0
C      1  0.4446320000000  0.5135030000000  0.5734290000000 1.0
C      1  0.4142990000000  0.4868790000000  0.5274920000000 1.0
C      1  0.4168820000000  0.5168150000000  0.4721810000000 1.0
C      1  0.4497440000000  0.4844480000000  0.4299550000000 1.0
C      1  0.5005190000000  0.5143350000000  0.4093010000000 1.0
C      1  0.5545460000000  0.4858330000000  0.4268190000000 1.0
C      1  0.5863580000000  0.5153390000000  0.4740780000000 1.0
C      1  0.5852940000000  0.4866110000000  0.5307060000000 1.0
C      1  0.5224790000000  0.4114860000000  0.5151640000000 1.0
C      1  0.5343300000000  0.5896220000000  0.4550610000000 1.0
END
