TITL C-2622959-7779-60 0.00390033519481727 125000 -118.00997596417 0 0 24 (C1) n - 1
REM
REM in /nfs/bkarasulu/CARBON/AIRSS/Generating-Clusters/AIREBO/with-SteepDescent/Higher-Symm/SD-CG/HFTN-CG
REM
REM
REM
REM
REM
REM ./C.cell (b20cbc046b6831c77cfcea5457e17084)
REM
REM compiler GCC version 9.2.1 20190827 (Red Hat 9.2.1-1)
REM options -cpp -mtune=generic -march=x86-64 -g -O0 -fpre-include=/usr/include/finclude/math-vector-fortran.h
REM seed 1564530788 375385344 -1085186825 -1034202604 -261165226 84006846 1668173689 -47340586 -484050280 -661209759 -28906478 1496913343 -805985455 -1897382047 41985024 -958630515 -1652957879 1623982292 1411648827 1177367932 -110123184 1801479925 -26110418 86125201 894043090 -1863894093 758627479 2119465159 2074226813 -854324037 1496091758 679710840 2144155476
REM
CELL 1.54180   50.00000   50.00000   50.00000   90.00000   90.00000   90.00000
LATT -1
SFAC C  
C      1  0.5291130000000  0.5348790000000  0.5252720000000 1.0
C      1  0.4578380000000  0.5155270000000  0.5319850000000 1.0
C      1  0.5191710000000  0.4513230000000  0.5200190000000 1.0
C      1  0.4891840000000  0.4382950000000  0.4499890000000 1.0
C      1  0.5710780000000  0.5270600000000  0.4618620000000 1.0
C      1  0.4358240000000  0.5245590000000  0.4575470000000 1.0
C      1  0.5280270000000  0.4960250000000  0.5466450000000 1.0
C      1  0.4901430000000  0.5521960000000  0.5232720000000 1.0
C      1  0.4768270000000  0.4710260000000  0.5377890000000 1.0
C      1  0.4355830000000  0.5224870000000  0.4897030000000 1.0
C      1  0.5037980000000  0.4339160000000  0.4784030000000 1.0
C      1  0.5622000000000  0.5355410000000  0.4916440000000 1.0
C      1  0.5439660000000  0.5149100000000  0.4761430000000 1.0
C      1  0.4635040000000  0.5202430000000  0.4741250000000 1.0
C      1  0.4906850000000  0.4622930000000  0.4720740000000 1.0
C      1  0.5220970000000  0.5056390000000  0.4877970000000 1.0
C      1  0.4860810000000  0.5126980000000  0.4900500000000 1.0
C      1  0.4924880000000  0.4827070000000  0.4905300000000 1.0
C      1  0.5529430000000  0.5446370000000  0.5159850000000 1.0
C      1  0.4348820000000  0.5180530000000  0.5169970000000 1.0
C      1  0.5185860000000  0.4310240000000  0.5015460000000 1.0
C      1  0.5127400000000  0.5054590000000  0.5204890000000 1.0
C      1  0.4848380000000  0.5248780000000  0.5197250000000 1.0
C      1  0.4984020000000  0.4746240000000  0.5204100000000 1.0
END
