TITL C-2622963-3633-156 -0.000426783396076137 125000 -584.078168170767 0 0 108 (C1) n - 1
REM
REM in /nfs/bkarasulu/CARBON/AIRSS/Generating-Clusters/AIREBO/with-SteepDescent/Higher-Symm/SD-CG/HFTN-CG
REM
REM
REM
REM
REM
REM ./C.cell (b20cbc046b6831c77cfcea5457e17084)
REM
REM compiler GCC version 9.2.1 20190827 (Red Hat 9.2.1-1)
REM options -cpp -mtune=generic -march=x86-64 -g -O0 -fpre-include=/usr/include/finclude/math-vector-fortran.h
REM seed -826412636 -1143529187 -1226272815 344463323 1289171132 -1023313196 -1348581402 -751160139 1066590507 537093889 1794435315 -1523708800 399237067 858700527 1953479126 -220282438 854837383 -1750517319 -844357893 1854439030 1273767847 1802251148 -24249203 1142406873 1098957461 1711862400 679445966 -1200676531 898738555 -526419671 1510900671 -1516264544 -418717548
REM
CELL 1.54180   50.00000   50.00000   50.00000   90.00000   90.00000   90.00000
LATT -1
SFAC C  
C      1  0.5149590000000  0.4754210000000  0.4198300000000 1.0
C      1  0.4854580000000  0.5272310000000  0.4244840000000 1.0
C      1  0.4835710000000  0.4298320000000  0.5378270000000 1.0
C      1  0.5135870000000  0.5727820000000  0.5339840000000 1.0
C      1  0.5140700000000  0.5177410000000  0.4651430000000 1.0
C      1  0.4935580000000  0.4835580000000  0.4716870000000 1.0
C      1  0.4815720000000  0.5596950000000  0.5142420000000 1.0
C      1  0.5192250000000  0.4412920000000  0.5159650000000 1.0
C      1  0.4434920000000  0.5590250000000  0.5263470000000 1.0
C      1  0.5582460000000  0.4337840000000  0.5196400000000 1.0
C      1  0.4095080000000  0.4875470000000  0.5200160000000 1.0
C      1  0.5863740000000  0.5306980000000  0.5262710000000 1.0
C      1  0.4270560000000  0.4336170000000  0.5045570000000 1.0
C      1  0.5988320000000  0.5395170000000  0.4785360000000 1.0
C      1  0.4653950000000  0.5394830000000  0.4571400000000 1.0
C      1  0.5432870000000  0.4509690000000  0.4566580000000 1.0
C      1  0.5585070000000  0.4947210000000  0.4343260000000 1.0
C      1  0.4352810000000  0.5121580000000  0.4279330000000 1.0
C      1  0.5441580000000  0.4639780000000  0.5205630000000 1.0
C      1  0.4628380000000  0.5338290000000  0.5193280000000 1.0
C      1  0.4538140000000  0.5363590000000  0.4274860000000 1.0
C      1  0.5451350000000  0.4669750000000  0.4315800000000 1.0
C      1  0.4880750000000  0.4782800000000  0.4404840000000 1.0
C      1  0.5170900000000  0.5244940000000  0.4357080000000 1.0
C      1  0.5500090000000  0.4927030000000  0.5158760000000 1.0
C      1  0.4434030000000  0.5079180000000  0.5253930000000 1.0
C      1  0.5561070000000  0.4579860000000  0.5511920000000 1.0
C      1  0.4478380000000  0.5473750000000  0.5642290000000 1.0
C      1  0.5683890000000  0.5107140000000  0.4546160000000 1.0
C      1  0.4427700000000  0.4953300000000  0.4558420000000 1.0
C      1  0.4406100000000  0.5435710000000  0.4774780000000 1.0
C      1  0.5672380000000  0.4401130000000  0.4739840000000 1.0
C      1  0.5712480000000  0.5064090000000  0.5386780000000 1.0
C      1  0.4168080000000  0.5043510000000  0.5457430000000 1.0
C      1  0.5089860000000  0.4605810000000  0.5384320000000 1.0
C      1  0.4952970000000  0.5443680000000  0.5400560000000 1.0
C      1  0.4972820000000  0.5580530000000  0.4891200000000 1.0
C      1  0.5032560000000  0.4493210000000  0.4899000000000 1.0
C      1  0.4680500000000  0.4997510000000  0.4334680000000 1.0
C      1  0.5318950000000  0.5026360000000  0.4217820000000 1.0
C      1  0.5894400000000  0.4558410000000  0.4822690000000 1.0
C      1  0.4105540000000  0.5331640000000  0.4834760000000 1.0
C      1  0.5005310000000  0.4551040000000  0.5704160000000 1.0
C      1  0.4950160000000  0.5379500000000  0.5703510000000 1.0
C      1  0.4750320000000  0.4844600000000  0.5225290000000 1.0
C      1  0.5107980000000  0.5110110000000  0.5050450000000 1.0
C      1  0.5201820000000  0.5219040000000  0.5772640000000 1.0
C      1  0.4719530000000  0.4578760000000  0.5521840000000 1.0
C      1  0.6146360000000  0.4505540000000  0.4743190000000 1.0
C      1  0.3875290000000  0.5309420000000  0.4720240000000 1.0
C      1  0.5639960000000  0.5012040000000  0.4860740000000 1.0
C      1  0.4462620000000  0.5110760000000  0.4857940000000 1.0
C      1  0.5162720000000  0.5870540000000  0.5086190000000 1.0
C      1  0.4828330000000  0.4188620000000  0.5103660000000 1.0
C      1  0.4679370000000  0.5329970000000  0.5783910000000 1.0
C      1  0.5330680000000  0.4654400000000  0.5728210000000 1.0
C      1  0.5150850000000  0.4913640000000  0.5632100000000 1.0
C      1  0.4758040000000  0.4902160000000  0.5621450000000 1.0
C      1  0.4247670000000  0.4591710000000  0.5215580000000 1.0
C      1  0.5584170000000  0.5443910000000  0.5261850000000 1.0
C      1  0.4562540000000  0.5756970000000  0.5528070000000 1.0
C      1  0.5429380000000  0.4276310000000  0.5495760000000 1.0
C      1  0.5803790000000  0.4742610000000  0.5334360000000 1.0
C      1  0.4236570000000  0.5369680000000  0.5442030000000 1.0
C      1  0.4306130000000  0.4839960000000  0.5680490000000 1.0
C      1  0.5452260000000  0.5141580000000  0.5563180000000 1.0
C      1  0.4331590000000  0.4656170000000  0.4547520000000 1.0
C      1  0.5692980000000  0.5379650000000  0.4516750000000 1.0
C      1  0.4829710000000  0.5155680000000  0.4670190000000 1.0
C      1  0.5234850000000  0.4675120000000  0.4734190000000 1.0
C      1  0.5273320000000  0.4097260000000  0.5257410000000 1.0
C      1  0.4691340000000  0.5896090000000  0.5245780000000 1.0
C      1  0.4678950000000  0.4273620000000  0.4860530000000 1.0
C      1  0.5320830000000  0.5769920000000  0.4847360000000 1.0
C      1  0.5507410000000  0.5495210000000  0.4875920000000 1.0
C      1  0.4488590000000  0.4552620000000  0.4899800000000 1.0
C      1  0.5330560000000  0.4936810000000  0.5919800000000 1.0
C      1  0.4639930000000  0.5049880000000  0.5820050000000 1.0
C      1  0.4669080000000  0.5835200000000  0.4851180000000 1.0
C      1  0.5301850000000  0.4131340000000  0.4855720000000 1.0
C      1  0.5068630000000  0.4055740000000  0.5029300000000 1.0
C      1  0.4897440000000  0.5963540000000  0.5006280000000 1.0
C      1  0.4243710000000  0.5299780000000  0.5107600000000 1.0
C      1  0.5834400000000  0.4772180000000  0.5003320000000 1.0
C      1  0.5101210000000  0.5712280000000  0.4605180000000 1.0
C      1  0.4917170000000  0.4323480000000  0.4627830000000 1.0
C      1  0.5369610000000  0.5211520000000  0.5242750000000 1.0
C      1  0.4465110000000  0.4763400000000  0.5391820000000 1.0
C      1  0.4893580000000  0.5824010000000  0.5509060000000 1.0
C      1  0.5091220000000  0.4223000000000  0.5499500000000 1.0
C      1  0.4952190000000  0.4500330000000  0.4134420000000 1.0
C      1  0.5033880000000  0.5534000000000  0.4124820000000 1.0
C      1  0.5134160000000  0.4898520000000  0.5315370000000 1.0
C      1  0.4891270000000  0.5108830000000  0.5386480000000 1.0
C      1  0.5563720000000  0.4225040000000  0.4940890000000 1.0
C      1  0.4463050000000  0.5677420000000  0.4960710000000 1.0
C      1  0.5754710000000  0.5320320000000  0.4947320000000 1.0
C      1  0.4310080000000  0.4829170000000  0.4940850000000 1.0
C      1  0.5307730000000  0.4959060000000  0.4810910000000 1.0
C      1  0.4771490000000  0.5097840000000  0.5000140000000 1.0
C      1  0.4782000000000  0.4472540000000  0.4386830000000 1.0
C      1  0.5238630000000  0.5566980000000  0.4361290000000 1.0
C      1  0.5484050000000  0.5610380000000  0.4559790000000 1.0
C      1  0.4537720000000  0.4435780000000  0.4584170000000 1.0
C      1  0.5205430000000  0.5388750000000  0.4881720000000 1.0
C      1  0.4780770000000  0.4687390000000  0.4962900000000 1.0
C      1  0.4778560000000  0.5687470000000  0.4601260000000 1.0
C      1  0.5222980000000  0.4272090000000  0.4625740000000 1.0
END
