TITL C-2622955-8511-757 0.0043404861791737 125000 -685.406816120411 0 0 132 (C1) n - 1
REM
REM in /nfs/bkarasulu/CARBON/AIRSS/Generating-Clusters/AIREBO/with-SteepDescent/Higher-Symm/SD-CG/HFTN-CG
REM
REM
REM
REM
REM
REM ./C.cell (b20cbc046b6831c77cfcea5457e17084)
REM
REM compiler GCC version 9.2.1 20190827 (Red Hat 9.2.1-1)
REM options -cpp -mtune=generic -march=x86-64 -g -O0 -fpre-include=/usr/include/finclude/math-vector-fortran.h
REM seed 812328215 -1330006101 -1336286697 571069110 1335792632 909359688 -986966295 216889072 -1824339068 1345967937 -1044725757 -129860484 -76737856 -872187498 -1494254761 -439659527 2092749693 63773872 -1870775892 935854166 1531045904 -68705788 -1329741128 -47574487 -2138513466 -1518219095 81165966 184316354 -236238255 -16463484 -1621753218 213460219 1936094786
REM
CELL 1.54180   50.00000   50.00000   50.00000   90.00000   90.00000   90.00000
LATT -1
SFAC C  
C      1  0.5241040000000  0.4791010000000  0.5929680000000 1.0
C      1  0.4204750000000  0.4869500000000  0.5509280000000 1.0
C      1  0.4336420000000  0.4873010000000  0.4391520000000 1.0
C      1  0.5382790000000  0.4826040000000  0.4127090000000 1.0
C      1  0.5918790000000  0.4847370000000  0.5077450000000 1.0
C      1  0.5265670000000  0.5136330000000  0.5956820000000 1.0
C      1  0.4228340000000  0.5214640000000  0.5498330000000 1.0
C      1  0.4348430000000  0.5212890000000  0.4385890000000 1.0
C      1  0.5351940000000  0.5177310000000  0.4136590000000 1.0
C      1  0.5906370000000  0.5191700000000  0.5081750000000 1.0
C      1  0.4637160000000  0.4560390000000  0.4908080000000 1.0
C      1  0.4976890000000  0.4463250000000  0.4673970000000 1.0
C      1  0.5327980000000  0.4454750000000  0.4858320000000 1.0
C      1  0.5228040000000  0.4660750000000  0.5297020000000 1.0
C      1  0.4841230000000  0.4549850000000  0.5251010000000 1.0
C      1  0.4655050000000  0.5388540000000  0.4907910000000 1.0
C      1  0.4972070000000  0.5437390000000  0.4620030000000 1.0
C      1  0.5232470000000  0.5580900000000  0.4887390000000 1.0
C      1  0.5241640000000  0.5309790000000  0.5328090000000 1.0
C      1  0.4887070000000  0.5483610000000  0.5266600000000 1.0
C      1  0.5308340000000  0.5161920000000  0.6253860000000 1.0
C      1  0.3993900000000  0.5343560000000  0.5616580000000 1.0
C      1  0.4203490000000  0.5286580000000  0.4136970000000 1.0
C      1  0.5568300000000  0.5290310000000  0.3966680000000 1.0
C      1  0.6183160000000  0.5284140000000  0.5037800000000 1.0
C      1  0.5254850000000  0.4712800000000  0.6217920000000 1.0
C      1  0.3965840000000  0.4823670000000  0.5682100000000 1.0
C      1  0.4122720000000  0.4806680000000  0.4191260000000 1.0
C      1  0.5539780000000  0.4767750000000  0.3880940000000 1.0
C      1  0.6188970000000  0.4752790000000  0.5140890000000 1.0
C      1  0.5719400000000  0.4221370000000  0.4733610000000 1.0
C      1  0.5351040000000  0.4174960000000  0.5457830000000 1.0
C      1  0.4627140000000  0.4246370000000  0.5516780000000 1.0
C      1  0.4360100000000  0.4276740000000  0.4862390000000 1.0
C      1  0.4953420000000  0.4205530000000  0.4291480000000 1.0
C      1  0.5490640000000  0.5866020000000  0.4790630000000 1.0
C      1  0.5360450000000  0.5809310000000  0.5569710000000 1.0
C      1  0.4682760000000  0.5760810000000  0.5596220000000 1.0
C      1  0.4452850000000  0.5856160000000  0.4770950000000 1.0
C      1  0.4897310000000  0.5726370000000  0.4205360000000 1.0
C      1  0.5515950000000  0.5468990000000  0.5288920000000 1.0
C      1  0.5046970000000  0.5421670000000  0.5553730000000 1.0
C      1  0.4491850000000  0.5535730000000  0.5113300000000 1.0
C      1  0.4667790000000  0.5419120000000  0.4510020000000 1.0
C      1  0.5348790000000  0.5563480000000  0.4573960000000 1.0
C      1  0.5488200000000  0.4557310000000  0.5217670000000 1.0
C      1  0.5007730000000  0.4577830000000  0.5533380000000 1.0
C      1  0.4453670000000  0.4517630000000  0.5166350000000 1.0
C      1  0.4672270000000  0.4492920000000  0.4579410000000 1.0
C      1  0.5384300000000  0.4514100000000  0.4537730000000 1.0
C      1  0.5269920000000  0.5183350000000  0.5620090000000 1.0
C      1  0.4488050000000  0.5333490000000  0.5313860000000 1.0
C      1  0.4488850000000  0.5210040000000  0.4695590000000 1.0
C      1  0.5208850000000  0.5340280000000  0.4398610000000 1.0
C      1  0.5573690000000  0.5208200000000  0.5138440000000 1.0
C      1  0.5248430000000  0.4788060000000  0.5589750000000 1.0
C      1  0.4475440000000  0.4800030000000  0.5315540000000 1.0
C      1  0.4595330000000  0.4806200000000  0.4601680000000 1.0
C      1  0.5236390000000  0.4684090000000  0.4399210000000 1.0
C      1  0.5602920000000  0.4727860000000  0.5038140000000 1.0
C      1  0.4530310000000  0.4863530000000  0.4991210000000 1.0
C      1  0.4934170000000  0.4802020000000  0.4630060000000 1.0
C      1  0.5229760000000  0.4774280000000  0.4796240000000 1.0
C      1  0.5138180000000  0.4863110000000  0.5085750000000 1.0
C      1  0.4895930000000  0.4881980000000  0.5299840000000 1.0
C      1  0.4742270000000  0.5070870000000  0.4971320000000 1.0
C      1  0.4967610000000  0.5120640000000  0.4743930000000 1.0
C      1  0.5268180000000  0.5256690000000  0.4817180000000 1.0
C      1  0.5264370000000  0.5124300000000  0.5089800000000 1.0
C      1  0.4762630000000  0.5180310000000  0.5280180000000 1.0
C      1  0.4985180000000  0.5765910000000  0.4532700000000 1.0
C      1  0.5310010000000  0.5837600000000  0.5068310000000 1.0
C      1  0.5111310000000  0.5866960000000  0.5343440000000 1.0
C      1  0.4761790000000  0.5788240000000  0.5266050000000 1.0
C      1  0.4663910000000  0.5880450000000  0.4585040000000 1.0
C      1  0.5139320000000  0.4203210000000  0.4542130000000 1.0
C      1  0.5523420000000  0.4255850000000  0.4957620000000 1.0
C      1  0.5067530000000  0.4131490000000  0.5381770000000 1.0
C      1  0.4769060000000  0.4220250000000  0.5208620000000 1.0
C      1  0.4696340000000  0.4227180000000  0.4875100000000 1.0
C      1  0.4242200000000  0.4897610000000  0.4889910000000 1.0
C      1  0.4950100000000  0.4832750000000  0.4291680000000 1.0
C      1  0.5556280000000  0.4827470000000  0.4716300000000 1.0
C      1  0.5573800000000  0.4817570000000  0.5621210000000 1.0
C      1  0.4698100000000  0.4827690000000  0.5571090000000 1.0
C      1  0.4196320000000  0.5229510000000  0.4867830000000 1.0
C      1  0.4966210000000  0.5161410000000  0.4240450000000 1.0
C      1  0.5532710000000  0.5166460000000  0.4703650000000 1.0
C      1  0.5607800000000  0.5154980000000  0.5645990000000 1.0
C      1  0.4668850000000  0.5113040000000  0.5753680000000 1.0
C      1  0.5775460000000  0.4910870000000  0.5379250000000 1.0
C      1  0.4913480000000  0.4809890000000  0.5840210000000 1.0
C      1  0.4089430000000  0.4844170000000  0.5190340000000 1.0
C      1  0.4622500000000  0.4796350000000  0.4205980000000 1.0
C      1  0.5613820000000  0.4802860000000  0.4375780000000 1.0
C      1  0.5855410000000  0.5208320000000  0.5417660000000 1.0
C      1  0.4928060000000  0.5127540000000  0.5917050000000 1.0
C      1  0.4141600000000  0.5152040000000  0.5175570000000 1.0
C      1  0.4649880000000  0.5095510000000  0.4281070000000 1.0
C      1  0.5512930000000  0.5081040000000  0.4411070000000 1.0
C      1  0.5474310000000  0.4556520000000  0.5815130000000 1.0
C      1  0.4422800000000  0.4663160000000  0.5684180000000 1.0
C      1  0.4194170000000  0.4718320000000  0.4658890000000 1.0
C      1  0.5087210000000  0.4650740000000  0.4039270000000 1.0
C      1  0.5875220000000  0.4715990000000  0.4755580000000 1.0
C      1  0.5495820000000  0.5387220000000  0.5867790000000 1.0
C      1  0.4473390000000  0.5296630000000  0.5714200000000 1.0
C      1  0.4179370000000  0.5432110000000  0.4604830000000 1.0
C      1  0.5083260000000  0.5332020000000  0.3996860000000 1.0
C      1  0.5758070000000  0.5340330000000  0.4814080000000 1.0
C      1  0.5276290000000  0.5895460000000  0.4561870000000 1.0
C      1  0.5485170000000  0.5737020000000  0.5309120000000 1.0
C      1  0.4975420000000  0.5715960000000  0.5591340000000 1.0
C      1  0.4517220000000  0.5822020000000  0.5048660000000 1.0
C      1  0.4640660000000  0.5667280000000  0.4362200000000 1.0
C      1  0.5452810000000  0.4210910000000  0.4567060000000 1.0
C      1  0.5515820000000  0.4266600000000  0.5246160000000 1.0
C      1  0.4910560000000  0.4289820000000  0.5574200000000 1.0
C      1  0.4431290000000  0.4205580000000  0.5171510000000 1.0
C      1  0.4747430000000  0.4165850000000  0.4542970000000 1.0
C      1  0.4522790000000  0.5574940000000  0.5729890000000 1.0
C      1  0.4227200000000  0.5699290000000  0.4664260000000 1.0
C      1  0.5007370000000  0.5590480000000  0.3990090000000 1.0
C      1  0.5652970000000  0.5600690000000  0.4732030000000 1.0
C      1  0.5457240000000  0.5649970000000  0.5791080000000 1.0
C      1  0.4446510000000  0.4390980000000  0.5679540000000 1.0
C      1  0.4185850000000  0.4450640000000  0.4723950000000 1.0
C      1  0.5013200000000  0.4382010000000  0.4069720000000 1.0
C      1  0.5901000000000  0.4445460000000  0.4697220000000 1.0
C      1  0.5435570000000  0.4302130000000  0.5712990000000 1.0
C      1  0.4957230000000  0.5463410000000  0.4958810000000 1.0
C      1  0.5014710000000  0.4448470000000  0.4990840000000 1.0
END
