TITL C-2622966-9038-660 -0.000302459987048657 125000 -319.680441793674 0 0 62 (C1) n - 1
REM
REM in /nfs/bkarasulu/CARBON/AIRSS/Generating-Clusters/AIREBO/with-SteepDescent/Higher-Symm/SD-CG/HFTN-CG
REM
REM
REM
REM
REM
REM ./C.cell (b20cbc046b6831c77cfcea5457e17084)
REM
REM compiler GCC version 9.2.1 20190827 (Red Hat 9.2.1-1)
REM options -cpp -mtune=generic -march=x86-64 -g -O0 -fpre-include=/usr/include/finclude/math-vector-fortran.h
REM seed -806460297 -516490774 -128632188 -1044788513 486048186 686203243 -1451976422 1589255637 4657103 1605578051 -329689196 -1097425898 1157355560 658804758 -839357613 1807909457 -1932016152 578663478 1817326099 -1097312460 2080343092 -1386025403 -1809818905 -1387289284 -311452870 -1665021038 -1081076342 1216460207 66583556 -635517915 -1300705729 542576089 -859879526
REM
CELL 1.54180   50.00000   50.00000   50.00000   90.00000   90.00000   90.00000
LATT -1
SFAC C  
C      1  0.4514200000000  0.5567840000000  0.5282500000000 1.0
C      1  0.4218470000000  0.4878130000000  0.5357530000000 1.0
C      1  0.4381580000000  0.4417940000000  0.5231340000000 1.0
C      1  0.5171160000000  0.4303640000000  0.5247180000000 1.0
C      1  0.5767340000000  0.4724870000000  0.5418540000000 1.0
C      1  0.5695570000000  0.5466880000000  0.5132640000000 1.0
C      1  0.5054500000000  0.5740140000000  0.5403150000000 1.0
C      1  0.5187910000000  0.5284380000000  0.5356630000000 1.0
C      1  0.4864200000000  0.5293520000000  0.5460770000000 1.0
C      1  0.4607160000000  0.5092040000000  0.5460380000000 1.0
C      1  0.4681490000000  0.4760710000000  0.5478820000000 1.0
C      1  0.4976650000000  0.4705250000000  0.5448220000000 1.0
C      1  0.5311820000000  0.4645120000000  0.5448600000000 1.0
C      1  0.5474670000000  0.5140300000000  0.5419760000000 1.0
C      1  0.4390630000000  0.5093300000000  0.5198240000000 1.0
C      1  0.4545840000000  0.4623810000000  0.5215890000000 1.0
C      1  0.5030710000000  0.4528360000000  0.5191070000000 1.0
C      1  0.5543770000000  0.4669690000000  0.5198380000000 1.0
C      1  0.5583250000000  0.5210730000000  0.5162000000000 1.0
C      1  0.5226350000000  0.5570510000000  0.5205120000000 1.0
C      1  0.4766080000000  0.5480280000000  0.5208680000000 1.0
C      1  0.4909370000000  0.5602280000000  0.5561220000000 1.0
C      1  0.4387710000000  0.5351530000000  0.5394750000000 1.0
C      1  0.4352940000000  0.4757400000000  0.5538620000000 1.0
C      1  0.4239260000000  0.4198300000000  0.5245830000000 1.0
C      1  0.5349540000000  0.4313610000000  0.5479840000000 1.0
C      1  0.5522800000000  0.4892280000000  0.5526290000000 1.0
C      1  0.5516010000000  0.5672540000000  0.5166710000000 1.0
C      1  0.5189480000000  0.5292880000000  0.4400590000000 1.0
C      1  0.4858750000000  0.5268570000000  0.4459680000000 1.0
C      1  0.4625090000000  0.5032870000000  0.4451570000000 1.0
C      1  0.4693450000000  0.4755290000000  0.4453640000000 1.0
C      1  0.5020490000000  0.4665190000000  0.4426230000000 1.0
C      1  0.5334690000000  0.4794930000000  0.4434240000000 1.0
C      1  0.5376290000000  0.5079540000000  0.4438080000000 1.0
C      1  0.5150220000000  0.5358250000000  0.4953660000000 1.0
C      1  0.4810600000000  0.5321310000000  0.4944090000000 1.0
C      1  0.4576580000000  0.5071830000000  0.4950230000000 1.0
C      1  0.4647610000000  0.4749620000000  0.4960630000000 1.0
C      1  0.4949160000000  0.4666690000000  0.4936450000000 1.0
C      1  0.5494680000000  0.4790010000000  0.4951840000000 1.0
C      1  0.5382010000000  0.5110050000000  0.4928700000000 1.0
C      1  0.4753480000000  0.5465510000000  0.4668750000000 1.0
C      1  0.4419170000000  0.5123650000000  0.4675410000000 1.0
C      1  0.4552140000000  0.4601920000000  0.4689150000000 1.0
C      1  0.4982780000000  0.4473860000000  0.4690750000000 1.0
C      1  0.5494040000000  0.4637890000000  0.4668340000000 1.0
C      1  0.5579010000000  0.5164340000000  0.4661330000000 1.0
C      1  0.5174230000000  0.5506200000000  0.4664500000000 1.0
C      1  0.4427100000000  0.5448790000000  0.4641770000000 1.0
C      1  0.4321390000000  0.4819390000000  0.4600320000000 1.0
C      1  0.4699280000000  0.4308310000000  0.4671850000000 1.0
C      1  0.5294020000000  0.4390290000000  0.4671880000000 1.0
C      1  0.5724470000000  0.4878610000000  0.4637450000000 1.0
C      1  0.5495430000000  0.5471760000000  0.4605890000000 1.0
C      1  0.4938940000000  0.5733710000000  0.4637010000000 1.0
C      1  0.5115910000000  0.4988560000000  0.5508010000000 1.0
C      1  0.5092180000000  0.5041870000000  0.5810090000000 1.0
C      1  0.5100180000000  0.4937270000000  0.4848910000000 1.0
C      1  0.5103510000000  0.4956250000000  0.5169350000000 1.0
C      1  0.4941270000000  0.4979620000000  0.4224310000000 1.0
C      1  0.5005160000000  0.4978050000000  0.4558510000000 1.0
END
