TITL C-2622964-2985-679 -0.000802347973442671 125000 -715.843939081935 0 0 135 (C1) n - 1
REM
REM in /nfs/bkarasulu/CARBON/AIRSS/Generating-Clusters/AIREBO/with-SteepDescent/Higher-Symm/SD-CG/HFTN-CG
REM
REM
REM
REM
REM
REM ./C.cell (b20cbc046b6831c77cfcea5457e17084)
REM
REM compiler GCC version 9.2.1 20190827 (Red Hat 9.2.1-1)
REM options -cpp -mtune=generic -march=x86-64 -g -O0 -fpre-include=/usr/include/finclude/math-vector-fortran.h
REM seed -454079548 846064781 419761679 -158261498 -1325821776 1541229504 513861042 -1204480424 1946973404 1294576133 -1687741496 -1922385875 -1341789697 -1643500298 660927821 2092079066 -1857949647 150584436 -404670519 -975274803 -572026760 850344246 -1840061962 -2097109501 1307641896 -1547629652 -955411690 546933669 639552479 -1038805385 1038118477 447313455 55606020
REM
CELL 1.54180   50.00000   50.00000   50.00000   90.00000   90.00000   90.00000
LATT -1
SFAC C  
C      1  0.5279600000000  0.5608050000000  0.5216850000000 1.0
C      1  0.4660450000000  0.5599910000000  0.4779390000000 1.0
C      1  0.5346320000000  0.4430540000000  0.4852560000000 1.0
C      1  0.4644210000000  0.4389540000000  0.5159040000000 1.0
C      1  0.5286470000000  0.4906530000000  0.4840070000000 1.0
C      1  0.4650600000000  0.4828730000000  0.5281900000000 1.0
C      1  0.5305160000000  0.5144920000000  0.5172290000000 1.0
C      1  0.4739640000000  0.5178050000000  0.4820280000000 1.0
C      1  0.4220660000000  0.4543300000000  0.4659730000000 1.0
C      1  0.5782900000000  0.4562340000000  0.5350880000000 1.0
C      1  0.4218010000000  0.5483410000000  0.5362470000000 1.0
C      1  0.5830500000000  0.5429080000000  0.4530390000000 1.0
C      1  0.4179350000000  0.4849200000000  0.5557820000000 1.0
C      1  0.5830610000000  0.4862020000000  0.4436820000000 1.0
C      1  0.4201930000000  0.5147210000000  0.4470940000000 1.0
C      1  0.5856670000000  0.5152890000000  0.5534030000000 1.0
C      1  0.4858550000000  0.4316400000000  0.4917510000000 1.0
C      1  0.5142480000000  0.4311490000000  0.5097400000000 1.0
C      1  0.4827300000000  0.5632680000000  0.5022820000000 1.0
C      1  0.5132240000000  0.5636440000000  0.4960820000000 1.0
C      1  0.4600420000000  0.5231370000000  0.4308280000000 1.0
C      1  0.5337700000000  0.5248500000000  0.5683820000000 1.0
C      1  0.4589530000000  0.4742620000000  0.5666920000000 1.0
C      1  0.5381500000000  0.4761570000000  0.4313830000000 1.0
C      1  0.4446610000000  0.4324810000000  0.4607480000000 1.0
C      1  0.5572290000000  0.4324180000000  0.5399020000000 1.0
C      1  0.4469520000000  0.5680030000000  0.5447920000000 1.0
C      1  0.5593300000000  0.5670960000000  0.4549260000000 1.0
C      1  0.5451770000000  0.5619960000000  0.5776510000000 1.0
C      1  0.4570570000000  0.5629170000000  0.4297130000000 1.0
C      1  0.5439280000000  0.4367630000000  0.4332600000000 1.0
C      1  0.4545780000000  0.4348260000000  0.5712060000000 1.0
C      1  0.4105740000000  0.5299470000000  0.4721030000000 1.0
C      1  0.5841270000000  0.5350880000000  0.5298320000000 1.0
C      1  0.4092660000000  0.4714230000000  0.5295760000000 1.0
C      1  0.5879530000000  0.4768390000000  0.4720680000000 1.0
C      1  0.4204320000000  0.5155410000000  0.4978010000000 1.0
C      1  0.5830650000000  0.5239940000000  0.5018640000000 1.0
C      1  0.4181430000000  0.4872980000000  0.5035350000000 1.0
C      1  0.5789400000000  0.4925070000000  0.4986960000000 1.0
C      1  0.5123490000000  0.4900200000000  0.5296860000000 1.0
C      1  0.4992780000000  0.4864550000000  0.4575470000000 1.0
C      1  0.5028510000000  0.5164960000000  0.4546390000000 1.0
C      1  0.4867920000000  0.5036830000000  0.5333660000000 1.0
C      1  0.5285080000000  0.5309630000000  0.4397860000000 1.0
C      1  0.4761690000000  0.5258360000000  0.5556170000000 1.0
C      1  0.5243360000000  0.4705170000000  0.5526800000000 1.0
C      1  0.4730490000000  0.4697120000000  0.4467890000000 1.0
C      1  0.4522150000000  0.5260250000000  0.5038530000000 1.0
C      1  0.5524710000000  0.5216930000000  0.4921940000000 1.0
C      1  0.4503280000000  0.4765350000000  0.5014520000000 1.0
C      1  0.5478450000000  0.4805170000000  0.5054600000000 1.0
C      1  0.4647120000000  0.3926390000000  0.5193850000000 1.0
C      1  0.5366830000000  0.3963960000000  0.4802560000000 1.0
C      1  0.4750510000000  0.5986200000000  0.4824800000000 1.0
C      1  0.5271530000000  0.6002740000000  0.5178070000000 1.0
C      1  0.5445610000000  0.4927280000000  0.5686180000000 1.0
C      1  0.4530950000000  0.4931880000000  0.4323870000000 1.0
C      1  0.5454800000000  0.5053830000000  0.4251590000000 1.0
C      1  0.4518270000000  0.5049680000000  0.5669590000000 1.0
C      1  0.5521110000000  0.4204600000000  0.4766630000000 1.0
C      1  0.4469520000000  0.4158720000000  0.5226170000000 1.0
C      1  0.5505570000000  0.5783380000000  0.5291110000000 1.0
C      1  0.4482760000000  0.5850020000000  0.4731700000000 1.0
C      1  0.4334400000000  0.4545930000000  0.5557500000000 1.0
C      1  0.5630730000000  0.4588760000000  0.4469320000000 1.0
C      1  0.4383720000000  0.5434820000000  0.4473810000000 1.0
C      1  0.5645350000000  0.5390210000000  0.5641990000000 1.0
C      1  0.4882100000000  0.5644310000000  0.4359560000000 1.0
C      1  0.5190810000000  0.5612550000000  0.5608490000000 1.0
C      1  0.4851800000000  0.4345550000000  0.5604900000000 1.0
C      1  0.5145720000000  0.4381180000000  0.4445760000000 1.0
C      1  0.4703660000000  0.5783520000000  0.5643900000000 1.0
C      1  0.5355700000000  0.5823980000000  0.4376730000000 1.0
C      1  0.4675290000000  0.4198380000000  0.4425200000000 1.0
C      1  0.5335700000000  0.4207540000000  0.5582700000000 1.0
C      1  0.5969670000000  0.5389030000000  0.4774060000000 1.0
C      1  0.4189140000000  0.5476560000000  0.5066830000000 1.0
C      1  0.5817670000000  0.4596930000000  0.5068770000000 1.0
C      1  0.4176400000000  0.4548050000000  0.4949280000000 1.0
C      1  0.4843840000000  0.4699240000000  0.5879050000000 1.0
C      1  0.5103920000000  0.4691680000000  0.4130170000000 1.0
C      1  0.4858300000000  0.5284820000000  0.4092780000000 1.0
C      1  0.5064640000000  0.5294240000000  0.5856440000000 1.0
C      1  0.4602860000000  0.4581560000000  0.4761960000000 1.0
C      1  0.5394100000000  0.4571210000000  0.5265840000000 1.0
C      1  0.4609010000000  0.5427830000000  0.5315630000000 1.0
C      1  0.5455480000000  0.5409310000000  0.4661090000000 1.0
C      1  0.4952870000000  0.4190230000000  0.4616100000000 1.0
C      1  0.5054940000000  0.4171740000000  0.5394800000000 1.0
C      1  0.4996400000000  0.5874240000000  0.5550450000000 1.0
C      1  0.5046690000000  0.5919740000000  0.4444430000000 1.0
C      1  0.5513400000000  0.5927010000000  0.4728930000000 1.0
C      1  0.4510650000000  0.5946420000000  0.5282420000000 1.0
C      1  0.5514250000000  0.4020610000000  0.5281100000000 1.0
C      1  0.4494270000000  0.4026410000000  0.4734410000000 1.0
C      1  0.5532530000000  0.5020990000000  0.4648380000000 1.0
C      1  0.4450970000000  0.5062590000000  0.5276490000000 1.0
C      1  0.5568790000000  0.4989040000000  0.5312180000000 1.0
C      1  0.4502000000000  0.4966960000000  0.4769220000000 1.0
C      1  0.4772630000000  0.5388760000000  0.4555410000000 1.0
C      1  0.5252090000000  0.5364050000000  0.5384530000000 1.0
C      1  0.4703870000000  0.4553240000000  0.5408630000000 1.0
C      1  0.5258350000000  0.4655350000000  0.4612460000000 1.0
C      1  0.5184550000000  0.5589600000000  0.4281400000000 1.0
C      1  0.4887320000000  0.5531960000000  0.5714280000000 1.0
C      1  0.5146830000000  0.4430340000000  0.5677410000000 1.0
C      1  0.4858920000000  0.4425850000000  0.4315650000000 1.0
C      1  0.4251610000000  0.5173780000000  0.5499000000000 1.0
C      1  0.5718710000000  0.5164000000000  0.4421600000000 1.0
C      1  0.4297010000000  0.4843160000000  0.4547300000000 1.0
C      1  0.5739730000000  0.4844360000000  0.5536560000000 1.0
C      1  0.4720330000000  0.5217490000000  0.5891320000000 1.0
C      1  0.5195170000000  0.5215110000000  0.4083850000000 1.0
C      1  0.4769790000000  0.4764690000000  0.4136910000000 1.0
C      1  0.5173450000000  0.4789670000000  0.5848660000000 1.0
C      1  0.4953670000000  0.3909660000000  0.5245180000000 1.0
C      1  0.5065300000000  0.3927200000000  0.4752150000000 1.0
C      1  0.4999000000000  0.6010360000000  0.4699530000000 1.0
C      1  0.5020800000000  0.6000600000000  0.5307460000000 1.0
C      1  0.5707850000000  0.5611120000000  0.5388430000000 1.0
C      1  0.4263440000000  0.5593490000000  0.4752000000000 1.0
C      1  0.5748880000000  0.4457110000000  0.4762350000000 1.0
C      1  0.4239300000000  0.4407470000000  0.5257480000000 1.0
C      1  0.5252870000000  0.3989830000000  0.5098500000000 1.0
C      1  0.4764950000000  0.3989660000000  0.4903330000000 1.0
C      1  0.5235650000000  0.5929890000000  0.4872980000000 1.0
C      1  0.4782310000000  0.5932990000000  0.5134440000000 1.0
C      1  0.5112050000000  0.4650120000000  0.5092590000000 1.0
C      1  0.4917010000000  0.4636340000000  0.4816140000000 1.0
C      1  0.5159550000000  0.5402040000000  0.4765730000000 1.0
C      1  0.4893250000000  0.5333710000000  0.5166640000000 1.0
C      1  0.4982920000000  0.4990360000000  0.4125790000000 1.0
C      1  0.4949600000000  0.5001060000000  0.5854100000000 1.0
C      1  0.5053480000000  0.5132920000000  0.4943670000000 1.0
END
