TITL C-2622966-9038-214 0.0102524287558388 125000 -571.256183591402 0 0 113 (C1) n - 1
REM
REM in /nfs/bkarasulu/CARBON/AIRSS/Generating-Clusters/AIREBO/with-SteepDescent/Higher-Symm/SD-CG/HFTN-CG
REM
REM
REM
REM
REM
REM ./C.cell (b20cbc046b6831c77cfcea5457e17084)
REM
REM compiler GCC version 9.2.1 20190827 (Red Hat 9.2.1-1)
REM options -cpp -mtune=generic -march=x86-64 -g -O0 -fpre-include=/usr/include/finclude/math-vector-fortran.h
REM seed -777350857 112662808 -969757497 -2080248835 -389275088 471378914 -393893076 723604322 -32622974 727535434 -1209118717 317216391 1928341527 1987015565 270615826 421515036 122897740 1841456283 159518784 -1231690763 -617292647 -826838756 -2016325090 -2125117229 1285237756 -1223459325 -1169994580 652081501 -1117415428 -1934908104 -603261592 1612984369 -1668650249
REM
CELL 1.54180   50.00000   50.00000   50.00000   90.00000   90.00000   90.00000
LATT -1
SFAC C  
C      1  0.4118640000000  0.4429320000000  0.4606950000000 1.0
C      1  0.4253330000000  0.5520470000000  0.5299450000000 1.0
C      1  0.4238420000000  0.5474440000000  0.4656730000000 1.0
C      1  0.4206000000000  0.4526760000000  0.5232550000000 1.0
C      1  0.5185700000000  0.4404500000000  0.5859710000000 1.0
C      1  0.5254460000000  0.5543220000000  0.4301800000000 1.0
C      1  0.5261890000000  0.5513620000000  0.5739480000000 1.0
C      1  0.5208070000000  0.4508040000000  0.4260140000000 1.0
C      1  0.4228590000000  0.5271050000000  0.5442240000000 1.0
C      1  0.4186650000000  0.4704480000000  0.4497470000000 1.0
C      1  0.4208190000000  0.4753400000000  0.5402130000000 1.0
C      1  0.4246360000000  0.5237010000000  0.4473460000000 1.0
C      1  0.4882600000000  0.5768480000000  0.5413310000000 1.0
C      1  0.4810500000000  0.4118690000000  0.4756940000000 1.0
C      1  0.4715670000000  0.4222820000000  0.5560270000000 1.0
C      1  0.4927020000000  0.5696900000000  0.4634210000000 1.0
C      1  0.5410160000000  0.5120440000000  0.5369070000000 1.0
C      1  0.5486980000000  0.4925640000000  0.4708840000000 1.0
C      1  0.5528370000000  0.4803670000000  0.5332720000000 1.0
C      1  0.5536860000000  0.5246270000000  0.4655690000000 1.0
C      1  0.5653600000000  0.5357710000000  0.5361460000000 1.0
C      1  0.5647050000000  0.4658270000000  0.4644430000000 1.0
C      1  0.5760350000000  0.4674200000000  0.5183940000000 1.0
C      1  0.5598900000000  0.5525670000000  0.4780880000000 1.0
C      1  0.5433370000000  0.4306250000000  0.5352180000000 1.0
C      1  0.5379890000000  0.5715710000000  0.4760660000000 1.0
C      1  0.5466980000000  0.5633810000000  0.5293340000000 1.0
C      1  0.5366080000000  0.4473370000000  0.4699310000000 1.0
C      1  0.4874180000000  0.4562760000000  0.4654910000000 1.0
C      1  0.4810450000000  0.5406260000000  0.5254760000000 1.0
C      1  0.4733430000000  0.5354780000000  0.4707360000000 1.0
C      1  0.4726280000000  0.4552040000000  0.5291090000000 1.0
C      1  0.4700700000000  0.5561490000000  0.4468750000000 1.0
C      1  0.4562820000000  0.4463620000000  0.5577040000000 1.0
C      1  0.4634700000000  0.4337100000000  0.4577170000000 1.0
C      1  0.4642590000000  0.5688810000000  0.5571640000000 1.0
C      1  0.5347150000000  0.5282030000000  0.4220670000000 1.0
C      1  0.5309250000000  0.4682890000000  0.5714880000000 1.0
C      1  0.5363030000000  0.4737470000000  0.4196000000000 1.0
C      1  0.5393470000000  0.5268910000000  0.5765100000000 1.0
C      1  0.5929400000000  0.4832080000000  0.4720020000000 1.0
C      1  0.5944950000000  0.5213290000000  0.5271700000000 1.0
C      1  0.5892550000000  0.5364960000000  0.4817710000000 1.0
C      1  0.5995150000000  0.4807910000000  0.5171030000000 1.0
C      1  0.4998610000000  0.5174230000000  0.4630890000000 1.0
C      1  0.4974960000000  0.4776720000000  0.5349130000000 1.0
C      1  0.4945100000000  0.4875890000000  0.4542760000000 1.0
C      1  0.4959150000000  0.5114200000000  0.5347160000000 1.0
C      1  0.4593320000000  0.5128540000000  0.4309920000000 1.0
C      1  0.4732420000000  0.4823140000000  0.5583140000000 1.0
C      1  0.4698210000000  0.4747300000000  0.4347370000000 1.0
C      1  0.4651150000000  0.5187520000000  0.5724570000000 1.0
C      1  0.4434490000000  0.4536420000000  0.4387910000000 1.0
C      1  0.4460880000000  0.5434020000000  0.5629890000000 1.0
C      1  0.4486360000000  0.5425150000000  0.4322240000000 1.0
C      1  0.4408500000000  0.4719390000000  0.5592040000000 1.0
C      1  0.5583820000000  0.5221870000000  0.4357900000000 1.0
C      1  0.5592670000000  0.4801980000000  0.5639570000000 1.0
C      1  0.5619650000000  0.4750380000000  0.4317870000000 1.0
C      1  0.5667850000000  0.5262780000000  0.5687100000000 1.0
C      1  0.4462790000000  0.5519760000000  0.4812200000000 1.0
C      1  0.4443810000000  0.4425490000000  0.5150370000000 1.0
C      1  0.4327070000000  0.4281050000000  0.4691540000000 1.0
C      1  0.4541300000000  0.5612790000000  0.5277840000000 1.0
C      1  0.4633320000000  0.5162420000000  0.5404930000000 1.0
C      1  0.4593170000000  0.4752350000000  0.4681530000000 1.0
C      1  0.4593320000000  0.4864260000000  0.5268510000000 1.0
C      1  0.4577770000000  0.5078490000000  0.4630400000000 1.0
C      1  0.5149290000000  0.4462270000000  0.4533370000000 1.0
C      1  0.5237210000000  0.5617190000000  0.5496930000000 1.0
C      1  0.5196460000000  0.5690680000000  0.4546330000000 1.0
C      1  0.5197430000000  0.4420390000000  0.5520260000000 1.0
C      1  0.5192270000000  0.5272610000000  0.5156940000000 1.0
C      1  0.5194620000000  0.4838050000000  0.4719680000000 1.0
C      1  0.5255970000000  0.4667220000000  0.5197490000000 1.0
C      1  0.5242590000000  0.5223570000000  0.4811640000000 1.0
C      1  0.4947880000000  0.4300960000000  0.5350340000000 1.0
C      1  0.4886520000000  0.5690830000000  0.4927890000000 1.0
C      1  0.5081230000000  0.5602340000000  0.5192520000000 1.0
C      1  0.4839480000000  0.4230540000000  0.5051620000000 1.0
C      1  0.4865480000000  0.4983900000000  0.4166340000000 1.0
C      1  0.4947440000000  0.5023320000000  0.5754440000000 1.0
C      1  0.5741300000000  0.5003910000000  0.4274350000000 1.0
C      1  0.5761030000000  0.4995730000000  0.5727250000000 1.0
C      1  0.4485410000000  0.4872770000000  0.4113600000000 1.0
C      1  0.4594370000000  0.4895090000000  0.5887450000000 1.0
C      1  0.5204740000000  0.5010290000000  0.4141400000000 1.0
C      1  0.5243420000000  0.5009420000000  0.5645390000000 1.0
C      1  0.4833580000000  0.5268830000000  0.4982350000000 1.0
C      1  0.4836060000000  0.4644550000000  0.4982760000000 1.0
C      1  0.4997570000000  0.5004400000000  0.3871870000000 1.0
C      1  0.4976010000000  0.4958090000000  0.6057200000000 1.0
C      1  0.5389360000000  0.4402520000000  0.5029990000000 1.0
C      1  0.5309660000000  0.5809110000000  0.5048630000000 1.0
C      1  0.5738780000000  0.5518740000000  0.5074260000000 1.0
C      1  0.5682490000000  0.4531130000000  0.4957860000000 1.0
C      1  0.5284910000000  0.6084610000000  0.5083830000000 1.0
C      1  0.5389270000000  0.4095460000000  0.4957620000000 1.0
C      1  0.4194130000000  0.4973030000000  0.4603700000000 1.0
C      1  0.4161230000000  0.5019600000000  0.5263490000000 1.0
C      1  0.4614930000000  0.5676600000000  0.4993740000000 1.0
C      1  0.4514020000000  0.4228490000000  0.4941830000000 1.0
C      1  0.5925350000000  0.5068410000000  0.4964640000000 1.0
C      1  0.4918310000000  0.4959710000000  0.4980480000000 1.0
C      1  0.6263650000000  0.5090550000000  0.4938170000000 1.0
C      1  0.6517470000000  0.5107220000000  0.4918180000000 1.0
C      1  0.3690810000000  0.5135190000000  0.4977980000000 1.0
C      1  0.4240290000000  0.4985430000000  0.4931680000000 1.0
C      1  0.4579260000000  0.4966770000000  0.4951720000000 1.0
C      1  0.3935470000000  0.5085600000000  0.5035880000000 1.0
C      1  0.5254840000000  0.4963180000000  0.5030110000000 1.0
C      1  0.3447230000000  0.5210860000000  0.4917740000000 1.0
C      1  0.5591060000000  0.5016150000000  0.5000570000000 1.0
END
