TITL C-2622954-8726-698 -0.000831875861006022 125000 -486.345267337684 0 0 91 (C1) n - 1
REM
REM in /nfs/bkarasulu/CARBON/AIRSS/Generating-Clusters/AIREBO/with-SteepDescent/Higher-Symm/SD-CG/HFTN-CG
REM
REM
REM
REM
REM
REM ./C.cell (b20cbc046b6831c77cfcea5457e17084)
REM
REM compiler GCC version 9.2.1 20190827 (Red Hat 9.2.1-1)
REM options -cpp -mtune=generic -march=x86-64 -g -O0 -fpre-include=/usr/include/finclude/math-vector-fortran.h
REM seed -560138974 -1363879355 -458761524 -1063474555 -1721740417 1547183840 1231103701 1866318659 1960484082 350278427 1152282955 530427360 1752346365 -1969851847 -374014962 -1666353658 -1947334775 561681274 1942544021 1130744998 -1370376827 -1325335909 -1061142599 629917177 116266311 -1148969589 327119174 -962736510 1996163107 -137977620 -1854559771 1569180472 -1036827074
REM
CELL 1.54180   50.00000   50.00000   50.00000   90.00000   90.00000   90.00000
LATT -1
SFAC C  
C      1  0.5994210000000  0.5008330000000  0.4712300000000 1.0
C      1  0.5428540000000  0.4207020000000  0.4522280000000 1.0
C      1  0.4507060000000  0.4152400000000  0.4603260000000 1.0
C      1  0.4091870000000  0.4937650000000  0.4660180000000 1.0
C      1  0.4585520000000  0.5797980000000  0.4543540000000 1.0
C      1  0.5492410000000  0.5841640000000  0.4619540000000 1.0
C      1  0.5808140000000  0.5382270000000  0.5196720000000 1.0
C      1  0.5607580000000  0.4527710000000  0.5021550000000 1.0
C      1  0.4880350000000  0.4138800000000  0.5104990000000 1.0
C      1  0.4169640000000  0.4676260000000  0.5210640000000 1.0
C      1  0.4426580000000  0.5465270000000  0.5044530000000 1.0
C      1  0.5136430000000  0.5900120000000  0.5125790000000 1.0
C      1  0.4551550000000  0.5679720000000  0.5267560000000 1.0
C      1  0.5309520000000  0.5720840000000  0.5308010000000 1.0
C      1  0.5724020000000  0.5145140000000  0.5361940000000 1.0
C      1  0.5446960000000  0.4338460000000  0.5246750000000 1.0
C      1  0.4696880000000  0.4294390000000  0.5281980000000 1.0
C      1  0.4311900000000  0.4882900000000  0.5369440000000 1.0
C      1  0.5631570000000  0.4689260000000  0.5269160000000 1.0
C      1  0.5091490000000  0.4282500000000  0.5324130000000 1.0
C      1  0.4303220000000  0.4501830000000  0.5468710000000 1.0
C      1  0.4470720000000  0.5294230000000  0.5277030000000 1.0
C      1  0.4916600000000  0.5765760000000  0.5331560000000 1.0
C      1  0.5603320000000  0.5513670000000  0.5432280000000 1.0
C      1  0.4787070000000  0.5166570000000  0.4106130000000 1.0
C      1  0.5056380000000  0.5289260000000  0.4193040000000 1.0
C      1  0.5301030000000  0.5162930000000  0.4077280000000 1.0
C      1  0.5294460000000  0.4866160000000  0.4108070000000 1.0
C      1  0.5021720000000  0.4715620000000  0.4108550000000 1.0
C      1  0.4761430000000  0.4870140000000  0.4168090000000 1.0
C      1  0.5204230000000  0.4421870000000  0.5035190000000 1.0
C      1  0.4458370000000  0.4402850000000  0.5229270000000 1.0
C      1  0.4492320000000  0.5033130000000  0.5242220000000 1.0
C      1  0.4809120000000  0.5572910000000  0.5072980000000 1.0
C      1  0.5423920000000  0.5472220000000  0.5146420000000 1.0
C      1  0.5579750000000  0.4956100000000  0.5225500000000 1.0
C      1  0.5028920000000  0.5729320000000  0.4860910000000 1.0
C      1  0.5647370000000  0.5390960000000  0.4897200000000 1.0
C      1  0.5576460000000  0.4663880000000  0.4753290000000 1.0
C      1  0.4976350000000  0.4277540000000  0.4827730000000 1.0
C      1  0.4353590000000  0.4558350000000  0.4945560000000 1.0
C      1  0.4450070000000  0.5342630000000  0.4773740000000 1.0
C      1  0.4555030000000  0.5467760000000  0.5537870000000 1.0
C      1  0.5099940000000  0.5593530000000  0.5535010000000 1.0
C      1  0.5556010000000  0.5238220000000  0.5621400000000 1.0
C      1  0.5433280000000  0.4572820000000  0.5495640000000 1.0
C      1  0.4871890000000  0.4413350000000  0.5529950000000 1.0
C      1  0.4403880000000  0.4768730000000  0.5657460000000 1.0
C      1  0.4101190000000  0.4690240000000  0.4763880000000 1.0
C      1  0.4450140000000  0.5566000000000  0.4556480000000 1.0
C      1  0.5224100000000  0.5869130000000  0.4631200000000 1.0
C      1  0.5910080000000  0.5259600000000  0.4752060000000 1.0
C      1  0.5553150000000  0.4445100000000  0.4529730000000 1.0
C      1  0.4776140000000  0.4132230000000  0.4604180000000 1.0
C      1  0.4687210000000  0.4938640000000  0.5578390000000 1.0
C      1  0.4758200000000  0.5195820000000  0.5537070000000 1.0
C      1  0.5054530000000  0.5293870000000  0.5453650000000 1.0
C      1  0.5279540000000  0.5100610000000  0.5558050000000 1.0
C      1  0.5211930000000  0.4813660000000  0.5470270000000 1.0
C      1  0.4903070000000  0.4713710000000  0.5524180000000 1.0
C      1  0.4728200000000  0.5148570000000  0.4748930000000 1.0
C      1  0.5140380000000  0.5410650000000  0.4819790000000 1.0
C      1  0.5402090000000  0.5211410000000  0.4740140000000 1.0
C      1  0.5312580000000  0.4880050000000  0.4747400000000 1.0
C      1  0.4885890000000  0.4586160000000  0.4737700000000 1.0
C      1  0.4608860000000  0.4751480000000  0.4828360000000 1.0
C      1  0.5644320000000  0.5236360000000  0.5883380000000 1.0
C      1  0.5499110000000  0.4491170000000  0.5752200000000 1.0
C      1  0.4843600000000  0.4295050000000  0.5780750000000 1.0
C      1  0.4326320000000  0.4773170000000  0.5921710000000 1.0
C      1  0.4472710000000  0.5567570000000  0.5779970000000 1.0
C      1  0.5112260000000  0.5657490000000  0.5804140000000 1.0
C      1  0.4773570000000  0.5883350000000  0.4715780000000 1.0
C      1  0.5661270000000  0.5679250000000  0.4750440000000 1.0
C      1  0.5840320000000  0.4796590000000  0.4659080000000 1.0
C      1  0.5225750000000  0.4117930000000  0.4674540000000 1.0
C      1  0.4339590000000  0.4283610000000  0.4767010000000 1.0
C      1  0.4197060000000  0.5177790000000  0.4704650000000 1.0
C      1  0.5323120000000  0.4996990000000  0.5129000000000 1.0
C      1  0.5202680000000  0.4717380000000  0.5025120000000 1.0
C      1  0.4977340000000  0.4819460000000  0.5223060000000 1.0
C      1  0.4726580000000  0.4927070000000  0.5077790000000 1.0
C      1  0.4828240000000  0.5249730000000  0.5041610000000 1.0
C      1  0.5155980000000  0.5271280000000  0.5129710000000 1.0
C      1  0.4684990000000  0.4838190000000  0.4504340000000 1.0
C      1  0.4771820000000  0.5160710000000  0.4438420000000 1.0
C      1  0.5070170000000  0.5294150000000  0.4533010000000 1.0
C      1  0.5330190000000  0.5111270000000  0.4421950000000 1.0
C      1  0.5248040000000  0.4790760000000  0.4427740000000 1.0
C      1  0.4963550000000  0.4659030000000  0.4436120000000 1.0
C      1  0.4974530000000  0.4913590000000  0.4765620000000 1.0
END
