TITL C-2622954-8726-2 0.000604553423705699 125000 -523.127086136298 0 0 96 (C1) n - 1
REM
REM in /nfs/bkarasulu/CARBON/AIRSS/Generating-Clusters/AIREBO/with-SteepDescent/Higher-Symm/SD-CG/HFTN-CG
REM
REM
REM
REM
REM
REM ./C.cell (b20cbc046b6831c77cfcea5457e17084)
REM
REM compiler GCC version 9.2.1 20190827 (Red Hat 9.2.1-1)
REM options -cpp -mtune=generic -march=x86-64 -g -O0 -fpre-include=/usr/include/finclude/math-vector-fortran.h
REM seed 826336800 -1014867887 542719607 -1556998610 758190974 1322115817 721528937 -449256659 1901608216 2108647727 2102880604 540192559 -1455081420 -2129995168 2093551212 96127908 -1929114919 -1653171010 -139268766 -205417193 -991020760 -963121712 12754437 -1776223325 -2012985211 139559863 -495986891 1670427747 742229911 430336613 -1300407777 -1225210612 1052969296
REM
CELL 1.54180   50.00000   50.00000   50.00000   90.00000   90.00000   90.00000
LATT -1
SFAC C  
C      1  0.5446950000000  0.5011910000000  0.5524620000000 1.0
C      1  0.4540480000000  0.5042950000000  0.5598510000000 1.0
C      1  0.4792160000000  0.5714910000000  0.5247520000000 1.0
C      1  0.5119890000000  0.5703550000000  0.5232890000000 1.0
C      1  0.4298210000000  0.5650280000000  0.5108540000000 1.0
C      1  0.5606700000000  0.5636230000000  0.5009750000000 1.0
C      1  0.4454290000000  0.4453100000000  0.4877450000000 1.0
C      1  0.5584930000000  0.4435350000000  0.4852860000000 1.0
C      1  0.5555150000000  0.5361610000000  0.4593390000000 1.0
C      1  0.4345240000000  0.5411610000000  0.4548080000000 1.0
C      1  0.4218400000000  0.5232350000000  0.5147200000000 1.0
C      1  0.5832510000000  0.5120030000000  0.5128030000000 1.0
C      1  0.4286530000000  0.5112510000000  0.4669730000000 1.0
C      1  0.5945290000000  0.5027190000000  0.4756480000000 1.0
C      1  0.4376710000000  0.4573440000000  0.5181450000000 1.0
C      1  0.5639840000000  0.4536010000000  0.5158960000000 1.0
C      1  0.5298310000000  0.4803180000000  0.4630510000000 1.0
C      1  0.4746650000000  0.4766750000000  0.4612410000000 1.0
C      1  0.4838570000000  0.4565830000000  0.4837470000000 1.0
C      1  0.5157480000000  0.4598270000000  0.4841950000000 1.0
C      1  0.4878540000000  0.4505450000000  0.5843330000000 1.0
C      1  0.5131970000000  0.4481830000000  0.5840870000000 1.0
C      1  0.5161210000000  0.4844710000000  0.4351240000000 1.0
C      1  0.4896370000000  0.4704920000000  0.4353830000000 1.0
C      1  0.5672800000000  0.5208230000000  0.4849140000000 1.0
C      1  0.4207320000000  0.5341160000000  0.4871850000000 1.0
C      1  0.4734920000000  0.5522350000000  0.5709180000000 1.0
C      1  0.5307980000000  0.5459800000000  0.5662940000000 1.0
C      1  0.4709970000000  0.5432240000000  0.4979210000000 1.0
C      1  0.5259490000000  0.5413380000000  0.4998080000000 1.0
C      1  0.4270470000000  0.4896350000000  0.5172370000000 1.0
C      1  0.5815060000000  0.4819290000000  0.5181290000000 1.0
C      1  0.4850430000000  0.5030850000000  0.5738260000000 1.0
C      1  0.5189600000000  0.4983800000000  0.5721100000000 1.0
C      1  0.4502850000000  0.5403240000000  0.5562870000000 1.0
C      1  0.5537020000000  0.5324250000000  0.5483120000000 1.0
C      1  0.5486780000000  0.5605050000000  0.4733060000000 1.0
C      1  0.4362550000000  0.5635060000000  0.4801870000000 1.0
C      1  0.5311740000000  0.4959650000000  0.5247770000000 1.0
C      1  0.4496740000000  0.5108590000000  0.5297620000000 1.0
C      1  0.4865120000000  0.4723820000000  0.5361030000000 1.0
C      1  0.5160300000000  0.4714560000000  0.5358620000000 1.0
C      1  0.5141310000000  0.5148260000000  0.4310600000000 1.0
C      1  0.4835120000000  0.5270210000000  0.4403290000000 1.0
C      1  0.5280740000000  0.4674540000000  0.5658150000000 1.0
C      1  0.4757920000000  0.4718710000000  0.5659600000000 1.0
C      1  0.5415240000000  0.5540070000000  0.5269700000000 1.0
C      1  0.4524540000000  0.5529360000000  0.5247840000000 1.0
C      1  0.4750280000000  0.4329470000000  0.4639290000000 1.0
C      1  0.5231800000000  0.4307580000000  0.4719260000000 1.0
C      1  0.5577420000000  0.4636140000000  0.4576210000000 1.0
C      1  0.4447460000000  0.4621300000000  0.4580600000000 1.0
C      1  0.5055230000000  0.4888010000000  0.4951820000000 1.0
C      1  0.4802350000000  0.4919000000000  0.5129320000000 1.0
C      1  0.5358960000000  0.4665250000000  0.4178480000000 1.0
C      1  0.4705940000000  0.4583860000000  0.4126130000000 1.0
C      1  0.5235610000000  0.5744870000000  0.4918250000000 1.0
C      1  0.4645700000000  0.5759130000000  0.4943850000000 1.0
C      1  0.4596880000000  0.4412110000000  0.5384210000000 1.0
C      1  0.5429910000000  0.4371710000000  0.5370040000000 1.0
C      1  0.4822560000000  0.4214130000000  0.5208940000000 1.0
C      1  0.5162840000000  0.4210960000000  0.5216850000000 1.0
C      1  0.5375860000000  0.4191130000000  0.4951400000000 1.0
C      1  0.4643990000000  0.4201040000000  0.4917610000000 1.0
C      1  0.5241810000000  0.4519860000000  0.5134050000000 1.0
C      1  0.4767330000000  0.4522980000000  0.5116370000000 1.0
C      1  0.4281380000000  0.4826700000000  0.4781340000000 1.0
C      1  0.5739750000000  0.4818850000000  0.4794290000000 1.0
C      1  0.5438470000000  0.4437950000000  0.4337390000000 1.0
C      1  0.4582200000000  0.4402550000000  0.4357820000000 1.0
C      1  0.5467790000000  0.5165930000000  0.4404180000000 1.0
C      1  0.4523290000000  0.5190400000000  0.4360140000000 1.0
C      1  0.5110360000000  0.5171080000000  0.5126780000000 1.0
C      1  0.4784900000000  0.5229990000000  0.5203070000000 1.0
C      1  0.4211560000000  0.5357640000000  0.5425770000000 1.0
C      1  0.5818110000000  0.5282100000000  0.5346830000000 1.0
C      1  0.4615570000000  0.5033880000000  0.4714060000000 1.0
C      1  0.5370200000000  0.5066150000000  0.4785240000000 1.0
C      1  0.4956600000000  0.5567230000000  0.4290820000000 1.0
C      1  0.5188860000000  0.5446800000000  0.4457480000000 1.0
C      1  0.4551700000000  0.4868450000000  0.4983310000000 1.0
C      1  0.5515880000000  0.4895220000000  0.5038560000000 1.0
C      1  0.4812400000000  0.5957160000000  0.4781400000000 1.0
C      1  0.5063080000000  0.5948410000000  0.4771030000000 1.0
C      1  0.4480300000000  0.4727570000000  0.5466420000000 1.0
C      1  0.5547460000000  0.4689990000000  0.5447760000000 1.0
C      1  0.4870860000000  0.5335610000000  0.5863170000000 1.0
C      1  0.5153740000000  0.5280880000000  0.5809280000000 1.0
C      1  0.5605900000000  0.4921060000000  0.4392530000000 1.0
C      1  0.4448600000000  0.4894880000000  0.4378260000000 1.0
C      1  0.5127320000000  0.5285930000000  0.4726770000000 1.0
C      1  0.4804100000000  0.5284630000000  0.4735420000000 1.0
C      1  0.4937850000000  0.4371060000000  0.4369970000000 1.0
C      1  0.5219000000000  0.4297100000000  0.4444190000000 1.0
C      1  0.4886120000000  0.5703010000000  0.5555210000000 1.0
C      1  0.5186310000000  0.5686450000000  0.5563210000000 1.0
END
