TITL C-2622960-5345-475 0.000650396983629543 125000 -153.62640756743 0 0 28 (C3v) n - 1
REM
REM in /nfs/bkarasulu/CARBON/AIRSS/Generating-Clusters/AIREBO/with-SteepDescent/Higher-Symm/SD-CG/HFTN-CG
REM
REM
REM
REM
REM
REM ./C.cell (b20cbc046b6831c77cfcea5457e17084)
REM
REM compiler GCC version 9.2.1 20190827 (Red Hat 9.2.1-1)
REM options -cpp -mtune=generic -march=x86-64 -g -O0 -fpre-include=/usr/include/finclude/math-vector-fortran.h
REM seed 278107644 -1361020623 1087668082 -489414837 1846310778 -1268894877 1673964355 28094102 -178854708 -1042305733 1804607531 361413733 -381449523 -1715444442 1695815200 -4510932 937556610 -762937639 -1350316250 967973832 -823848867 1856421914 -1832340480 698564157 166435444 -815831099 -575070422 868897777 -2065241169 44630867 837794149 -933062328 -1809544238
REM
CELL 1.54180   50.00000   50.00000   50.00000   90.00000   90.00000   90.00000
LATT -1
SFAC C  
C      1  0.5649930000000  0.4924460000000  0.4682720000000 1.0
C      1  0.4934530000000  0.4946180000000  0.5743670000000 1.0
C      1  0.4373360000000  0.4941830000000  0.4593470000000 1.0
C      1  0.4733130000000  0.4682030000000  0.4841390000000 1.0
C      1  0.5252270000000  0.4674960000000  0.4877680000000 1.0
C      1  0.4961340000000  0.4683800000000  0.5309130000000 1.0
C      1  0.4606190000000  0.4901690000000  0.4751290000000 1.0
C      1  0.5396410000000  0.4890940000000  0.4806530000000 1.0
C      1  0.4953560000000  0.4904390000000  0.5463290000000 1.0
C      1  0.4738580000000  0.5187580000000  0.4834700000000 1.0
C      1  0.5261500000000  0.5180460000000  0.4871260000000 1.0
C      1  0.4968450000000  0.5189360000000  0.5305860000000 1.0
C      1  0.4820240000000  0.4390460000000  0.4906090000000 1.0
C      1  0.5149140000000  0.4385980000000  0.4929090000000 1.0
C      1  0.4964820000000  0.4391580000000  0.5202430000000 1.0
C      1  0.4933730000000  0.5217760000000  0.5808010000000 1.0
C      1  0.4321350000000  0.5213010000000  0.4552850000000 1.0
C      1  0.5714410000000  0.5194050000000  0.4650240000000 1.0
C      1  0.4951970000000  0.5372530000000  0.5577190000000 1.0
C      1  0.4514040000000  0.5369130000000  0.4679580000000 1.0
C      1  0.5510270000000  0.5355580000000  0.4749220000000 1.0
C      1  0.5010670000000  0.5241630000000  0.4712060000000 1.0
C      1  0.5232420000000  0.5243350000000  0.5166560000000 1.0
C      1  0.4727990000000  0.5250220000000  0.5131290000000 1.0
C      1  0.4500980000000  0.5322460000000  0.5241770000000 1.0
C      1  0.5029300000000  0.5306410000000  0.4458260000000 1.0
C      1  0.5443720000000  0.5309630000000  0.5307680000000 1.0
C      1  0.4983100000000  0.4739680000000  0.5008760000000 1.0
END
