TITL C-2622961-1971-533 7.06082741196242e-05 125000 -649.364752838246 0 0 120 (C1) n - 1
REM
REM in /nfs/bkarasulu/CARBON/AIRSS/Generating-Clusters/AIREBO/with-SteepDescent/Higher-Symm/SD-CG/HFTN-CG
REM
REM
REM
REM
REM
REM ./C.cell (b20cbc046b6831c77cfcea5457e17084)
REM
REM compiler GCC version 9.2.1 20190827 (Red Hat 9.2.1-1)
REM options -cpp -mtune=generic -march=x86-64 -g -O0 -fpre-include=/usr/include/finclude/math-vector-fortran.h
REM seed 406236535 -1770619400 1941768624 1483736211 -1192207607 -617927746 298453030 34461163 51186079 1711519888 -1865942685 -566289782 1152212065 138004098 1385489901 148525573 1410351625 703913035 1965972278 2055239197 -1230327957 1101293774 -539860795 -1890879234 691876201 1432997773 78745775 1002263721 -669528668 -1203445667 -297789330 822398110 488853329
REM
CELL 1.54180   50.00000   50.00000   50.00000   90.00000   90.00000   90.00000
LATT -1
SFAC C  
C      1  0.4540090000000  0.4503350000000  0.5713540000000 1.0
C      1  0.4519780000000  0.4244300000000  0.4551820000000 1.0
C      1  0.4546820000000  0.5432040000000  0.4286010000000 1.0
C      1  0.4524880000000  0.5723680000000  0.5416050000000 1.0
C      1  0.4560300000000  0.4466070000000  0.4330310000000 1.0
C      1  0.4483410000000  0.4249380000000  0.5530960000000 1.0
C      1  0.4554080000000  0.5520050000000  0.5661960000000 1.0
C      1  0.4424010000000  0.5651700000000  0.4459920000000 1.0
C      1  0.4852810000000  0.4313190000000  0.4556150000000 1.0
C      1  0.4888840000000  0.5438580000000  0.4297510000000 1.0
C      1  0.4858730000000  0.5667230000000  0.5449020000000 1.0
C      1  0.4874010000000  0.4568110000000  0.5709400000000 1.0
C      1  0.4799710000000  0.4349330000000  0.5455100000000 1.0
C      1  0.4883890000000  0.5459890000000  0.5718610000000 1.0
C      1  0.4966460000000  0.5663130000000  0.4543510000000 1.0
C      1  0.4890510000000  0.4545980000000  0.4305670000000 1.0
C      1  0.4584460000000  0.4802660000000  0.4288580000000 1.0
C      1  0.4480760000000  0.5770670000000  0.4774400000000 1.0
C      1  0.4600650000000  0.5183930000000  0.5661030000000 1.0
C      1  0.4513840000000  0.4247000000000  0.5192330000000 1.0
C      1  0.4623850000000  0.4891880000000  0.5683660000000 1.0
C      1  0.4507680000000  0.5733910000000  0.5076620000000 1.0
C      1  0.4560690000000  0.5095750000000  0.4209390000000 1.0
C      1  0.4531410000000  0.4216490000000  0.4894500000000 1.0
C      1  0.5604680000000  0.5090000000000  0.5795320000000 1.0
C      1  0.5459860000000  0.4141600000000  0.5155710000000 1.0
C      1  0.5581830000000  0.4837300000000  0.4193370000000 1.0
C      1  0.5521250000000  0.5858250000000  0.4820780000000 1.0
C      1  0.5414270000000  0.5081630000000  0.4127270000000 1.0
C      1  0.5273780000000  0.4134460000000  0.4919810000000 1.0
C      1  0.5608210000000  0.4798140000000  0.5782400000000 1.0
C      1  0.5360470000000  0.5908830000000  0.5078420000000 1.0
C      1  0.4242960000000  0.5627570000000  0.5250270000000 1.0
C      1  0.4367590000000  0.4746070000000  0.5653490000000 1.0
C      1  0.4254040000000  0.4321300000000  0.4749510000000 1.0
C      1  0.4283950000000  0.5227990000000  0.4356160000000 1.0
C      1  0.4202800000000  0.5593140000000  0.4695180000000 1.0
C      1  0.4299200000000  0.4676240000000  0.4397460000000 1.0
C      1  0.4220620000000  0.4331730000000  0.5330230000000 1.0
C      1  0.4298690000000  0.5290930000000  0.5633330000000 1.0
C      1  0.4971310000000  0.4226190000000  0.5185820000000 1.0
C      1  0.5024710000000  0.4837800000000  0.4187830000000 1.0
C      1  0.4998400000000  0.5829340000000  0.4859310000000 1.0
C      1  0.5037780000000  0.5165810000000  0.5797590000000 1.0
C      1  0.4969700000000  0.4180160000000  0.4847460000000 1.0
C      1  0.5030730000000  0.4855830000000  0.5803420000000 1.0
C      1  0.5047620000000  0.5799200000000  0.5196280000000 1.0
C      1  0.5081000000000  0.5175730000000  0.4183240000000 1.0
C      1  0.5717740000000  0.4427630000000  0.5065110000000 1.0
C      1  0.5802080000000  0.4971580000000  0.4498050000000 1.0
C      1  0.5776870000000  0.5576450000000  0.4941860000000 1.0
C      1  0.5841290000000  0.5056990000000  0.5475850000000 1.0
C      1  0.5829080000000  0.4425370000000  0.4822110000000 1.0
C      1  0.5877120000000  0.4776900000000  0.5488380000000 1.0
C      1  0.5852210000000  0.5554190000000  0.5221640000000 1.0
C      1  0.5822120000000  0.5266790000000  0.4496210000000 1.0
C      1  0.5719330000000  0.5545970000000  0.4454080000000 1.0
C      1  0.5749840000000  0.5551420000000  0.5501040000000 1.0
C      1  0.5729600000000  0.4534900000000  0.5604520000000 1.0
C      1  0.5733640000000  0.4465860000000  0.4554580000000 1.0
C      1  0.5801440000000  0.5309710000000  0.5652170000000 1.0
C      1  0.5762540000000  0.5730060000000  0.4678550000000 1.0
C      1  0.5797010000000  0.4687580000000  0.4375240000000 1.0
C      1  0.5612420000000  0.4353360000000  0.5380630000000 1.0
C      1  0.4746330000000  0.5558530000000  0.4763450000000 1.0
C      1  0.4856070000000  0.5268210000000  0.5452620000000 1.0
C      1  0.4705950000000  0.4520570000000  0.5195960000000 1.0
C      1  0.4825360000000  0.4776990000000  0.4527170000000 1.0
C      1  0.4758430000000  0.5523070000000  0.5161650000000 1.0
C      1  0.4791830000000  0.5167390000000  0.4453000000000 1.0
C      1  0.4719900000000  0.4483160000000  0.4799810000000 1.0
C      1  0.4841410000000  0.4782390000000  0.5463070000000 1.0
C      1  0.4477780000000  0.5337820000000  0.5108680000000 1.0
C      1  0.4632020000000  0.4902800000000  0.5284070000000 1.0
C      1  0.4498020000000  0.4684980000000  0.4846110000000 1.0
C      1  0.4512240000000  0.5175190000000  0.4596350000000 1.0
C      1  0.4516010000000  0.5375000000000  0.4809890000000 1.0
C      1  0.4585480000000  0.4898760000000  0.4675600000000 1.0
C      1  0.4444570000000  0.4717880000000  0.5147790000000 1.0
C      1  0.4647870000000  0.5153590000000  0.5266080000000 1.0
C      1  0.5429130000000  0.4676800000000  0.4849270000000 1.0
C      1  0.5525140000000  0.5195960000000  0.4669770000000 1.0
C      1  0.5553510000000  0.5365870000000  0.5193260000000 1.0
C      1  0.5538320000000  0.4813880000000  0.5387390000000 1.0
C      1  0.5483510000000  0.4652700000000  0.5151580000000 1.0
C      1  0.5536240000000  0.5149290000000  0.5385320000000 1.0
C      1  0.5493540000000  0.5400090000000  0.4878450000000 1.0
C      1  0.5507980000000  0.4865500000000  0.4631820000000 1.0
C      1  0.4145370000000  0.4616330000000  0.5216190000000 1.0
C      1  0.4168310000000  0.4796890000000  0.4619770000000 1.0
C      1  0.4185410000000  0.5300930000000  0.4838600000000 1.0
C      1  0.4156460000000  0.5134880000000  0.5431060000000 1.0
C      1  0.4173590000000  0.4606790000000  0.4876750000000 1.0
C      1  0.4194800000000  0.4849210000000  0.5444420000000 1.0
C      1  0.4161880000000  0.5317880000000  0.5177740000000 1.0
C      1  0.4127310000000  0.5076380000000  0.4617340000000 1.0
C      1  0.5484100000000  0.5655520000000  0.5524910000000 1.0
C      1  0.5237530000000  0.4452240000000  0.5718540000000 1.0
C      1  0.5471740000000  0.4364680000000  0.4512620000000 1.0
C      1  0.5449190000000  0.5539630000000  0.4356670000000 1.0
C      1  0.5272780000000  0.5720890000000  0.4477060000000 1.0
C      1  0.5341080000000  0.4472580000000  0.4299020000000 1.0
C      1  0.5317500000000  0.4282360000000  0.5517870000000 1.0
C      1  0.5350080000000  0.5527530000000  0.5724600000000 1.0
C      1  0.5039440000000  0.4598620000000  0.4817420000000 1.0
C      1  0.5065030000000  0.5171240000000  0.4611790000000 1.0
C      1  0.5076510000000  0.5403310000000  0.5148790000000 1.0
C      1  0.5126320000000  0.4852220000000  0.5357590000000 1.0
C      1  0.5005340000000  0.4626030000000  0.5134410000000 1.0
C      1  0.5136940000000  0.5164030000000  0.5367570000000 1.0
C      1  0.5033610000000  0.5386500000000  0.4822900000000 1.0
C      1  0.5100840000000  0.4859530000000  0.4643440000000 1.0
C      1  0.5328100000000  0.5612380000000  0.5241820000000 1.0
C      1  0.5306700000000  0.4758560000000  0.5630260000000 1.0
C      1  0.5293470000000  0.4395650000000  0.4755420000000 1.0
C      1  0.5324860000000  0.5251850000000  0.4407740000000 1.0
C      1  0.5266020000000  0.5634090000000  0.4805740000000 1.0
C      1  0.5297940000000  0.4791460000000  0.4374810000000 1.0
C      1  0.5256870000000  0.4409360000000  0.5208340000000 1.0
C      1  0.5326830000000  0.5215730000000  0.5644940000000 1.0
END
