TITL C-2622960-5345-698 0.000182095406257234 125000 -318.34603958162 0 0 64 (C1) n - 1
REM
REM in /nfs/bkarasulu/CARBON/AIRSS/Generating-Clusters/AIREBO/with-SteepDescent/Higher-Symm/SD-CG/HFTN-CG
REM
REM
REM
REM
REM
REM ./C.cell (b20cbc046b6831c77cfcea5457e17084)
REM
REM compiler GCC version 9.2.1 20190827 (Red Hat 9.2.1-1)
REM options -cpp -mtune=generic -march=x86-64 -g -O0 -fpre-include=/usr/include/finclude/math-vector-fortran.h
REM seed -1219200901 2098340459 1435397872 -511518490 513446247 -443499215 482179901 94397012 963571746 -1462674819 574235511 -1715149138 274572576 -1506031858 -1704802835 1870271602 1521091944 -632264529 1259032914 847715585 -644415597 1346031427 -1744992114 973639912 -62519391 1747548319 -809732273 -1465120554 -1054189395 2138334582 972130937 -587126584 1589773081
REM
CELL 1.54180   50.00000   50.00000   50.00000   90.00000   90.00000   90.00000
LATT -1
SFAC C  
C      1  0.4324350000000  0.5210940000000  0.5473890000000 1.0
C      1  0.5158080000000  0.5080270000000  0.5848780000000 1.0
C      1  0.5818420000000  0.5056170000000  0.5408970000000 1.0
C      1  0.5904040000000  0.5010200000000  0.4723570000000 1.0
C      1  0.5036520000000  0.4863700000000  0.4041340000000 1.0
C      1  0.4398740000000  0.5047210000000  0.4345440000000 1.0
C      1  0.4188790000000  0.4941060000000  0.5033800000000 1.0
C      1  0.5221040000000  0.4418480000000  0.5310970000000 1.0
C      1  0.5348720000000  0.4412890000000  0.5063220000000 1.0
C      1  0.5239850000000  0.4429340000000  0.4770050000000 1.0
C      1  0.4930160000000  0.4435800000000  0.4702850000000 1.0
C      1  0.4717720000000  0.4375050000000  0.4880970000000 1.0
C      1  0.4696270000000  0.4380780000000  0.5167080000000 1.0
C      1  0.4916940000000  0.4473700000000  0.5338990000000 1.0
C      1  0.4469720000000  0.4516450000000  0.4798100000000 1.0
C      1  0.4454120000000  0.4545010000000  0.5254510000000 1.0
C      1  0.4817410000000  0.4638770000000  0.5606850000000 1.0
C      1  0.5358840000000  0.4606430000000  0.5499330000000 1.0
C      1  0.5619170000000  0.4570760000000  0.5071280000000 1.0
C      1  0.5392420000000  0.4282440000000  0.4586300000000 1.0
C      1  0.4866100000000  0.4606920000000  0.4491470000000 1.0
C      1  0.4689970000000  0.4779770000000  0.5184480000000 1.0
C      1  0.5004970000000  0.4795710000000  0.5290370000000 1.0
C      1  0.5306970000000  0.4789080000000  0.5192470000000 1.0
C      1  0.5406040000000  0.4769780000000  0.4896410000000 1.0
C      1  0.5169640000000  0.4755770000000  0.4704550000000 1.0
C      1  0.4647760000000  0.4807270000000  0.4538410000000 1.0
C      1  0.4581010000000  0.4830450000000  0.4866330000000 1.0
C      1  0.5030340000000  0.5319240000000  0.5373280000000 1.0
C      1  0.5325160000000  0.5263060000000  0.5213340000000 1.0
C      1  0.5338710000000  0.5192070000000  0.4922820000000 1.0
C      1  0.5164210000000  0.5320910000000  0.4660970000000 1.0
C      1  0.4825170000000  0.5296720000000  0.4669740000000 1.0
C      1  0.4622600000000  0.5354390000000  0.4936790000000 1.0
C      1  0.4763470000000  0.5206210000000  0.5195210000000 1.0
C      1  0.4712050000000  0.4943840000000  0.5642620000000 1.0
C      1  0.5339850000000  0.4912140000000  0.5612450000000 1.0
C      1  0.5707420000000  0.4894260000000  0.5127520000000 1.0
C      1  0.5506790000000  0.5138280000000  0.4533030000000 1.0
C      1  0.4981010000000  0.4889040000000  0.4338280000000 1.0
C      1  0.4350740000000  0.5222620000000  0.4570260000000 1.0
C      1  0.4299360000000  0.4812660000000  0.5249980000000 1.0
C      1  0.5065930000000  0.5619460000000  0.4531000000000 1.0
C      1  0.4526490000000  0.5439440000000  0.4558590000000 1.0
C      1  0.4486540000000  0.5547520000000  0.5181400000000 1.0
C      1  0.4721650000000  0.5244340000000  0.5763680000000 1.0
C      1  0.5105350000000  0.5652810000000  0.5401670000000 1.0
C      1  0.5532080000000  0.5935490000000  0.4997590000000 1.0
C      1  0.5526340000000  0.5409600000000  0.4516480000000 1.0
C      1  0.5026520000000  0.5023060000000  0.5540450000000 1.0
C      1  0.5485190000000  0.5028580000000  0.5347140000000 1.0
C      1  0.5614540000000  0.5019910000000  0.4823330000000 1.0
C      1  0.5214450000000  0.5020930000000  0.4508410000000 1.0
C      1  0.4726080000000  0.5095690000000  0.4423820000000 1.0
C      1  0.4398180000000  0.5108820000000  0.4854680000000 1.0
C      1  0.4540490000000  0.5020310000000  0.5372750000000 1.0
C      1  0.4874780000000  0.5766760000000  0.4667290000000 1.0
C      1  0.4639940000000  0.5643190000000  0.4758010000000 1.0
C      1  0.4607160000000  0.5595470000000  0.5425590000000 1.0
C      1  0.4785980000000  0.5435270000000  0.5578540000000 1.0
C      1  0.5299700000000  0.5572190000000  0.5204890000000 1.0
C      1  0.5411550000000  0.5694850000000  0.4979580000000 1.0
C      1  0.5397490000000  0.5554880000000  0.4742070000000 1.0
C      1  0.4918860000000  0.4813750000000  0.4831690000000 1.0
END
