TITL C-2622957-9142-498 -2.39563674247949e-09 125000 -182.616565310318 0 0 33 (D2) n - 1
REM
REM in /nfs/bkarasulu/CARBON/AIRSS/Generating-Clusters/AIREBO/with-SteepDescent/Higher-Symm/SD-CG/HFTN-CG
REM
REM
REM
REM
REM
REM ./C.cell (b20cbc046b6831c77cfcea5457e17084)
REM
REM compiler GCC version 9.2.1 20190827 (Red Hat 9.2.1-1)
REM options -cpp -mtune=generic -march=x86-64 -g -O0 -fpre-include=/usr/include/finclude/math-vector-fortran.h
REM seed 560045224 -404874641 1467976086 791529007 -1042545849 -709782732 1458356763 2122456680 539207347 82119924 1022044761 624864041 2018807241 -727039376 -2072658137 1215075767 510097410 -1606738913 1234135904 -1477504415 -1930478599 -527585372 857597130 230292339 -1331940668 2012617768 1647848469 -1428120215 -1024429787 1038360030 1787883070 2119857694 1967103357
REM
CELL 1.54180   50.00000   50.00000   50.00000   90.00000   90.00000   90.00000
LATT -1
SFAC C  
C      1  0.5580280000000  0.5079010000000  0.5271010000000 1.0
C      1  0.4970780000000  0.5356730000000  0.5368750000000 1.0
C      1  0.4436470000000  0.5072240000000  0.4720900000000 1.0
C      1  0.5043250000000  0.5355420000000  0.4621920000000 1.0
C      1  0.4439450000000  0.4929680000000  0.5276040000000 1.0
C      1  0.5049740000000  0.4652390000000  0.5370010000000 1.0
C      1  0.5578700000000  0.4933970000000  0.4716510000000 1.0
C      1  0.4971130000000  0.4650350000000  0.4623790000000 1.0
C      1  0.5455970000000  0.5176160000000  0.4817640000000 1.0
C      1  0.5176930000000  0.4821450000000  0.5184160000000 1.0
C      1  0.4559820000000  0.5172610000000  0.5173840000000 1.0
C      1  0.4842300000000  0.4818990000000  0.4808890000000 1.0
C      1  0.4560030000000  0.4830500000000  0.4822090000000 1.0
C      1  0.4842070000000  0.5186840000000  0.5184720000000 1.0
C      1  0.5459080000000  0.4835630000000  0.5170900000000 1.0
C      1  0.5173600000000  0.5187610000000  0.4806700000000 1.0
C      1  0.4954460000000  0.4707870000000  0.4360000000000 1.0
C      1  0.5579580000000  0.4742320000000  0.4928180000000 1.0
C      1  0.5065850000000  0.4711240000000  0.5633540000000 1.0
C      1  0.4440430000000  0.4737100000000  0.5065230000000 1.0
C      1  0.5057760000000  0.5296720000000  0.4358250000000 1.0
C      1  0.4437330000000  0.5264830000000  0.4931710000000 1.0
C      1  0.4956840000000  0.5299060000000  0.5632670000000 1.0
C      1  0.5577560000000  0.5270640000000  0.5059360000000 1.0
C      1  0.4919440000000  0.4431290000000  0.5285130000000 1.0
C      1  0.4350150000000  0.4892110000000  0.5525810000000 1.0
C      1  0.5103570000000  0.4430910000000  0.4709640000000 1.0
C      1  0.5668370000000  0.4896150000000  0.4466910000000 1.0
C      1  0.5100380000000  0.5577440000000  0.5281820000000 1.0
C      1  0.5671640000000  0.5117700000000  0.5519880000000 1.0
C      1  0.4911520000000  0.5575250000000  0.4707870000000 1.0
C      1  0.4344750000000  0.5108940000000  0.4471870000000 1.0
C      1  0.5008730000000  0.5003720000000  0.4996120000000 1.0
END
