TITL C-2622960-5345-273 0.00198171795252307 125000 -396.819287245798 0 0 78 (C1) n - 1
REM
REM in /nfs/bkarasulu/CARBON/AIRSS/Generating-Clusters/AIREBO/with-SteepDescent/Higher-Symm/SD-CG/HFTN-CG
REM
REM
REM
REM
REM
REM ./C.cell (b20cbc046b6831c77cfcea5457e17084)
REM
REM compiler GCC version 9.2.1 20190827 (Red Hat 9.2.1-1)
REM options -cpp -mtune=generic -march=x86-64 -g -O0 -fpre-include=/usr/include/finclude/math-vector-fortran.h
REM seed 740076697 1146698492 873607459 -1159761873 -1996660422 2102276572 766455861 -649248355 -1155774616 1497470907 -588758692 -1476494988 -406311689 -770766483 2032535878 1327726135 -1500129472 1277687141 786240778 210612513 130512519 307430387 -518617332 -79404423 1932422604 -891127095 -1192610184 106703571 -2069956537 1636115032 -402118957 -928097190 -1971939283
REM
CELL 1.54180   50.00000   50.00000   50.00000   90.00000   90.00000   90.00000
LATT -1
SFAC C  
C      1  0.5220640000000  0.4212670000000  0.4852180000000 1.0
C      1  0.4366320000000  0.4525570000000  0.4809830000000 1.0
C      1  0.4340800000000  0.5407020000000  0.4803820000000 1.0
C      1  0.5256890000000  0.5824780000000  0.4899030000000 1.0
C      1  0.5769650000000  0.5024720000000  0.4804560000000 1.0
C      1  0.5489210000000  0.5264270000000  0.4651220000000 1.0
C      1  0.5417600000000  0.4607480000000  0.4691180000000 1.0
C      1  0.4804770000000  0.4542460000000  0.4644480000000 1.0
C      1  0.4493130000000  0.5036760000000  0.4621940000000 1.0
C      1  0.4838310000000  0.5544700000000  0.4708260000000 1.0
C      1  0.4314840000000  0.5432180000000  0.4522570000000 1.0
C      1  0.5223740000000  0.5648770000000  0.4625650000000 1.0
C      1  0.5793930000000  0.5042920000000  0.4517400000000 1.0
C      1  0.5253150000000  0.4234710000000  0.4571430000000 1.0
C      1  0.4402860000000  0.4547110000000  0.4535640000000 1.0
C      1  0.4182750000000  0.4979690000000  0.5275420000000 1.0
C      1  0.4750200000000  0.5771760000000  0.5210670000000 1.0
C      1  0.5652090000000  0.5462600000000  0.5266400000000 1.0
C      1  0.5623430000000  0.4539660000000  0.5233690000000 1.0
C      1  0.4729240000000  0.4188290000000  0.5273700000000 1.0
C      1  0.5348640000000  0.5273720000000  0.4362120000000 1.0
C      1  0.5446420000000  0.4669450000000  0.4356220000000 1.0
C      1  0.4865330000000  0.4482130000000  0.4312230000000 1.0
C      1  0.4476020000000  0.4989350000000  0.4285690000000 1.0
C      1  0.4833950000000  0.5440490000000  0.4383720000000 1.0
C      1  0.4496100000000  0.4878850000000  0.5360560000000 1.0
C      1  0.4731250000000  0.5447730000000  0.5300370000000 1.0
C      1  0.5335580000000  0.5362500000000  0.5340060000000 1.0
C      1  0.5411940000000  0.4793110000000  0.5315200000000 1.0
C      1  0.4933170000000  0.4449020000000  0.5327900000000 1.0
C      1  0.5229040000000  0.5086850000000  0.4694370000000 1.0
C      1  0.5232180000000  0.4824460000000  0.4545010000000 1.0
C      1  0.4966390000000  0.4765020000000  0.4444540000000 1.0
C      1  0.4788600000000  0.5040570000000  0.4526950000000 1.0
C      1  0.4987830000000  0.5274360000000  0.4621960000000 1.0
C      1  0.4727050000000  0.5200340000000  0.5086010000000 1.0
C      1  0.5111060000000  0.5313230000000  0.5101360000000 1.0
C      1  0.5331440000000  0.4972080000000  0.5074280000000 1.0
C      1  0.5084270000000  0.4665350000000  0.5125070000000 1.0
C      1  0.4712150000000  0.4804950000000  0.5124550000000 1.0
C      1  0.5016140000000  0.4385590000000  0.4944440000000 1.0
C      1  0.4406960000000  0.4748270000000  0.4993180000000 1.0
C      1  0.4612980000000  0.5416460000000  0.4876840000000 1.0
C      1  0.5325930000000  0.5505000000000  0.4920220000000 1.0
C      1  0.5533070000000  0.4872340000000  0.4840190000000 1.0
C      1  0.5003960000000  0.5635760000000  0.5391610000000 1.0
C      1  0.5598050000000  0.5143700000000  0.5361700000000 1.0
C      1  0.5327270000000  0.4471000000000  0.5385980000000 1.0
C      1  0.4600280000000  0.4493760000000  0.5349010000000 1.0
C      1  0.4418000000000  0.5210460000000  0.5355360000000 1.0
C      1  0.5073430000000  0.5870100000000  0.5150670000000 1.0
C      1  0.5793500000000  0.5204060000000  0.5090010000000 1.0
C      1  0.5371130000000  0.4240120000000  0.5140150000000 1.0
C      1  0.4484770000000  0.4356660000000  0.5060050000000 1.0
C      1  0.4239220000000  0.5245420000000  0.5068190000000 1.0
C      1  0.5164530000000  0.5521500000000  0.4370280000000 1.0
C      1  0.5544510000000  0.4995720000000  0.4363490000000 1.0
C      1  0.5196050000000  0.4442380000000  0.4396990000000 1.0
C      1  0.4584150000000  0.4671820000000  0.4344380000000 1.0
C      1  0.4516810000000  0.5321890000000  0.4344920000000 1.0
C      1  0.5050390000000  0.5315690000000  0.5496480000000 1.0
C      1  0.5352800000000  0.5005250000000  0.5538010000000 1.0
C      1  0.5091390000000  0.4663670000000  0.5524540000000 1.0
C      1  0.4750850000000  0.4748140000000  0.5517080000000 1.0
C      1  0.4723210000000  0.5187900000000  0.5503640000000 1.0
C      1  0.4467680000000  0.5047900000000  0.4922460000000 1.0
C      1  0.4947290000000  0.5593330000000  0.4998690000000 1.0
C      1  0.5484810000000  0.5240760000000  0.4981250000000 1.0
C      1  0.5375310000000  0.4549280000000  0.4999630000000 1.0
C      1  0.4740410000000  0.4534210000000  0.4949010000000 1.0
C      1  0.4949840000000  0.4929000000000  0.4807260000000 1.0
C      1  0.4874730000000  0.4988440000000  0.4201940000000 1.0
C      1  0.5039470000000  0.5048400000000  0.6277740000000 1.0
C      1  0.5135690000000  0.5014820000000  0.5767670000000 1.0
C      1  0.4995170000000  0.4993810000000  0.5121390000000 1.0
C      1  0.5088460000000  0.5018720000000  0.6022000000000 1.0
C      1  0.4991090000000  0.4982590000000  0.5461440000000 1.0
C      1  0.4914790000000  0.5037440000000  0.3954920000000 1.0
END
