TITL C-2622964-2985-317 0.000590377691915656 125000 -444.713554660048 0 0 81 (C1) n - 1
REM
REM in /nfs/bkarasulu/CARBON/AIRSS/Generating-Clusters/AIREBO/with-SteepDescent/Higher-Symm/SD-CG/HFTN-CG
REM
REM
REM
REM
REM
REM ./C.cell (b20cbc046b6831c77cfcea5457e17084)
REM
REM compiler GCC version 9.2.1 20190827 (Red Hat 9.2.1-1)
REM options -cpp -mtune=generic -march=x86-64 -g -O0 -fpre-include=/usr/include/finclude/math-vector-fortran.h
REM seed -1194726110 994911063 -88699984 -1838205095 1081006931 1339173882 -1831810285 -1902795229 -601320785 666692263 -1301699022 -600825433 2010182816 1673217527 2064509435 1343305648 1791204480 2081531971 251683092 450763369 -775580177 -2093715327 1907880895 -2054826040 -1042676742 -1213271836 -885504421 -1711100502 1043227794 -2062192041 1437666642 -1294370830 226651894
REM
CELL 1.54180   50.00000   50.00000   50.00000   90.00000   90.00000   90.00000
LATT -1
SFAC C  
C      1  0.5075660000000  0.4714980000000  0.6185690000000 1.0
C      1  0.5373710000000  0.5222140000000  0.5965680000000 1.0
C      1  0.4528520000000  0.4870920000000  0.4514210000000 1.0
C      1  0.4614750000000  0.5315580000000  0.4519630000000 1.0
C      1  0.4304370000000  0.5227110000000  0.4959310000000 1.0
C      1  0.4411520000000  0.4843730000000  0.4981300000000 1.0
C      1  0.4829500000000  0.4796670000000  0.4394200000000 1.0
C      1  0.4935760000000  0.5326220000000  0.4443740000000 1.0
C      1  0.4953200000000  0.4529400000000  0.5106270000000 1.0
C      1  0.4814580000000  0.5474600000000  0.5051250000000 1.0
C      1  0.5087450000000  0.4755850000000  0.5916180000000 1.0
C      1  0.5099340000000  0.5331720000000  0.5856710000000 1.0
C      1  0.5681800000000  0.4709490000000  0.5465020000000 1.0
C      1  0.5592860000000  0.5420660000000  0.5146720000000 1.0
C      1  0.5122800000000  0.5783850000000  0.4688280000000 1.0
C      1  0.5148380000000  0.4262930000000  0.4766150000000 1.0
C      1  0.5058200000000  0.4297060000000  0.4499090000000 1.0
C      1  0.5010630000000  0.5824240000000  0.4429470000000 1.0
C      1  0.4748720000000  0.5361430000000  0.5547040000000 1.0
C      1  0.4777980000000  0.4611290000000  0.5602730000000 1.0
C      1  0.5204260000000  0.4677600000000  0.5047690000000 1.0
C      1  0.5068670000000  0.5347330000000  0.4922410000000 1.0
C      1  0.4976630000000  0.5474020000000  0.5655340000000 1.0
C      1  0.5024630000000  0.4564330000000  0.5718120000000 1.0
C      1  0.5519460000000  0.4739600000000  0.4664280000000 1.0
C      1  0.5508900000000  0.5324500000000  0.4661870000000 1.0
C      1  0.5195420000000  0.4652270000000  0.4719150000000 1.0
C      1  0.5172690000000  0.5388830000000  0.4650340000000 1.0
C      1  0.5395460000000  0.5638630000000  0.4665160000000 1.0
C      1  0.5432750000000  0.4441130000000  0.4822880000000 1.0
C      1  0.5282080000000  0.5311550000000  0.5120070000000 1.0
C      1  0.5436820000000  0.4485390000000  0.5149130000000 1.0
C      1  0.4692840000000  0.5277630000000  0.5234300000000 1.0
C      1  0.4768430000000  0.4652440000000  0.5286590000000 1.0
C      1  0.5482620000000  0.4516070000000  0.5418450000000 1.0
C      1  0.5357220000000  0.5542740000000  0.5338220000000 1.0
C      1  0.4966360000000  0.5597460000000  0.4280000000000 1.0
C      1  0.4938670000000  0.4511980000000  0.4385740000000 1.0
C      1  0.4633670000000  0.5726910000000  0.4988840000000 1.0
C      1  0.4678350000000  0.4179190000000  0.4978010000000 1.0
C      1  0.4936950000000  0.4293740000000  0.4961720000000 1.0
C      1  0.4945100000000  0.5760370000000  0.4902410000000 1.0
C      1  0.4599680000000  0.4914540000000  0.4182620000000 1.0
C      1  0.4640340000000  0.5245500000000  0.4187900000000 1.0
C      1  0.4404580000000  0.4574340000000  0.5146540000000 1.0
C      1  0.4324800000000  0.5416530000000  0.5168390000000 1.0
C      1  0.5157090000000  0.5638990000000  0.5504500000000 1.0
C      1  0.5261630000000  0.4462670000000  0.5592210000000 1.0
C      1  0.4458040000000  0.4329190000000  0.5052640000000 1.0
C      1  0.4383380000000  0.5688630000000  0.5106020000000 1.0
C      1  0.4435220000000  0.5263940000000  0.5451490000000 1.0
C      1  0.4476460000000  0.4684610000000  0.5457900000000 1.0
C      1  0.4323100000000  0.5381190000000  0.4387870000000 1.0
C      1  0.4244020000000  0.4910890000000  0.4365610000000 1.0
C      1  0.4172850000000  0.5168330000000  0.4298490000000 1.0
C      1  0.5612430000000  0.5093750000000  0.5064550000000 1.0
C      1  0.5913390000000  0.5144230000000  0.5476240000000 1.0
C      1  0.4553450000000  0.5093290000000  0.4770300000000 1.0
C      1  0.5047720000000  0.5083070000000  0.5509050000000 1.0
C      1  0.4959950000000  0.4985940000000  0.5195250000000 1.0
C      1  0.5783910000000  0.5039890000000  0.4413600000000 1.0
C      1  0.5382680000000  0.4984840000000  0.4076150000000 1.0
C      1  0.5672930000000  0.5035140000000  0.4735010000000 1.0
C      1  0.4138660000000  0.4994200000000  0.5050440000000 1.0
C      1  0.4848680000000  0.5104810000000  0.4909020000000 1.0
C      1  0.5977910000000  0.4942790000000  0.4834440000000 1.0
C      1  0.5517680000000  0.4989510000000  0.4324710000000 1.0
C      1  0.6003200000000  0.4861680000000  0.5071810000000 1.0
C      1  0.4627980000000  0.4945670000000  0.5195890000000 1.0
C      1  0.5048790000000  0.5032190000000  0.4404550000000 1.0
C      1  0.4842960000000  0.5066880000000  0.4002000000000 1.0
C      1  0.5104360000000  0.5024910000000  0.4095680000000 1.0
C      1  0.5266530000000  0.5031050000000  0.5252370000000 1.0
C      1  0.5169430000000  0.5009050000000  0.5795510000000 1.0
C      1  0.5801400000000  0.4950410000000  0.5301560000000 1.0
C      1  0.5306210000000  0.4992310000000  0.4584540000000 1.0
C      1  0.4163900000000  0.4953870000000  0.6068040000000 1.0
C      1  0.4221210000000  0.4956670000000  0.5819370000000 1.0
C      1  0.5327350000000  0.4966590000000  0.4924050000000 1.0
C      1  0.4072520000000  0.4973530000000  0.5315660000000 1.0
C      1  0.4319270000000  0.4962280000000  0.5528290000000 1.0
END
