TITL C-2622954-8726-800 0.00885465201593234 125000 -514.498722823021 0 0 95 (C1) n - 1
REM
REM in /nfs/bkarasulu/CARBON/AIRSS/Generating-Clusters/AIREBO/with-SteepDescent/Higher-Symm/SD-CG/HFTN-CG
REM
REM
REM
REM
REM
REM ./C.cell (b20cbc046b6831c77cfcea5457e17084)
REM
REM compiler GCC version 9.2.1 20190827 (Red Hat 9.2.1-1)
REM options -cpp -mtune=generic -march=x86-64 -g -O0 -fpre-include=/usr/include/finclude/math-vector-fortran.h
REM seed -1423893353 -549077209 -290688383 1946937931 -356589578 -919958584 -1616245316 1263623107 1015573870 495682247 1264088372 -1936059965 -783315651 -1217222111 -1873839135 -1938527565 1136500675 43802459 200978904 2023429153 -612982725 -1011402920 2126870600 -169945008 1879855776 -922594836 1165561257 -1569625038 -1007739151 -554210892 -1175759708 636023559 897123458
REM
CELL 1.54180   50.00000   50.00000   50.00000   90.00000   90.00000   90.00000
LATT -1
SFAC C  
C      1  0.4560660000000  0.5418660000000  0.5113320000000 1.0
C      1  0.5165570000000  0.4550080000000  0.5618210000000 1.0
C      1  0.5532500000000  0.5109400000000  0.4448040000000 1.0
C      1  0.5608340000000  0.4484710000000  0.5325760000000 1.0
C      1  0.5621230000000  0.5558210000000  0.4725020000000 1.0
C      1  0.4482320000000  0.4403010000000  0.4892500000000 1.0
C      1  0.4781110000000  0.5525020000000  0.5555960000000 1.0
C      1  0.4748580000000  0.4457670000000  0.4427860000000 1.0
C      1  0.5155320000000  0.5499520000000  0.4393380000000 1.0
C      1  0.4563180000000  0.5014290000000  0.4359930000000 1.0
C      1  0.4449520000000  0.5055660000000  0.5480790000000 1.0
C      1  0.5558220000000  0.4883650000000  0.5646300000000 1.0
C      1  0.5789160000000  0.4785780000000  0.4675160000000 1.0
C      1  0.4603980000000  0.5885230000000  0.4884600000000 1.0
C      1  0.4806220000000  0.4761300000000  0.5894300000000 1.0
C      1  0.4073110000000  0.5059450000000  0.4716990000000 1.0
C      1  0.4270680000000  0.4862720000000  0.5275630000000 1.0
C      1  0.5886310000000  0.5259040000000  0.5208590000000 1.0
C      1  0.5248710000000  0.4155740000000  0.4941440000000 1.0
C      1  0.5255070000000  0.5799950000000  0.5224270000000 1.0
C      1  0.4760930000000  0.4133870000000  0.4991440000000 1.0
C      1  0.5177830000000  0.5311370000000  0.5829070000000 1.0
C      1  0.5072310000000  0.4685140000000  0.4189420000000 1.0
C      1  0.4931110000000  0.5434480000000  0.4146150000000 1.0
C      1  0.5274480000000  0.4196200000000  0.4693750000000 1.0
C      1  0.4664150000000  0.5422490000000  0.4123720000000 1.0
C      1  0.4217290000000  0.4600930000000  0.5250880000000 1.0
C      1  0.4614710000000  0.5773500000000  0.4635350000000 1.0
C      1  0.4765620000000  0.4182650000000  0.5255690000000 1.0
C      1  0.5286770000000  0.5649440000000  0.5458800000000 1.0
C      1  0.5324000000000  0.4603870000000  0.4244630000000 1.0
C      1  0.5396040000000  0.5394650000000  0.5747070000000 1.0
C      1  0.4615560000000  0.4794840000000  0.5734300000000 1.0
C      1  0.5720400000000  0.5484030000000  0.5236920000000 1.0
C      1  0.5620660000000  0.4585240000000  0.4760010000000 1.0
C      1  0.4135170000000  0.5301220000000  0.4765500000000 1.0
C      1  0.5015190000000  0.4601650000000  0.5030850000000 1.0
C      1  0.5127300000000  0.5206490000000  0.4561960000000 1.0
C      1  0.4712940000000  0.5002430000000  0.5185450000000 1.0
C      1  0.4877730000000  0.5426210000000  0.5097260000000 1.0
C      1  0.4797660000000  0.4494060000000  0.4822080000000 1.0
C      1  0.5089490000000  0.5251180000000  0.4896930000000 1.0
C      1  0.4856350000000  0.4817870000000  0.4736350000000 1.0
C      1  0.4833270000000  0.5245740000000  0.5369140000000 1.0
C      1  0.5138450000000  0.4864010000000  0.5517990000000 1.0
C      1  0.5259290000000  0.4954210000000  0.5241750000000 1.0
C      1  0.5402210000000  0.5163490000000  0.4757410000000 1.0
C      1  0.4577530000000  0.4919770000000  0.4637060000000 1.0
C      1  0.5361480000000  0.4389600000000  0.5402960000000 1.0
C      1  0.5386340000000  0.5285730000000  0.4244610000000 1.0
C      1  0.4450920000000  0.5362460000000  0.5360950000000 1.0
C      1  0.4646600000000  0.5741410000000  0.5382670000000 1.0
C      1  0.4535780000000  0.4342410000000  0.4562200000000 1.0
C      1  0.5379810000000  0.5632300000000  0.4614310000000 1.0
C      1  0.4694730000000  0.4711460000000  0.4316560000000 1.0
C      1  0.4602860000000  0.5268460000000  0.5690610000000 1.0
C      1  0.5366920000000  0.4742870000000  0.5812900000000 1.0
C      1  0.5724070000000  0.4699360000000  0.5492230000000 1.0
C      1  0.5735410000000  0.5326870000000  0.4612970000000 1.0
C      1  0.4253170000000  0.4563970000000  0.4744080000000 1.0
C      1  0.4310630000000  0.4860220000000  0.4775420000000 1.0
C      1  0.4876280000000  0.4187080000000  0.4698510000000 1.0
C      1  0.4939860000000  0.4892320000000  0.4413390000000 1.0
C      1  0.5724550000000  0.5060050000000  0.4793840000000 1.0
C      1  0.5582110000000  0.4858660000000  0.5193530000000 1.0
C      1  0.4410570000000  0.5057090000000  0.5034070000000 1.0
C      1  0.5118370000000  0.5571060000000  0.4785040000000 1.0
C      1  0.5160800000000  0.4353870000000  0.5156120000000 1.0
C      1  0.4779170000000  0.5752160000000  0.5097900000000 1.0
C      1  0.5077890000000  0.5143370000000  0.4230080000000 1.0
C      1  0.5081480000000  0.4924010000000  0.5849830000000 1.0
C      1  0.4921790000000  0.5179510000000  0.5692260000000 1.0
C      1  0.5069290000000  0.5634870000000  0.5621830000000 1.0
C      1  0.5451370000000  0.5102380000000  0.5480250000000 1.0
C      1  0.5693780000000  0.5626680000000  0.4993100000000 1.0
C      1  0.4968670000000  0.4379060000000  0.5427640000000 1.0
C      1  0.4884720000000  0.5606280000000  0.4569450000000 1.0
C      1  0.5068260000000  0.4417860000000  0.4538800000000 1.0
C      1  0.4634610000000  0.4777810000000  0.5416120000000 1.0
C      1  0.4538710000000  0.5291360000000  0.4338700000000 1.0
C      1  0.5510920000000  0.4816770000000  0.4390490000000 1.0
C      1  0.4419360000000  0.4427870000000  0.5182150000000 1.0
C      1  0.4441860000000  0.5334530000000  0.4839670000000 1.0
C      1  0.5618680000000  0.4567390000000  0.5036430000000 1.0
C      1  0.4839610000000  0.3947890000000  0.4517510000000 1.0
C      1  0.5067600000000  0.5010270000000  0.3960080000000 1.0
C      1  0.4138940000000  0.5220840000000  0.5156780000000 1.0
C      1  0.5084130000000  0.5758510000000  0.5022300000000 1.0
C      1  0.5146400000000  0.5038260000000  0.6118280000000 1.0
C      1  0.5773490000000  0.5050690000000  0.5083890000000 1.0
C      1  0.4665450000000  0.4489420000000  0.5354180000000 1.0
C      1  0.5377850000000  0.4556810000000  0.4566060000000 1.0
C      1  0.4587300000000  0.5443530000000  0.4598930000000 1.0
C      1  0.5511270000000  0.5426990000000  0.5442010000000 1.0
C      1  0.5003920000000  0.4944080000000  0.5015570000000 1.0
END
