TITL C-2622953-3516-127 2.43779025506509e-07 125000 -174.557831495123 0 0 30 (C1) n - 1
REM
REM in /nfs/bkarasulu/CARBON/AIRSS/Generating-Clusters/AIREBO/with-SteepDescent/Higher-Symm/SD-CG/HFTN-CG
REM
REM
REM
REM
REM
REM ./C.cell (b20cbc046b6831c77cfcea5457e17084)
REM
REM compiler GCC version 9.2.1 20190827 (Red Hat 9.2.1-1)
REM options -cpp -mtune=generic -march=x86-64 -g -O0 -fpre-include=/usr/include/finclude/math-vector-fortran.h
REM seed -1874199236 1544974564 489085335 763856721 -1275839328 -995310957 1130861481 1821789305 -2084305047 -2079041695 156443675 -1687910692 -1433779264 192765948 1642250886 -318825042 521893943 -815134599 -645796794 -577476841 440355876 1750272692 -1994842355 808766423 -23694579 336751775 1557753626 371121749 175813853 1782884719 -1099233767 -1015950487 -22122096
REM
CELL 1.54180   50.00000   50.00000   50.00000   90.00000   90.00000   90.00000
LATT -1
SFAC C  
C      1  0.5484080000000  0.4932170000000  0.5299550000000 1.0
C      1  0.4890380000000  0.5312000000000  0.5500450000000 1.0
C      1  0.5321340000000  0.5510400000000  0.4889810000000 1.0
C      1  0.5496640000000  0.5096360000000  0.4665820000000 1.0
C      1  0.4475210000000  0.4908300000000  0.4674990000000 1.0
C      1  0.4489630000000  0.5078950000000  0.5299700000000 1.0
C      1  0.4902860000000  0.4700600000000  0.4490910000000 1.0
C      1  0.5090850000000  0.5328620000000  0.4480880000000 1.0
C      1  0.5079850000000  0.4693480000000  0.5500000000000 1.0
C      1  0.5311390000000  0.4494450000000  0.5100670000000 1.0
C      1  0.4690660000000  0.5486070000000  0.5064460000000 1.0
C      1  0.4682280000000  0.4508590000000  0.4914790000000 1.0
C      1  0.5503500000000  0.5311800000000  0.4898450000000 1.0
C      1  0.4897520000000  0.5497250000000  0.5306620000000 1.0
C      1  0.5298760000000  0.4921100000000  0.5492680000000 1.0
C      1  0.5501290000000  0.4685930000000  0.5097670000000 1.0
C      1  0.4481050000000  0.4685280000000  0.4899830000000 1.0
C      1  0.4494960000000  0.5303740000000  0.5077000000000 1.0
C      1  0.4893760000000  0.4506960000000  0.4677670000000 1.0
C      1  0.5069760000000  0.4506390000000  0.5307990000000 1.0
C      1  0.5084670000000  0.5512510000000  0.4678010000000 1.0
C      1  0.5298590000000  0.5087990000000  0.4483400000000 1.0
C      1  0.4674030000000  0.5079800000000  0.5493010000000 1.0
C      1  0.4665810000000  0.4912600000000  0.4486160000000 1.0
C      1  0.5005720000000  0.4481570000000  0.4984090000000 1.0
C      1  0.5013870000000  0.5522780000000  0.5002160000000 1.0
C      1  0.4414030000000  0.4996320000000  0.4988140000000 1.0
C      1  0.4973140000000  0.5023670000000  0.4464190000000 1.0
C      1  0.5518570000000  0.4988710000000  0.4974860000000 1.0
C      1  0.4987190000000  0.5003840000000  0.5567300000000 1.0
END
