TITL C-2622958-629-24 -0.000914129006669863 125000 -367.034513738742 0 0 64 (C1) n - 1
REM
REM in /nfs/bkarasulu/CARBON/AIRSS/Generating-Clusters/AIREBO/with-SteepDescent/Higher-Symm/SD-CG/HFTN-CG
REM
REM
REM
REM
REM
REM ./C.cell (b20cbc046b6831c77cfcea5457e17084)
REM
REM compiler GCC version 9.2.1 20190827 (Red Hat 9.2.1-1)
REM options -cpp -mtune=generic -march=x86-64 -g -O0 -fpre-include=/usr/include/finclude/math-vector-fortran.h
REM seed -18760792 1966590358 -1318381046 272717406 1465116457 811103227 -1033339533 -1237118299 911744441 -852213786 -1976777271 -34081489 -521699240 -1848838646 -66658026 1938872058 -725621019 -1694408049 1072574968 -1510477998 1858955505 2119175934 -1064129988 -156266690 -281752852 563453002 740305744 -1508919285 1044344739 -605397413 1171843739 1535229751 417440589
REM
CELL 1.54180   50.00000   50.00000   50.00000   90.00000   90.00000   90.00000
LATT -1
SFAC C  
C      1  0.4933130000000  0.4821390000000  0.5910290000000 1.0
C      1  0.5592480000000  0.4690240000000  0.5571820000000 1.0
C      1  0.5752580000000  0.4662980000000  0.4716910000000 1.0
C      1  0.5520150000000  0.4728370000000  0.4249130000000 1.0
C      1  0.4793200000000  0.4786480000000  0.4096780000000 1.0
C      1  0.4276670000000  0.4660380000000  0.4712000000000 1.0
C      1  0.4252970000000  0.4816190000000  0.5542270000000 1.0
C      1  0.4484080000000  0.4705420000000  0.5168470000000 1.0
C      1  0.4717170000000  0.4679310000000  0.5415280000000 1.0
C      1  0.5039750000000  0.4784520000000  0.5400270000000 1.0
C      1  0.5286820000000  0.4702200000000  0.5181240000000 1.0
C      1  0.5306050000000  0.4833090000000  0.4874390000000 1.0
C      1  0.5136950000000  0.4731420000000  0.4597310000000 1.0
C      1  0.4792120000000  0.4721750000000  0.4601280000000 1.0
C      1  0.4684020000000  0.4473150000000  0.5076390000000 1.0
C      1  0.4819490000000  0.4372360000000  0.5323590000000 1.0
C      1  0.5081360000000  0.4277500000000  0.5325590000000 1.0
C      1  0.5264390000000  0.4397910000000  0.5147020000000 1.0
C      1  0.5247770000000  0.4316370000000  0.4877130000000 1.0
C      1  0.5057690000000  0.4448720000000  0.4718330000000 1.0
C      1  0.4782180000000  0.4471680000000  0.4822840000000 1.0
C      1  0.4622340000000  0.4980310000000  0.5155600000000 1.0
C      1  0.4873790000000  0.5013510000000  0.5263540000000 1.0
C      1  0.5062290000000  0.5177350000000  0.5136910000000 1.0
C      1  0.5155010000000  0.5097500000000  0.4891700000000 1.0
C      1  0.4980940000000  0.5156860000000  0.4684260000000 1.0
C      1  0.4745000000000  0.5012920000000  0.4703170000000 1.0
C      1  0.4571860000000  0.5089930000000  0.4902850000000 1.0
C      1  0.4637250000000  0.4881120000000  0.4343830000000 1.0
C      1  0.4211090000000  0.4689480000000  0.5009580000000 1.0
C      1  0.4519530000000  0.4907960000000  0.5537360000000 1.0
C      1  0.5139480000000  0.4880550000000  0.5688070000000 1.0
C      1  0.5540690000000  0.4813520000000  0.5325340000000 1.0
C      1  0.5598110000000  0.4876450000000  0.4793210000000 1.0
C      1  0.5249690000000  0.4855270000000  0.4327220000000 1.0
C      1  0.5399840000000  0.4720440000000  0.5763780000000 1.0
C      1  0.5906520000000  0.4456380000000  0.4668910000000 1.0
C      1  0.5743440000000  0.4637500000000  0.4165300000000 1.0
C      1  0.5043370000000  0.4794300000000  0.4100790000000 1.0
C      1  0.4394390000000  0.4747830000000  0.4515110000000 1.0
C      1  0.4122350000000  0.4693310000000  0.5337800000000 1.0
C      1  0.4784500000000  0.4785230000000  0.6114730000000 1.0
C      1  0.5685180000000  0.5139750000000  0.4809840000000 1.0
C      1  0.5284950000000  0.5170840000000  0.4375830000000 1.0
C      1  0.4649270000000  0.5199890000000  0.4363510000000 1.0
C      1  0.3896390000000  0.4772930000000  0.5069300000000 1.0
C      1  0.4598140000000  0.5178180000000  0.5501630000000 1.0
C      1  0.5193300000000  0.5193620000000  0.5666650000000 1.0
C      1  0.5576240000000  0.5088880000000  0.5312160000000 1.0
C      1  0.4768860000000  0.5441640000000  0.4402420000000 1.0
C      1  0.3663470000000  0.4890420000000  0.5056710000000 1.0
C      1  0.4652950000000  0.5442510000000  0.5544380000000 1.0
C      1  0.5158640000000  0.5446480000000  0.5595840000000 1.0
C      1  0.5618270000000  0.5353620000000  0.5274340000000 1.0
C      1  0.5671080000000  0.5410620000000  0.4779390000000 1.0
C      1  0.5256600000000  0.5404700000000  0.4448560000000 1.0
C      1  0.5471390000000  0.5580310000000  0.4887460000000 1.0
C      1  0.5238460000000  0.5630520000000  0.4702120000000 1.0
C      1  0.4922470000000  0.5577980000000  0.4581470000000 1.0
C      1  0.4908370000000  0.5722450000000  0.5128660000000 1.0
C      1  0.4902570000000  0.5597560000000  0.5432590000000 1.0
C      1  0.5231780000000  0.5613300000000  0.5335270000000 1.0
C      1  0.5441790000000  0.5550290000000  0.5167070000000 1.0
C      1  0.4956830000000  0.5703410000000  0.4871770000000 1.0
END
