TITL C-2622954-8726-456 -0.00205125962300092 125000 -860.851406105884 0 0 162 (C1) n - 1
REM
REM in /nfs/bkarasulu/CARBON/AIRSS/Generating-Clusters/AIREBO/with-SteepDescent/Higher-Symm/SD-CG/HFTN-CG
REM
REM
REM
REM
REM
REM ./C.cell (b20cbc046b6831c77cfcea5457e17084)
REM
REM compiler GCC version 9.2.1 20190827 (Red Hat 9.2.1-1)
REM options -cpp -mtune=generic -march=x86-64 -g -O0 -fpre-include=/usr/include/finclude/math-vector-fortran.h
REM seed 1073690490 -933571600 945264526 -977967504 -1310519726 -1526598726 982801410 580011073 1321407641 1695189009 -1581087291 -1538739311 -2091160040 -365599442 980435393 -869202024 -794302091 2039978218 -1868753755 1706198278 1330722764 -428600099 -1437641333 -1621443976 741392775 -216337917 1927823788 570882080 -508536048 1102249375 29517023 -647169497 587791575
REM
CELL 1.54180   50.00000   50.00000   50.00000   90.00000   90.00000   90.00000
LATT -1
SFAC C  
C      1  0.4846180000000  0.3837400000000  0.4926200000000 1.0
C      1  0.5864210000000  0.4202260000000  0.4976850000000 1.0
C      1  0.6066040000000  0.5110370000000  0.4920460000000 1.0
C      1  0.5540420000000  0.5955790000000  0.4973580000000 1.0
C      1  0.4585590000000  0.6082650000000  0.4798290000000 1.0
C      1  0.3919740000000  0.5395210000000  0.4915350000000 1.0
C      1  0.4099370000000  0.4461480000000  0.4941130000000 1.0
C      1  0.5449860000000  0.5620110000000  0.4228270000000 1.0
C      1  0.4812980000000  0.5648770000000  0.4067040000000 1.0
C      1  0.4285370000000  0.5399780000000  0.4193730000000 1.0
C      1  0.4405220000000  0.4647000000000  0.4213470000000 1.0
C      1  0.4892310000000  0.4284430000000  0.4179600000000 1.0
C      1  0.5559820000000  0.4397380000000  0.4212220000000 1.0
C      1  0.5684610000000  0.5092140000000  0.4193490000000 1.0
C      1  0.5543810000000  0.4318740000000  0.5443610000000 1.0
C      1  0.5791760000000  0.4935990000000  0.5442110000000 1.0
C      1  0.5318140000000  0.5878380000000  0.5461510000000 1.0
C      1  0.4703330000000  0.5814040000000  0.5576000000000 1.0
C      1  0.4242010000000  0.5382090000000  0.5590000000000 1.0
C      1  0.4298050000000  0.4542760000000  0.5529340000000 1.0
C      1  0.4827560000000  0.4177160000000  0.5625010000000 1.0
C      1  0.4705040000000  0.5096540000000  0.5278810000000 1.0
C      1  0.4680580000000  0.4772410000000  0.5373030000000 1.0
C      1  0.4976790000000  0.4691530000000  0.5227000000000 1.0
C      1  0.5345800000000  0.4802700000000  0.5325480000000 1.0
C      1  0.5396700000000  0.5092210000000  0.5441930000000 1.0
C      1  0.5227070000000  0.5273120000000  0.5298980000000 1.0
C      1  0.4928590000000  0.5268600000000  0.5392600000000 1.0
C      1  0.5293880000000  0.4344750000000  0.4690780000000 1.0
C      1  0.5679320000000  0.4838130000000  0.4562470000000 1.0
C      1  0.5489590000000  0.5356440000000  0.4655550000000 1.0
C      1  0.4954540000000  0.5661310000000  0.4608820000000 1.0
C      1  0.4554500000000  0.5418440000000  0.4691290000000 1.0
C      1  0.4367250000000  0.4895380000000  0.4550510000000 1.0
C      1  0.4711490000000  0.4387880000000  0.4663470000000 1.0
C      1  0.5424020000000  0.6136280000000  0.5454080000000 1.0
C      1  0.4601490000000  0.6080600000000  0.5546960000000 1.0
C      1  0.3979530000000  0.5494600000000  0.5567370000000 1.0
C      1  0.4029410000000  0.4407750000000  0.5512730000000 1.0
C      1  0.4831990000000  0.3888420000000  0.5638010000000 1.0
C      1  0.5724110000000  0.4081110000000  0.5538900000000 1.0
C      1  0.6107660000000  0.4937960000000  0.5437210000000 1.0
C      1  0.5475440000000  0.5658020000000  0.4547480000000 1.0
C      1  0.4791570000000  0.5813420000000  0.4348390000000 1.0
C      1  0.4264930000000  0.5418480000000  0.4513090000000 1.0
C      1  0.4252510000000  0.4607090000000  0.4488540000000 1.0
C      1  0.4864970000000  0.4164240000000  0.4480510000000 1.0
C      1  0.5579370000000  0.4358860000000  0.4528570000000 1.0
C      1  0.5864500000000  0.5070510000000  0.4450710000000 1.0
C      1  0.4273950000000  0.4203540000000  0.4895440000000 1.0
C      1  0.5118910000000  0.3929380000000  0.4866680000000 1.0
C      1  0.5968180000000  0.4436300000000  0.4860100000000 1.0
C      1  0.5926660000000  0.5406010000000  0.4949090000000 1.0
C      1  0.5250820000000  0.5989350000000  0.4914170000000 1.0
C      1  0.4375270000000  0.5852930000000  0.4812980000000 1.0
C      1  0.3979390000000  0.5122770000000  0.4854330000000 1.0
C      1  0.5737040000000  0.4952930000000  0.5098150000000 1.0
C      1  0.5449910000000  0.5666880000000  0.5234850000000 1.0
C      1  0.4944910000000  0.5669880000000  0.5094270000000 1.0
C      1  0.4412610000000  0.5477610000000  0.5082220000000 1.0
C      1  0.4328800000000  0.4671050000000  0.5214820000000 1.0
C      1  0.4784160000000  0.4353200000000  0.4984470000000 1.0
C      1  0.5280140000000  0.4224180000000  0.5251250000000 1.0
C      1  0.5364350000000  0.4740710000000  0.5033040000000 1.0
C      1  0.5261260000000  0.4968800000000  0.4837240000000 1.0
C      1  0.5281970000000  0.5275320000000  0.4987380000000 1.0
C      1  0.4973850000000  0.5245760000000  0.4856720000000 1.0
C      1  0.4671090000000  0.5204000000000  0.5006000000000 1.0
C      1  0.4699790000000  0.4745570000000  0.5034580000000 1.0
C      1  0.5058910000000  0.4631250000000  0.4902400000000 1.0
C      1  0.4375260000000  0.4499650000000  0.5857840000000 1.0
C      1  0.5174320000000  0.4195020000000  0.5767280000000 1.0
C      1  0.5684930000000  0.4428500000000  0.5732930000000 1.0
C      1  0.5659070000000  0.5523380000000  0.5709260000000 1.0
C      1  0.5190130000000  0.5796570000000  0.5765720000000 1.0
C      1  0.4605120000000  0.5645820000000  0.5854960000000 1.0
C      1  0.4257450000000  0.5137340000000  0.5825810000000 1.0
C      1  0.5752200000000  0.5274770000000  0.5454350000000 1.0
C      1  0.4999610000000  0.5768520000000  0.5415140000000 1.0
C      1  0.4483200000000  0.5582800000000  0.5458750000000 1.0
C      1  0.4300090000000  0.5121480000000  0.5398390000000 1.0
C      1  0.4534660000000  0.4305450000000  0.5469820000000 1.0
C      1  0.5096470000000  0.4309780000000  0.5486110000000 1.0
C      1  0.5692800000000  0.4616030000000  0.5382640000000 1.0
C      1  0.5601400000000  0.4059150000000  0.4627400000000 1.0
C      1  0.6093430000000  0.4882140000000  0.4573810000000 1.0
C      1  0.5712800000000  0.5786950000000  0.4657690000000 1.0
C      1  0.4800870000000  0.6071750000000  0.4550000000000 1.0
C      1  0.4102100000000  0.5639940000000  0.4614130000000 1.0
C      1  0.3980970000000  0.4682840000000  0.4631570000000 1.0
C      1  0.4612550000000  0.4005160000000  0.4602940000000 1.0
C      1  0.4921420000000  0.5776920000000  0.5834440000000 1.0
C      1  0.4403620000000  0.5445560000000  0.5882470000000 1.0
C      1  0.4258140000000  0.4802830000000  0.5745510000000 1.0
C      1  0.4621730000000  0.4317790000000  0.5855870000000 1.0
C      1  0.5452620000000  0.4227300000000  0.5802650000000 1.0
C      1  0.5797600000000  0.4749780000000  0.5736360000000 1.0
C      1  0.5491950000000  0.5724430000000  0.5791960000000 1.0
C      1  0.5024760000000  0.5999470000000  0.5166770000000 1.0
C      1  0.4249800000000  0.5710980000000  0.5247300000000 1.0
C      1  0.4225920000000  0.4974440000000  0.5140280000000 1.0
C      1  0.4561850000000  0.4207770000000  0.5192550000000 1.0
C      1  0.5356860000000  0.3999630000000  0.5036460000000 1.0
C      1  0.5924970000000  0.4678480000000  0.5168820000000 1.0
C      1  0.5732340000000  0.5478150000000  0.5218630000000 1.0
C      1  0.4990480000000  0.5327020000000  0.4558060000000 1.0
C      1  0.4711200000000  0.5207460000000  0.4499870000000 1.0
C      1  0.4678910000000  0.4905000000000  0.4478750000000 1.0
C      1  0.4885230000000  0.4667030000000  0.4611740000000 1.0
C      1  0.5206910000000  0.4611410000000  0.4517230000000 1.0
C      1  0.5362830000000  0.4893780000000  0.4521500000000 1.0
C      1  0.5283140000000  0.5210790000000  0.4475730000000 1.0
C      1  0.6013280000000  0.4778170000000  0.4867820000000 1.0
C      1  0.5775090000000  0.5709560000000  0.4972600000000 1.0
C      1  0.4915650000000  0.6019780000000  0.4855520000000 1.0
C      1  0.4116100000000  0.5672540000000  0.4940250000000 1.0
C      1  0.4034750000000  0.4795850000000  0.4939290000000 1.0
C      1  0.4562980000000  0.4025990000000  0.4925810000000 1.0
C      1  0.5616730000000  0.4046750000000  0.4912980000000 1.0
C      1  0.5735180000000  0.4569090000000  0.4672200000000 1.0
C      1  0.5798920000000  0.5270850000000  0.4671790000000 1.0
C      1  0.5222700000000  0.5736140000000  0.4712410000000 1.0
C      1  0.4621160000000  0.5725030000000  0.4629020000000 1.0
C      1  0.4253160000000  0.5142040000000  0.4669520000000 1.0
C      1  0.4392650000000  0.4420760000000  0.4672670000000 1.0
C      1  0.5118900000000  0.4095310000000  0.4636430000000 1.0
C      1  0.5484450000000  0.4748490000000  0.5616480000000 1.0
C      1  0.5547750000000  0.5224470000000  0.5699900000000 1.0
C      1  0.5109490000000  0.5488810000000  0.5525010000000 1.0
C      1  0.4632600000000  0.5315660000000  0.5529400000000 1.0
C      1  0.4470790000000  0.4936760000000  0.5560150000000 1.0
C      1  0.4687920000000  0.4550180000000  0.5616610000000 1.0
C      1  0.5125130000000  0.4605960000000  0.5485090000000 1.0
C      1  0.4492830000000  0.4528440000000  0.4966320000000 1.0
C      1  0.5120100000000  0.4315270000000  0.4979380000000 1.0
C      1  0.5649980000000  0.4649390000000  0.4970950000000 1.0
C      1  0.5602320000000  0.5176050000000  0.4931290000000 1.0
C      1  0.5251260000000  0.5599760000000  0.5002720000000 1.0
C      1  0.4719920000000  0.5534470000000  0.4965110000000 1.0
C      1  0.4358740000000  0.5182100000000  0.4958790000000 1.0
C      1  0.5255890000000  0.4391110000000  0.4298510000000 1.0
C      1  0.5457250000000  0.4904030000000  0.4194920000000 1.0
C      1  0.5344660000000  0.5301350000000  0.4193470000000 1.0
C      1  0.4991410000000  0.5466690000000  0.4263040000000 1.0
C      1  0.4599390000000  0.5403440000000  0.4296630000000 1.0
C      1  0.4504700000000  0.4918930000000  0.4180030000000 1.0
C      1  0.4886050000000  0.4602170000000  0.4277950000000 1.0
C      1  0.4820000000000  0.4721570000000  0.5826030000000 1.0
C      1  0.5083420000000  0.4719170000000  0.5762720000000 1.0
C      1  0.5311010000000  0.4853980000000  0.5845710000000 1.0
C      1  0.5303230000000  0.5130280000000  0.5841470000000 1.0
C      1  0.5079770000000  0.5266380000000  0.5762600000000 1.0
C      1  0.4824800000000  0.5184770000000  0.5768800000000 1.0
C      1  0.4678520000000  0.4956010000000  0.5800730000000 1.0
C      1  0.4440770000000  0.5144540000000  0.4043360000000 1.0
C      1  0.4612720000000  0.4473020000000  0.4163720000000 1.0
C      1  0.5139470000000  0.4453200000000  0.4017450000000 1.0
C      1  0.5412750000000  0.4658280000000  0.4054650000000 1.0
C      1  0.5643020000000  0.5372430000000  0.4092990000000 1.0
C      1  0.5158570000000  0.5657660000000  0.4093790000000 1.0
C      1  0.4572370000000  0.5451700000000  0.3966790000000 1.0
C      1  0.4946160000000  0.4938740000000  0.4915480000000 1.0
END
