TITL C-2622966-9038-72 -0.00173505344187992 125000 -536.067356301594 0 0 97 (C1) n - 1
REM
REM in /nfs/bkarasulu/CARBON/AIRSS/Generating-Clusters/AIREBO/with-SteepDescent/Higher-Symm/SD-CG/HFTN-CG
REM
REM
REM
REM
REM
REM ./C.cell (b20cbc046b6831c77cfcea5457e17084)
REM
REM compiler GCC version 9.2.1 20190827 (Red Hat 9.2.1-1)
REM options -cpp -mtune=generic -march=x86-64 -g -O0 -fpre-include=/usr/include/finclude/math-vector-fortran.h
REM seed 339083027 -871883672 -1637174604 -1723338955 1958030561 2029531412 -2085856645 50048589 -34974058 -1775526523 -1880111809 -1786277744 1894199638 -219332694 -1068691547 -335526566 -2043718411 1010079218 -117580918 1832555219 2030401218 -1935636325 -1210870787 1488126118 1099981846 -877330420 -1809583878 -2121835783 1437916098 -991099944 -279425593 2025807591 -1974292123
REM
CELL 1.54180   50.00000   50.00000   50.00000   90.00000   90.00000   90.00000
LATT -1
SFAC C  
C      1  0.4874890000000  0.5346810000000  0.4553090000000 1.0
C      1  0.4731830000000  0.4785070000000  0.4342770000000 1.0
C      1  0.4846840000000  0.4298200000000  0.4882530000000 1.0
C      1  0.4801680000000  0.4654540000000  0.5479700000000 1.0
C      1  0.4830190000000  0.5317010000000  0.5629880000000 1.0
C      1  0.4841420000000  0.5659380000000  0.5043390000000 1.0
C      1  0.5198350000000  0.5370780000000  0.4488710000000 1.0
C      1  0.5219010000000  0.4740960000000  0.4343730000000 1.0
C      1  0.5167240000000  0.4327100000000  0.4937230000000 1.0
C      1  0.5132430000000  0.4576560000000  0.5493010000000 1.0
C      1  0.5160600000000  0.5262360000000  0.5635620000000 1.0
C      1  0.5165530000000  0.5653210000000  0.5096990000000 1.0
C      1  0.4690430000000  0.5564170000000  0.5511880000000 1.0
C      1  0.4680310000000  0.5750370000000  0.4796860000000 1.0
C      1  0.4696750000000  0.5253380000000  0.4278970000000 1.0
C      1  0.4635550000000  0.4529380000000  0.4427480000000 1.0
C      1  0.4709360000000  0.4243900000000  0.5137580000000 1.0
C      1  0.4668250000000  0.4868140000000  0.5704930000000 1.0
C      1  0.5308840000000  0.5519900000000  0.5583870000000 1.0
C      1  0.5300510000000  0.5702290000000  0.4835670000000 1.0
C      1  0.5300920000000  0.5198120000000  0.4265800000000 1.0
C      1  0.5316680000000  0.4464130000000  0.4460330000000 1.0
C      1  0.5321540000000  0.4202750000000  0.5185670000000 1.0
C      1  0.5276460000000  0.4746040000000  0.5700910000000 1.0
C      1  0.4511680000000  0.4515280000000  0.5369280000000 1.0
C      1  0.4311350000000  0.5246500000000  0.5601200000000 1.0
C      1  0.4339800000000  0.5593530000000  0.5087520000000 1.0
C      1  0.4378800000000  0.5400840000000  0.4612940000000 1.0
C      1  0.4302050000000  0.4916170000000  0.4432920000000 1.0
C      1  0.4318140000000  0.4395610000000  0.4835520000000 1.0
C      1  0.5640590000000  0.4555060000000  0.5398370000000 1.0
C      1  0.5637270000000  0.5136080000000  0.5591740000000 1.0
C      1  0.5670960000000  0.5599820000000  0.5175220000000 1.0
C      1  0.5671450000000  0.5429680000000  0.4541680000000 1.0
C      1  0.5580410000000  0.4779280000000  0.4407730000000 1.0
C      1  0.5609840000000  0.4429220000000  0.4882060000000 1.0
C      1  0.4489740000000  0.5000850000000  0.4698210000000 1.0
C      1  0.4545340000000  0.4644190000000  0.4869550000000 1.0
C      1  0.4453730000000  0.4734710000000  0.5153090000000 1.0
C      1  0.4546070000000  0.4995190000000  0.5275080000000 1.0
C      1  0.4368260000000  0.5263370000000  0.5164330000000 1.0
C      1  0.4517410000000  0.5264700000000  0.4876700000000 1.0
C      1  0.5438780000000  0.4911130000000  0.4675240000000 1.0
C      1  0.5611990000000  0.4749010000000  0.4865520000000 1.0
C      1  0.5479870000000  0.4705950000000  0.5139440000000 1.0
C      1  0.5518390000000  0.4932010000000  0.5347060000000 1.0
C      1  0.5518910000000  0.5304100000000  0.5204120000000 1.0
C      1  0.5595150000000  0.5252630000000  0.4816640000000 1.0
C      1  0.4415860000000  0.5494070000000  0.5409710000000 1.0
C      1  0.4415940000000  0.5645180000000  0.4812470000000 1.0
C      1  0.4418830000000  0.5231180000000  0.4380300000000 1.0
C      1  0.4374700000000  0.4619850000000  0.4583410000000 1.0
C      1  0.4429930000000  0.4337340000000  0.5116070000000 1.0
C      1  0.4458070000000  0.5015010000000  0.5571960000000 1.0
C      1  0.5597930000000  0.5457360000000  0.5484180000000 1.0
C      1  0.5591320000000  0.5591680000000  0.4842700000000 1.0
C      1  0.5562200000000  0.5123330000000  0.4439960000000 1.0
C      1  0.5591820000000  0.4481030000000  0.4570980000000 1.0
C      1  0.5586240000000  0.4322980000000  0.5155250000000 1.0
C      1  0.5578230000000  0.4791280000000  0.5640250000000 1.0
C      1  0.4847750000000  0.4619060000000  0.4833760000000 1.0
C      1  0.4980950000000  0.4758320000000  0.5061560000000 1.0
C      1  0.4879450000000  0.4931540000000  0.5298020000000 1.0
C      1  0.4884070000000  0.5271550000000  0.5304710000000 1.0
C      1  0.4799080000000  0.5373070000000  0.4883550000000 1.0
C      1  0.4799560000000  0.5016530000000  0.4584380000000 1.0
C      1  0.5051060000000  0.4709080000000  0.4629160000000 1.0
C      1  0.5206480000000  0.4583510000000  0.5160850000000 1.0
C      1  0.5198360000000  0.5042040000000  0.5387430000000 1.0
C      1  0.5207550000000  0.5341690000000  0.5226720000000 1.0
C      1  0.5279440000000  0.5255370000000  0.4797840000000 1.0
C      1  0.5125390000000  0.5013070000000  0.4648430000000 1.0
C      1  0.5142930000000  0.4967510000000  0.5803380000000 1.0
C      1  0.5161810000000  0.5704300000000  0.5429630000000 1.0
C      1  0.5130720000000  0.5648460000000  0.4612610000000 1.0
C      1  0.5135120000000  0.4985520000000  0.4198970000000 1.0
C      1  0.5126420000000  0.4318700000000  0.4603680000000 1.0
C      1  0.5154320000000  0.4255090000000  0.5407070000000 1.0
C      1  0.4860970000000  0.5051340000000  0.5794200000000 1.0
C      1  0.4867490000000  0.5710010000000  0.5353920000000 1.0
C      1  0.4837350000000  0.5699980000000  0.4569720000000 1.0
C      1  0.4848740000000  0.5015040000000  0.4188360000000 1.0
C      1  0.4814270000000  0.4343690000000  0.4546710000000 1.0
C      1  0.4858780000000  0.4319790000000  0.5364560000000 1.0
C      1  0.4179230000000  0.4915100000000  0.4802720000000 1.0
C      1  0.4178220000000  0.4737980000000  0.5023400000000 1.0
C      1  0.3962210000000  0.4758990000000  0.5209630000000 1.0
C      1  0.3923650000000  0.5019650000000  0.5305160000000 1.0
C      1  0.4048410000000  0.5207780000000  0.5132570000000 1.0
C      1  0.4003540000000  0.5134170000000  0.4858360000000 1.0
C      1  0.5895900000000  0.4842160000000  0.4862650000000 1.0
C      1  0.6007830000000  0.4822760000000  0.5120410000000 1.0
C      1  0.5853140000000  0.4972590000000  0.5302420000000 1.0
C      1  0.5852280000000  0.5257060000000  0.5251700000000 1.0
C      1  0.5886300000000  0.5332420000000  0.4973290000000 1.0
C      1  0.5901010000000  0.5098060000000  0.4757600000000 1.0
C      1  0.5018670000000  0.5179490000000  0.4995160000000 1.0
END
