TITL C-2622961-1971-820 0.000171346845761945 125000 -484.786953143197 0 0 91 (C1) n - 1
REM
REM in /nfs/bkarasulu/CARBON/AIRSS/Generating-Clusters/AIREBO/with-SteepDescent/Higher-Symm/SD-CG/HFTN-CG
REM
REM
REM
REM
REM
REM ./C.cell (b20cbc046b6831c77cfcea5457e17084)
REM
REM compiler GCC version 9.2.1 20190827 (Red Hat 9.2.1-1)
REM options -cpp -mtune=generic -march=x86-64 -g -O0 -fpre-include=/usr/include/finclude/math-vector-fortran.h
REM seed 1685570056 851542199 572367689 81742342 -1363125282 1404130227 1334117201 -330942753 -569754924 571804765 -313042301 -290124140 1541954100 -1361078902 -300739215 1123673398 -1471419618 -514669779 -611501042 701290858 -1161034333 311928379 811125398 -306454390 -29749479 -1271834135 -1314256033 -1602521941 1659759575 1719342481 -1918521253 952157806 -1850470800
REM
CELL 1.54180   50.00000   50.00000   50.00000   90.00000   90.00000   90.00000
LATT -1
SFAC C  
C      1  0.5196000000000  0.5713180000000  0.5036300000000 1.0
C      1  0.5321450000000  0.5217470000000  0.4389650000000 1.0
C      1  0.5324340000000  0.4478580000000  0.4545750000000 1.0
C      1  0.5291790000000  0.4465600000000  0.5397220000000 1.0
C      1  0.5282650000000  0.5309290000000  0.5651380000000 1.0
C      1  0.4690050000000  0.5683850000000  0.4981930000000 1.0
C      1  0.4775730000000  0.5191140000000  0.4366140000000 1.0
C      1  0.4787020000000  0.4490560000000  0.4650500000000 1.0
C      1  0.4794360000000  0.4491770000000  0.5418520000000 1.0
C      1  0.4803470000000  0.5300590000000  0.5608360000000 1.0
C      1  0.4711660000000  0.4590280000000  0.5684560000000 1.0
C      1  0.4827000000000  0.5629850000000  0.5526890000000 1.0
C      1  0.4693220000000  0.5619370000000  0.4713490000000 1.0
C      1  0.4699570000000  0.4871000000000  0.4284450000000 1.0
C      1  0.4702770000000  0.4282890000000  0.4869160000000 1.0
C      1  0.5313420000000  0.4511550000000  0.5793680000000 1.0
C      1  0.5313850000000  0.5646420000000  0.5619240000000 1.0
C      1  0.5309400000000  0.5666820000000  0.4729520000000 1.0
C      1  0.5296390000000  0.4797840000000  0.4110690000000 1.0
C      1  0.5602740000000  0.4303770000000  0.4632560000000 1.0
C      1  0.5767740000000  0.4809580000000  0.5249580000000 1.0
C      1  0.5799320000000  0.5117010000000  0.5270130000000 1.0
C      1  0.5899780000000  0.5213890000000  0.5019540000000 1.0
C      1  0.5809230000000  0.5027060000000  0.4815640000000 1.0
C      1  0.5806900000000  0.4753490000000  0.4947630000000 1.0
C      1  0.4055060000000  0.4872840000000  0.5177540000000 1.0
C      1  0.4187090000000  0.5128720000000  0.5268020000000 1.0
C      1  0.4070820000000  0.5331750000000  0.5093590000000 1.0
C      1  0.3998080000000  0.5202390000000  0.4847830000000 1.0
C      1  0.4079130000000  0.4923770000000  0.4883140000000 1.0
C      1  0.5401720000000  0.4196720000000  0.5237090000000 1.0
C      1  0.5337880000000  0.5038310000000  0.5761340000000 1.0
C      1  0.5524480000000  0.5703170000000  0.5083570000000 1.0
C      1  0.5460850000000  0.5510440000000  0.4333830000000 1.0
C      1  0.5648070000000  0.4510850000000  0.4407960000000 1.0
C      1  0.4569470000000  0.4314490000000  0.5287540000000 1.0
C      1  0.4732290000000  0.5044600000000  0.5732250000000 1.0
C      1  0.4413860000000  0.5752710000000  0.5087750000000 1.0
C      1  0.4469580000000  0.5231670000000  0.4228520000000 1.0
C      1  0.4483050000000  0.4442370000000  0.4560730000000 1.0
C      1  0.4375270000000  0.4496720000000  0.5130420000000 1.0
C      1  0.4495150000000  0.4969300000000  0.5587090000000 1.0
C      1  0.4434730000000  0.5473140000000  0.5204290000000 1.0
C      1  0.4419230000000  0.5300530000000  0.4509320000000 1.0
C      1  0.4351460000000  0.4678730000000  0.4533220000000 1.0
C      1  0.5561060000000  0.4429970000000  0.5106630000000 1.0
C      1  0.5523570000000  0.4896570000000  0.5572340000000 1.0
C      1  0.5577800000000  0.5450260000000  0.5195450000000 1.0
C      1  0.5640810000000  0.5364540000000  0.4574570000000 1.0
C      1  0.5576090000000  0.4784230000000  0.4494590000000 1.0
C      1  0.4876840000000  0.4305020000000  0.5142410000000 1.0
C      1  0.4876040000000  0.4805360000000  0.5769960000000 1.0
C      1  0.4846650000000  0.5539790000000  0.5199590000000 1.0
C      1  0.4893520000000  0.5414550000000  0.4573570000000 1.0
C      1  0.4873530000000  0.4670340000000  0.4397500000000 1.0
C      1  0.5163780000000  0.4391740000000  0.5090960000000 1.0
C      1  0.5152920000000  0.4782310000000  0.5664970000000 1.0
C      1  0.5156600000000  0.5560680000000  0.5337800000000 1.0
C      1  0.5165070000000  0.5499670000000  0.4501230000000 1.0
C      1  0.5164470000000  0.4721810000000  0.4414710000000 1.0
C      1  0.5199680000000  0.4997710000000  0.4590240000000 1.0
C      1  0.5206010000000  0.4574020000000  0.4838960000000 1.0
C      1  0.5149800000000  0.4749480000000  0.5325000000000 1.0
C      1  0.5165060000000  0.5214830000000  0.5351180000000 1.0
C      1  0.5149330000000  0.5395760000000  0.4976190000000 1.0
C      1  0.4860670000000  0.4999250000000  0.4624760000000 1.0
C      1  0.4948880000000  0.4742540000000  0.4801470000000 1.0
C      1  0.4832930000000  0.4743510000000  0.5212290000000 1.0
C      1  0.4832890000000  0.5209150000000  0.5278060000000 1.0
C      1  0.4873340000000  0.5304170000000  0.4880050000000 1.0
C      1  0.4521430000000  0.4794030000000  0.5079380000000 1.0
C      1  0.4518960000000  0.5078080000000  0.5266580000000 1.0
C      1  0.4562690000000  0.5271200000000  0.4990080000000 1.0
C      1  0.4548980000000  0.5104590000000  0.4715320000000 1.0
C      1  0.4360350000000  0.4853370000000  0.4783940000000 1.0
C      1  0.5446430000000  0.4746220000000  0.5157870000000 1.0
C      1  0.5463400000000  0.5065970000000  0.5283740000000 1.0
C      1  0.5406860000000  0.5243400000000  0.5003350000000 1.0
C      1  0.5488270000000  0.5105140000000  0.4735010000000 1.0
C      1  0.5478910000000  0.4776070000000  0.4820450000000 1.0
C      1  0.4548250000000  0.5464310000000  0.5454400000000 1.0
C      1  0.4444390000000  0.5570580000000  0.4585400000000 1.0
C      1  0.4423920000000  0.4806490000000  0.4292810000000 1.0
C      1  0.4427700000000  0.4282020000000  0.4919140000000 1.0
C      1  0.4435220000000  0.4695160000000  0.5670830000000 1.0
C      1  0.5529100000000  0.5443720000000  0.5464560000000 1.0
C      1  0.5580610000000  0.5635280000000  0.4693440000000 1.0
C      1  0.5466980000000  0.4952820000000  0.4297100000000 1.0
C      1  0.5710440000000  0.4352330000000  0.4884600000000 1.0
C      1  0.5507570000000  0.4619800000000  0.5578010000000 1.0
C      1  0.4901150000000  0.5000200000000  0.5018510000000 1.0
END
