TITL C-2622953-3516-442 -2.78169998950644e-06 125000 -445.527098107243 0 0 85 (C1) n - 1
REM
REM in /nfs/bkarasulu/CARBON/AIRSS/Generating-Clusters/AIREBO/with-SteepDescent/Higher-Symm/SD-CG/HFTN-CG
REM
REM
REM
REM
REM
REM ./C.cell (b20cbc046b6831c77cfcea5457e17084)
REM
REM compiler GCC version 9.2.1 20190827 (Red Hat 9.2.1-1)
REM options -cpp -mtune=generic -march=x86-64 -g -O0 -fpre-include=/usr/include/finclude/math-vector-fortran.h
REM seed 1128678011 -453558367 -1571763314 596509030 -764956503 304887744 -2686116 -1451395979 661584291 218775845 -620761409 -1537838580 1865714484 486358493 1449228945 -884603932 2146748939 -463464924 -172648563 1297314385 -1064860500 -1113894730 2110820042 -1654323444 -385547833 -2042757768 560585995 366010157 882008710 -756486512 -726066203 1701774669 -1711124217
REM
CELL 1.54180   50.00000   50.00000   50.00000   90.00000   90.00000   90.00000
LATT -1
SFAC C  
C      1  0.4252150000000  0.4967570000000  0.5261820000000 1.0
C      1  0.4291100000000  0.4889440000000  0.4799160000000 1.0
C      1  0.4216480000000  0.5148780000000  0.4976930000000 1.0
C      1  0.4695620000000  0.5417840000000  0.5443210000000 1.0
C      1  0.4624710000000  0.4274260000000  0.5248590000000 1.0
C      1  0.4612420000000  0.5203740000000  0.4162370000000 1.0
C      1  0.5216120000000  0.5206180000000  0.5705720000000 1.0
C      1  0.5203270000000  0.4269630000000  0.4725280000000 1.0
C      1  0.5216340000000  0.5521920000000  0.4517940000000 1.0
C      1  0.5270390000000  0.5631970000000  0.4835140000000 1.0
C      1  0.5305700000000  0.4894140000000  0.5604530000000 1.0
C      1  0.5252390000000  0.4559410000000  0.4554340000000 1.0
C      1  0.5211790000000  0.4626700000000  0.4997900000000 1.0
C      1  0.5147650000000  0.5224720000000  0.4662000000000 1.0
C      1  0.5171360000000  0.5194600000000  0.5368420000000 1.0
C      1  0.5707230000000  0.4957410000000  0.5221390000000 1.0
C      1  0.5769810000000  0.4855060000000  0.4913380000000 1.0
C      1  0.5669310000000  0.5165780000000  0.4975280000000 1.0
C      1  0.5088620000000  0.5294950000000  0.4067170000000 1.0
C      1  0.5033330000000  0.5643590000000  0.5736440000000 1.0
C      1  0.5076120000000  0.4046260000000  0.5185080000000 1.0
C      1  0.4558560000000  0.5616180000000  0.5223070000000 1.0
C      1  0.4524880000000  0.4473760000000  0.5406040000000 1.0
C      1  0.4546440000000  0.4952570000000  0.4289160000000 1.0
C      1  0.4984540000000  0.4171710000000  0.4895970000000 1.0
C      1  0.4978870000000  0.5476590000000  0.4306970000000 1.0
C      1  0.4936050000000  0.5354900000000  0.5828740000000 1.0
C      1  0.5012810000000  0.4592290000000  0.5342910000000 1.0
C      1  0.4986480000000  0.4925980000000  0.4459730000000 1.0
C      1  0.4935600000000  0.5482970000000  0.5229490000000 1.0
C      1  0.5420990000000  0.4365810000000  0.5214950000000 1.0
C      1  0.5445480000000  0.5102530000000  0.4322680000000 1.0
C      1  0.5397090000000  0.5512300000000  0.5454240000000 1.0
C      1  0.4745770000000  0.4793520000000  0.5285650000000 1.0
C      1  0.4736840000000  0.4834670000000  0.4757630000000 1.0
C      1  0.4724800000000  0.5279840000000  0.5056060000000 1.0
C      1  0.4673880000000  0.5564740000000  0.4402820000000 1.0
C      1  0.4610670000000  0.5272480000000  0.5892530000000 1.0
C      1  0.4672460000000  0.4237370000000  0.4801410000000 1.0
C      1  0.5551110000000  0.4727340000000  0.4756930000000 1.0
C      1  0.5662670000000  0.5370440000000  0.4721190000000 1.0
C      1  0.5677580000000  0.5068710000000  0.5521580000000 1.0
C      1  0.5450000000000  0.4427040000000  0.4881540000000 1.0
C      1  0.5512820000000  0.5363900000000  0.4477920000000 1.0
C      1  0.5536030000000  0.5285650000000  0.5622390000000 1.0
C      1  0.5565620000000  0.4747510000000  0.5507610000000 1.0
C      1  0.5553530000000  0.4633800000000  0.4430220000000 1.0
C      1  0.5523980000000  0.5527710000000  0.4956550000000 1.0
C      1  0.4425840000000  0.4715880000000  0.5222420000000 1.0
C      1  0.4487790000000  0.4980160000000  0.4577350000000 1.0
C      1  0.4418770000000  0.5316530000000  0.5176510000000 1.0
C      1  0.5407140000000  0.5007760000000  0.4625100000000 1.0
C      1  0.5447910000000  0.5301590000000  0.5198240000000 1.0
C      1  0.5505140000000  0.4686980000000  0.5178390000000 1.0
C      1  0.5171690000000  0.4262070000000  0.4406140000000 1.0
C      1  0.5233550000000  0.5856360000000  0.4577300000000 1.0
C      1  0.5266100000000  0.4962670000000  0.5937870000000 1.0
C      1  0.4805250000000  0.5543720000000  0.4859710000000 1.0
C      1  0.4693360000000  0.4860040000000  0.5634120000000 1.0
C      1  0.4655200000000  0.4625060000000  0.4504400000000 1.0
C      1  0.5031530000000  0.4802020000000  0.4178560000000 1.0
C      1  0.5005380000000  0.5808240000000  0.5258710000000 1.0
C      1  0.5003090000000  0.4383440000000  0.5586750000000 1.0
C      1  0.4728540000000  0.4723520000000  0.4233500000000 1.0
C      1  0.4747010000000  0.5790470000000  0.5068090000000 1.0
C      1  0.4712680000000  0.4552550000000  0.5602690000000 1.0
C      1  0.4838590000000  0.5163560000000  0.5585190000000 1.0
C      1  0.4879330000000  0.4384860000000  0.5108890000000 1.0
C      1  0.4831300000000  0.5198940000000  0.4422570000000 1.0
C      1  0.4878290000000  0.4693930000000  0.4983100000000 1.0
C      1  0.4828000000000  0.5148810000000  0.4759170000000 1.0
C      1  0.4858510000000  0.5095840000000  0.5275070000000 1.0
C      1  0.5173960000000  0.4865160000000  0.5306390000000 1.0
C      1  0.5154300000000  0.4831780000000  0.4732840000000 1.0
C      1  0.5099700000000  0.5363210000000  0.4956820000000 1.0
C      1  0.4542790000000  0.4485160000000  0.4750040000000 1.0
C      1  0.4590260000000  0.5479320000000  0.4651910000000 1.0
C      1  0.4469730000000  0.5096400000000  0.5711710000000 1.0
C      1  0.5205270000000  0.4243150000000  0.5352050000000 1.0
C      1  0.5220570000000  0.5054930000000  0.4151270000000 1.0
C      1  0.5171780000000  0.5675760000000  0.5487970000000 1.0
C      1  0.4409080000000  0.5262920000000  0.4720470000000 1.0
C      1  0.4340900000000  0.5169050000000  0.5473660000000 1.0
C      1  0.4384480000000  0.4651140000000  0.4922520000000 1.0
C      1  0.5146670000000  0.5029590000000  0.5009530000000 1.0
END
