TITL C-2622964-2985-258 -0.00156683445331942 125000 -588.310254516835 0 0 114 (C1) n - 1
REM
REM in /nfs/bkarasulu/CARBON/AIRSS/Generating-Clusters/AIREBO/with-SteepDescent/Higher-Symm/SD-CG/HFTN-CG
REM
REM
REM
REM
REM
REM ./C.cell (b20cbc046b6831c77cfcea5457e17084)
REM
REM compiler GCC version 9.2.1 20190827 (Red Hat 9.2.1-1)
REM options -cpp -mtune=generic -march=x86-64 -g -O0 -fpre-include=/usr/include/finclude/math-vector-fortran.h
REM seed 49850315 -1522711659 1663946223 1660713106 73208691 -837345670 -1747348281 -1471764333 1441711844 473780596 -945302017 1330339861 1517044482 941882874 -1745196435 -1123478915 -1870131016 -1916041076 1718775597 -446437800 -166096899 105271533 1097746353 -1750694408 -1655778431 -346262531 -1854299627 1100354857 -1368741733 -835444519 627150421 -463902807 165942908
REM
CELL 1.54180   50.00000   50.00000   50.00000   90.00000   90.00000   90.00000
LATT -1
SFAC C  
C      1  0.5633730000000  0.5090100000000  0.4242250000000 1.0
C      1  0.5169280000000  0.4301440000000  0.4229070000000 1.0
C      1  0.4397760000000  0.4869550000000  0.4220960000000 1.0
C      1  0.4798010000000  0.5556800000000  0.4187000000000 1.0
C      1  0.5575420000000  0.5148130000000  0.5718050000000 1.0
C      1  0.5056440000000  0.4365280000000  0.5668090000000 1.0
C      1  0.4306100000000  0.4926490000000  0.5707240000000 1.0
C      1  0.4691040000000  0.5522340000000  0.5893530000000 1.0
C      1  0.5513270000000  0.4418630000000  0.4573160000000 1.0
C      1  0.4486010000000  0.4499700000000  0.4577580000000 1.0
C      1  0.4573030000000  0.5567340000000  0.4650280000000 1.0
C      1  0.5535120000000  0.5452620000000  0.4605070000000 1.0
C      1  0.5534780000000  0.4424870000000  0.5396250000000 1.0
C      1  0.4383130000000  0.4523660000000  0.5391530000000 1.0
C      1  0.4587680000000  0.5619890000000  0.5481340000000 1.0
C      1  0.5580870000000  0.5534170000000  0.5418820000000 1.0
C      1  0.5061830000000  0.4942540000000  0.5818200000000 1.0
C      1  0.4812010000000  0.4799310000000  0.5889060000000 1.0
C      1  0.4720680000000  0.5126980000000  0.5910750000000 1.0
C      1  0.5038950000000  0.5231450000000  0.5898840000000 1.0
C      1  0.5156040000000  0.4904160000000  0.4199450000000 1.0
C      1  0.4905570000000  0.4732000000000  0.4139170000000 1.0
C      1  0.4789280000000  0.5051180000000  0.4154340000000 1.0
C      1  0.5080550000000  0.5229200000000  0.4171870000000 1.0
C      1  0.5191210000000  0.5492400000000  0.5091080000000 1.0
C      1  0.5495640000000  0.4678090000000  0.5089600000000 1.0
C      1  0.4724600000000  0.4554250000000  0.5091290000000 1.0
C      1  0.4615640000000  0.5360890000000  0.5178220000000 1.0
C      1  0.5187970000000  0.5363850000000  0.4812610000000 1.0
C      1  0.5415800000000  0.4765090000000  0.4786230000000 1.0
C      1  0.4864780000000  0.4656510000000  0.4820610000000 1.0
C      1  0.4581540000000  0.5236220000000  0.4874360000000 1.0
C      1  0.4099130000000  0.5063260000000  0.5343220000000 1.0
C      1  0.5037610000000  0.5973650000000  0.5319920000000 1.0
C      1  0.5887090000000  0.5011780000000  0.5256240000000 1.0
C      1  0.4994890000000  0.4064230000000  0.5238530000000 1.0
C      1  0.4199070000000  0.5004580000000  0.4750610000000 1.0
C      1  0.4988740000000  0.5907150000000  0.4768630000000 1.0
C      1  0.5972190000000  0.5035740000000  0.4696070000000 1.0
C      1  0.5051000000000  0.3999020000000  0.4657070000000 1.0
C      1  0.4783100000000  0.4395720000000  0.5609410000000 1.0
C      1  0.4474830000000  0.5304550000000  0.5747140000000 1.0
C      1  0.5283250000000  0.5741470000000  0.5631550000000 1.0
C      1  0.5526120000000  0.4901320000000  0.5590560000000 1.0
C      1  0.4872730000000  0.4425100000000  0.4266480000000 1.0
C      1  0.4492220000000  0.5157660000000  0.4312680000000 1.0
C      1  0.5212230000000  0.5533760000000  0.4272710000000 1.0
C      1  0.5612620000000  0.4821290000000  0.4369570000000 1.0
C      1  0.5268930000000  0.5840120000000  0.4741430000000 1.0
C      1  0.5853510000000  0.4760260000000  0.4781710000000 1.0
C      1  0.4787140000000  0.4141350000000  0.4737360000000 1.0
C      1  0.4185260000000  0.5274890000000  0.4850580000000 1.0
C      1  0.5227600000000  0.5826630000000  0.5079170000000 1.0
C      1  0.5811960000000  0.4734750000000  0.5118320000000 1.0
C      1  0.4749620000000  0.4224410000000  0.5065660000000 1.0
C      1  0.4286490000000  0.5277560000000  0.5156660000000 1.0
C      1  0.5340270000000  0.5665580000000  0.4533930000000 1.0
C      1  0.5720000000000  0.4635950000000  0.4562170000000 1.0
C      1  0.4679870000000  0.4286790000000  0.4510620000000 1.0
C      1  0.4408600000000  0.5304120000000  0.4594970000000 1.0
C      1  0.5400260000000  0.5818520000000  0.5372010000000 1.0
C      1  0.5687100000000  0.4715950000000  0.5435470000000 1.0
C      1  0.4633200000000  0.4293510000000  0.5379240000000 1.0
C      1  0.4340330000000  0.5406050000000  0.5463310000000 1.0
C      1  0.4432590000000  0.5747850000000  0.4902470000000 1.0
C      1  0.5650410000000  0.5461810000000  0.4921340000000 1.0
C      1  0.5557230000000  0.4206440000000  0.4828880000000 1.0
C      1  0.4286410000000  0.4436250000000  0.4836810000000 1.0
C      1  0.4448600000000  0.5650800000000  0.5172590000000 1.0
C      1  0.5498310000000  0.5536140000000  0.5110370000000 1.0
C      1  0.5537720000000  0.4341040000000  0.5072790000000 1.0
C      1  0.4421480000000  0.4452030000000  0.5085040000000 1.0
C      1  0.4685770000000  0.4638530000000  0.5706630000000 1.0
C      1  0.4684490000000  0.5105060000000  0.5574720000000 1.0
C      1  0.5150230000000  0.5452970000000  0.5713550000000 1.0
C      1  0.5211020000000  0.4872320000000  0.5559400000000 1.0
C      1  0.4872860000000  0.4633760000000  0.4524300000000 1.0
C      1  0.4774010000000  0.5092550000000  0.4491540000000 1.0
C      1  0.5119500000000  0.5300350000000  0.4502100000000 1.0
C      1  0.5296670000000  0.4829470000000  0.4494960000000 1.0
C      1  0.4867220000000  0.5400220000000  0.4861890000000 1.0
C      1  0.5232630000000  0.5044830000000  0.4842800000000 1.0
C      1  0.5134810000000  0.4667310000000  0.4922700000000 1.0
C      1  0.4674030000000  0.4913120000000  0.4924470000000 1.0
C      1  0.4939310000000  0.5368800000000  0.5283620000000 1.0
C      1  0.5325940000000  0.4969100000000  0.5154440000000 1.0
C      1  0.5206790000000  0.4557290000000  0.5210700000000 1.0
C      1  0.4774710000000  0.4856650000000  0.5242620000000 1.0
C      1  0.5423220000000  0.5147040000000  0.4503190000000 1.0
C      1  0.5190040000000  0.4506420000000  0.4495540000000 1.0
C      1  0.4593800000000  0.4801010000000  0.4462450000000 1.0
C      1  0.4806920000000  0.5430210000000  0.4468290000000 1.0
C      1  0.5461890000000  0.5385760000000  0.5654350000000 1.0
C      1  0.5244120000000  0.4552910000000  0.5517970000000 1.0
C      1  0.4531490000000  0.4817500000000  0.5477110000000 1.0
C      1  0.4830760000000  0.5415240000000  0.5602600000000 1.0
C      1  0.4825030000000  0.5684850000000  0.4936280000000 1.0
C      1  0.5645100000000  0.5099930000000  0.4756590000000 1.0
C      1  0.5152160000000  0.4301020000000  0.4763920000000 1.0
C      1  0.4378150000000  0.4814940000000  0.4924750000000 1.0
C      1  0.4876850000000  0.5697370000000  0.5221370000000 1.0
C      1  0.5615630000000  0.5091630000000  0.5067620000000 1.0
C      1  0.5142780000000  0.4289510000000  0.5050910000000 1.0
C      1  0.4330590000000  0.4873770000000  0.5206220000000 1.0
C      1  0.4117900000000  0.4733710000000  0.5425690000000 1.0
C      1  0.4770900000000  0.5896900000000  0.5474090000000 1.0
C      1  0.5770320000000  0.5305960000000  0.5285260000000 1.0
C      1  0.5289300000000  0.4194090000000  0.5348370000000 1.0
C      1  0.4221640000000  0.4703220000000  0.4643260000000 1.0
C      1  0.4671050000000  0.5884530000000  0.4704570000000 1.0
C      1  0.5853880000000  0.5354360000000  0.4670920000000 1.0
C      1  0.5357520000000  0.4116480000000  0.4565480000000 1.0
C      1  0.5037970000000  0.5041760000000  0.5320020000000 1.0
C      1  0.4926000000000  0.5070250000000  0.4766000000000 1.0
END
