TITL C-2622966-9038-317 0.00277482638776271 125000 -653.629577405498 0 0 117 (C1) n - 1
REM
REM in /nfs/bkarasulu/CARBON/AIRSS/Generating-Clusters/AIREBO/with-SteepDescent/Higher-Symm/SD-CG/HFTN-CG
REM
REM
REM
REM
REM
REM ./C.cell (b20cbc046b6831c77cfcea5457e17084)
REM
REM compiler GCC version 9.2.1 20190827 (Red Hat 9.2.1-1)
REM options -cpp -mtune=generic -march=x86-64 -g -O0 -fpre-include=/usr/include/finclude/math-vector-fortran.h
REM seed 682930361 -117587854 26020349 432032134 -173876705 54371523 -652898490 974621242 124273302 -683886455 2126958212 1524910326 475506334 -168621614 1271900762 1760435390 711982534 1547215106 -881476542 1733390296 993186718 109413902 1204274773 -785492010 1133946672 1403946657 -2119388710 -1244602921 2003178951 1671541731 539293844 -1104072374 -468497977
REM
CELL 1.54180   50.00000   50.00000   50.00000   90.00000   90.00000   90.00000
LATT -1
SFAC C  
C      1  0.5734290000000  0.5203810000000  0.4739110000000 1.0
C      1  0.4311870000000  0.5257270000000  0.4436020000000 1.0
C      1  0.4743020000000  0.5270880000000  0.5848600000000 1.0
C      1  0.4709590000000  0.5707950000000  0.5006820000000 1.0
C      1  0.5257700000000  0.5632880000000  0.5167740000000 1.0
C      1  0.5136420000000  0.5730710000000  0.4675660000000 1.0
C      1  0.4988620000000  0.4952100000000  0.5418220000000 1.0
C      1  0.5289260000000  0.4890710000000  0.4710340000000 1.0
C      1  0.4663610000000  0.4922920000000  0.4835400000000 1.0
C      1  0.4573900000000  0.4803240000000  0.5764490000000 1.0
C      1  0.5777530000000  0.4843970000000  0.5070070000000 1.0
C      1  0.4558060000000  0.4868300000000  0.4286660000000 1.0
C      1  0.5468630000000  0.5132990000000  0.4816030000000 1.0
C      1  0.4570100000000  0.5082940000000  0.4550140000000 1.0
C      1  0.4754610000000  0.5012680000000  0.5663750000000 1.0
C      1  0.5421630000000  0.4964790000000  0.4405790000000 1.0
C      1  0.4344200000000  0.4998660000000  0.4926230000000 1.0
C      1  0.5242470000000  0.4975140000000  0.5643660000000 1.0
C      1  0.4694800000000  0.4352260000000  0.5476660000000 1.0
C      1  0.5710520000000  0.4285500000000  0.5126380000000 1.0
C      1  0.4757590000000  0.4301920000000  0.4360320000000 1.0
C      1  0.5910810000000  0.4776750000000  0.5358540000000 1.0
C      1  0.4811390000000  0.4795390000000  0.4146200000000 1.0
C      1  0.4354860000000  0.4781920000000  0.5597280000000 1.0
C      1  0.5172750000000  0.5928460000000  0.4918250000000 1.0
C      1  0.4839450000000  0.5919810000000  0.4850070000000 1.0
C      1  0.5033270000000  0.5823760000000  0.5210860000000 1.0
C      1  0.4437920000000  0.4638580000000  0.4434550000000 1.0
C      1  0.4690980000000  0.4603110000000  0.5906680000000 1.0
C      1  0.5752320000000  0.4637040000000  0.4841520000000 1.0
C      1  0.4445300000000  0.4262120000000  0.4741750000000 1.0
C      1  0.5069070000000  0.4233860000000  0.5537800000000 1.0
C      1  0.5473500000000  0.4276400000000  0.4709780000000 1.0
C      1  0.4983270000000  0.5057880000000  0.4089530000000 1.0
C      1  0.4200440000000  0.5021560000000  0.5536010000000 1.0
C      1  0.5873780000000  0.5026750000000  0.5507650000000 1.0
C      1  0.5463690000000  0.4903700000000  0.5189150000000 1.0
C      1  0.5025110000000  0.4992430000000  0.4420650000000 1.0
C      1  0.4602200000000  0.4978600000000  0.5226340000000 1.0
C      1  0.5468000000000  0.4447860000000  0.5257550000000 1.0
C      1  0.5015260000000  0.4456700000000  0.4448810000000 1.0
C      1  0.4614450000000  0.4481510000000  0.5235110000000 1.0
C      1  0.4864380000000  0.4876940000000  0.5106400000000 1.0
C      1  0.5257980000000  0.4765870000000  0.5025140000000 1.0
C      1  0.4956720000000  0.4820570000000  0.4695910000000 1.0
C      1  0.4437720000000  0.4732500000000  0.5300190000000 1.0
C      1  0.5596210000000  0.4693600000000  0.5392930000000 1.0
C      1  0.5080760000000  0.4689490000000  0.4284700000000 1.0
C      1  0.4134330000000  0.5018230000000  0.5265860000000 1.0
C      1  0.5640230000000  0.5011580000000  0.5664060000000 1.0
C      1  0.5290410000000  0.4977080000000  0.4037470000000 1.0
C      1  0.5302570000000  0.5480350000000  0.4420570000000 1.0
C      1  0.4362340000000  0.5525240000000  0.5078760000000 1.0
C      1  0.5309670000000  0.5504910000000  0.5539430000000 1.0
C      1  0.4616940000000  0.5788490000000  0.4628990000000 1.0
C      1  0.4899160000000  0.5768210000000  0.5470270000000 1.0
C      1  0.5478440000000  0.5785340000000  0.4866990000000 1.0
C      1  0.4870470000000  0.4427580000000  0.5734370000000 1.0
C      1  0.5728300000000  0.4351290000000  0.4863670000000 1.0
C      1  0.4512330000000  0.4361160000000  0.4456190000000 1.0
C      1  0.4470920000000  0.4234390000000  0.5073640000000 1.0
C      1  0.5373530000000  0.4196050000000  0.5446300000000 1.0
C      1  0.5228580000000  0.4206340000000  0.4506290000000 1.0
C      1  0.5896740000000  0.5265610000000  0.5348290000000 1.0
C      1  0.4770180000000  0.5264080000000  0.4047040000000 1.0
C      1  0.4273770000000  0.5261760000000  0.5656380000000 1.0
C      1  0.4584290000000  0.5281260000000  0.5163090000000 1.0
C      1  0.5349480000000  0.5163210000000  0.5271630000000 1.0
C      1  0.5036620000000  0.5233720000000  0.4616770000000 1.0
C      1  0.4474230000000  0.5165510000000  0.4171700000000 1.0
C      1  0.4465000000000  0.5366700000000  0.5887300000000 1.0
C      1  0.5888280000000  0.5119110000000  0.4976160000000 1.0
C      1  0.5279660000000  0.4492500000000  0.5604190000000 1.0
C      1  0.5416600000000  0.4490220000000  0.4451570000000 1.0
C      1  0.4327700000000  0.4513370000000  0.4938340000000 1.0
C      1  0.4191180000000  0.4743130000000  0.5090330000000 1.0
C      1  0.5467070000000  0.4724750000000  0.5693460000000 1.0
C      1  0.5393780000000  0.4695210000000  0.4197090000000 1.0
C      1  0.4532730000000  0.5468780000000  0.5573450000000 1.0
C      1  0.5721740000000  0.5392720000000  0.5090510000000 1.0
C      1  0.4662380000000  0.5405470000000  0.4325970000000 1.0
C      1  0.5034430000000  0.5699690000000  0.4399470000000 1.0
C      1  0.4509550000000  0.5775510000000  0.5217560000000 1.0
C      1  0.5493470000000  0.5710900000000  0.5365600000000 1.0
C      1  0.5006000000000  0.4199690000000  0.5205190000000 1.0
C      1  0.5220080000000  0.4250050000000  0.4935250000000 1.0
C      1  0.4765830000000  0.4294850000000  0.4812580000000 1.0
C      1  0.5299990000000  0.5238740000000  0.4244860000000 1.0
C      1  0.4194010000000  0.5259500000000  0.5085860000000 1.0
C      1  0.5445510000000  0.5231570000000  0.5576640000000 1.0
C      1  0.5004060000000  0.4625900000000  0.5497130000000 1.0
C      1  0.5526640000000  0.4671270000000  0.4675600000000 1.0
C      1  0.4488990000000  0.4659080000000  0.4721700000000 1.0
C      1  0.5093140000000  0.4515970000000  0.4764790000000 1.0
C      1  0.4865530000000  0.4549200000000  0.5015400000000 1.0
C      1  0.5136390000000  0.4513640000000  0.5218170000000 1.0
C      1  0.5387320000000  0.5365350000000  0.5034430000000 1.0
C      1  0.4760240000000  0.5323680000000  0.4641240000000 1.0
C      1  0.4751090000000  0.5272440000000  0.5448760000000 1.0
C      1  0.5042880000000  0.5606250000000  0.5658150000000 1.0
C      1  0.5529780000000  0.5650490000000  0.4608210000000 1.0
C      1  0.4370940000000  0.5640450000000  0.4758850000000 1.0
C      1  0.4118900000000  0.5212280000000  0.4781230000000 1.0
C      1  0.5196850000000  0.5204170000000  0.5886440000000 1.0
C      1  0.5677800000000  0.5180190000000  0.4345340000000 1.0
C      1  0.4945150000000  0.4133540000000  0.4670700000000 1.0
C      1  0.4735650000000  0.4107240000000  0.5163670000000 1.0
C      1  0.5378700000000  0.4072590000000  0.5155740000000 1.0
C      1  0.5640540000000  0.5700750000000  0.5089280000000 1.0
C      1  0.4756650000000  0.5678220000000  0.4403960000000 1.0
C      1  0.4616920000000  0.5732180000000  0.5467030000000 1.0
C      1  0.4197950000000  0.5448150000000  0.4616150000000 1.0
C      1  0.4988580000000  0.5399780000000  0.5853730000000 1.0
C      1  0.5717480000000  0.5420570000000  0.4533320000000 1.0
C      1  0.5222760000000  0.5438620000000  0.4748480000000 1.0
C      1  0.4712970000000  0.5439180000000  0.4916170000000 1.0
C      1  0.5077560000000  0.5280190000000  0.5429730000000 1.0
END
