TITL C-2622968-4806-631 0.00289945565368155 125000 -227.648468957158 0 0 40 (C3) n - 1
REM
REM in /nfs/bkarasulu/CARBON/AIRSS/Generating-Clusters/AIREBO/with-SteepDescent/Higher-Symm/SD-CG/HFTN-CG
REM
REM
REM
REM
REM
REM ./C.cell (b20cbc046b6831c77cfcea5457e17084)
REM
REM compiler GCC version 9.2.1 20190827 (Red Hat 9.2.1-1)
REM options -cpp -mtune=generic -march=x86-64 -g -O0 -fpre-include=/usr/include/finclude/math-vector-fortran.h
REM seed 197333084 -1063368209 666915099 1263945118 -502019481 -315241451 -98106608 1917340786 1233693810 459660320 1495770578 -1247143132 787155396 1202330292 -469980813 279046031 1527456344 -1818409494 1722488322 -176768277 -1871764820 -673818367 183454419 -382694258 -1102814515 -1463741972 -1079583984 -400554720 704334306 1502050279 -696441073 1012588577 -1167818072
REM
CELL 1.54180   50.00000   50.00000   50.00000   90.00000   90.00000   90.00000
LATT -1
SFAC C  
C      1  0.4745310000000  0.5515690000000  0.5100420000000 1.0
C      1  0.4743180000000  0.4647030000000  0.5400210000000 1.0
C      1  0.4744620000000  0.4822400000000  0.4498300000000 1.0
C      1  0.5273310000000  0.5471690000000  0.5226260000000 1.0
C      1  0.5269180000000  0.4558980000000  0.5297370000000 1.0
C      1  0.5276120000000  0.4952490000000  0.4473620000000 1.0
C      1  0.4799780000000  0.4371710000000  0.5243510000000 1.0
C      1  0.4805890000000  0.5080600000000  0.4327140000000 1.0
C      1  0.4801750000000  0.5515840000000  0.5416290000000 1.0
C      1  0.5079940000000  0.4333190000000  0.5167430000000 1.0
C      1  0.5079790000000  0.5178120000000  0.4348540000000 1.0
C      1  0.5081530000000  0.5468350000000  0.5487640000000 1.0
C      1  0.4662970000000  0.5221530000000  0.5478080000000 1.0
C      1  0.4662040000000  0.4465130000000  0.4956890000000 1.0
C      1  0.4659160000000  0.5296420000000  0.4577350000000 1.0
C      1  0.5387510000000  0.5155800000000  0.5290580000000 1.0
C      1  0.5390670000000  0.4659280000000  0.4994310000000 1.0
C      1  0.5391270000000  0.5169180000000  0.4711790000000 1.0
C      1  0.5137140000000  0.4818580000000  0.5127830000000 1.0
C      1  0.5136870000000  0.4974970000000  0.4780570000000 1.0
C      1  0.5131340000000  0.5197390000000  0.5089930000000 1.0
C      1  0.4693400000000  0.4730440000000  0.5110360000000 1.0
C      1  0.4701900000000  0.5032220000000  0.4708080000000 1.0
C      1  0.4694390000000  0.5222490000000  0.5171010000000 1.0
C      1  0.4910120000000  0.4600370000000  0.4543860000000 1.0
C      1  0.4910610000000  0.5590270000000  0.4886820000000 1.0
C      1  0.4908880000000  0.4795640000000  0.5570600000000 1.0
C      1  0.5192130000000  0.4653760000000  0.4549510000000 1.0
C      1  0.5192530000000  0.5558320000000  0.4929800000000 1.0
C      1  0.5190630000000  0.4772370000000  0.5521020000000 1.0
C      1  0.5309390000000  0.4506660000000  0.4768960000000 1.0
C      1  0.5308570000000  0.5440590000000  0.4692120000000 1.0
C      1  0.5308820000000  0.5036150000000  0.5536130000000 1.0
C      1  0.4849820000000  0.4400950000000  0.4745110000000 1.0
C      1  0.4848340000000  0.5509220000000  0.4615850000000 1.0
C      1  0.4849770000000  0.5070310000000  0.5641070000000 1.0
C      1  0.5100960000000  0.5437540000000  0.4479760000000 1.0
C      1  0.5105670000000  0.4318230000000  0.4874530000000 1.0
C      1  0.5106400000000  0.5222640000000  0.5647080000000 1.0
C      1  0.4875660000000  0.4992910000000  0.4997690000000 1.0
END
