TITL C-2622957-9142-307 -0.000696161859443752 125000 -663.469246641631 0 0 116 (C1) n - 1
REM
REM in /nfs/bkarasulu/CARBON/AIRSS/Generating-Clusters/AIREBO/with-SteepDescent/Higher-Symm/SD-CG/HFTN-CG
REM
REM
REM
REM
REM
REM ./C.cell (b20cbc046b6831c77cfcea5457e17084)
REM
REM compiler GCC version 9.2.1 20190827 (Red Hat 9.2.1-1)
REM options -cpp -mtune=generic -march=x86-64 -g -O0 -fpre-include=/usr/include/finclude/math-vector-fortran.h
REM seed -951583776 -1898161173 -1390027245 1947466486 -831539313 890960808 2141807598 -112595242 382704727 576524221 -2030420961 -1867158466 -1805640794 -818253218 -664525830 -1320579781 -1810369668 1914089348 -2138047650 -1718362927 -2003550754 1240926495 2067313148 -1735376685 2015324460 1760467717 -493665701 -172315452 1203983933 -861957799 -1081053791 993057046 -466981510
REM
CELL 1.54180   50.00000   50.00000   50.00000   90.00000   90.00000   90.00000
LATT -1
SFAC C  
C      1  0.5645230000000  0.5211070000000  0.5402980000000 1.0
C      1  0.5710690000000  0.5230120000000  0.4547030000000 1.0
C      1  0.5752630000000  0.4497130000000  0.4985730000000 1.0
C      1  0.4447970000000  0.5275170000000  0.4628880000000 1.0
C      1  0.4379850000000  0.5181180000000  0.5378860000000 1.0
C      1  0.4280790000000  0.4530330000000  0.5001680000000 1.0
C      1  0.4326850000000  0.4771460000000  0.4608490000000 1.0
C      1  0.4384520000000  0.4867680000000  0.5488470000000 1.0
C      1  0.4418220000000  0.5445920000000  0.4910290000000 1.0
C      1  0.5675480000000  0.4682970000000  0.5331390000000 1.0
C      1  0.5552940000000  0.4951570000000  0.4506550000000 1.0
C      1  0.5694330000000  0.5543390000000  0.4993820000000 1.0
C      1  0.4925510000000  0.5198780000000  0.4715290000000 1.0
C      1  0.4942210000000  0.4427520000000  0.4862600000000 1.0
C      1  0.4866940000000  0.5131840000000  0.5445500000000 1.0
C      1  0.5133290000000  0.5268250000000  0.5359110000000 1.0
C      1  0.5025060000000  0.4428790000000  0.5156370000000 1.0
C      1  0.5172600000000  0.5139100000000  0.4546820000000 1.0
C      1  0.5119400000000  0.4628760000000  0.5390990000000 1.0
C      1  0.5171560000000  0.5459100000000  0.5090730000000 1.0
C      1  0.5078980000000  0.4818270000000  0.4483950000000 1.0
C      1  0.4875500000000  0.4648800000000  0.4632340000000 1.0
C      1  0.4918980000000  0.5440750000000  0.4899400000000 1.0
C      1  0.4884960000000  0.4810480000000  0.5481270000000 1.0
C      1  0.5718180000000  0.5681140000000  0.5234100000000 1.0
C      1  0.5816370000000  0.4926570000000  0.4310770000000 1.0
C      1  0.5687420000000  0.4404240000000  0.5385840000000 1.0
C      1  0.4141500000000  0.5602130000000  0.4784750000000 1.0
C      1  0.4219940000000  0.5189210000000  0.5834480000000 1.0
C      1  0.4275130000000  0.4505200000000  0.4520330000000 1.0
C      1  0.4268400000000  0.4347740000000  0.4786610000000 1.0
C      1  0.4146740000000  0.5302570000000  0.5587970000000 1.0
C      1  0.4175450000000  0.5429220000000  0.4496130000000 1.0
C      1  0.5849430000000  0.4278220000000  0.5167860000000 1.0
C      1  0.6024130000000  0.5166220000000  0.4414960000000 1.0
C      1  0.5668200000000  0.5478610000000  0.5471210000000 1.0
C      1  0.5975170000000  0.5229600000000  0.4745410000000 1.0
C      1  0.5910130000000  0.4729270000000  0.4880390000000 1.0
C      1  0.5809090000000  0.5122480000000  0.5192680000000 1.0
C      1  0.4058240000000  0.5216060000000  0.5275930000000 1.0
C      1  0.4116660000000  0.4765860000000  0.5022340000000 1.0
C      1  0.4143280000000  0.5203610000000  0.4752170000000 1.0
C      1  0.4126310000000  0.4897620000000  0.5268430000000 1.0
C      1  0.4106730000000  0.5378600000000  0.5036820000000 1.0
C      1  0.4134930000000  0.4905790000000  0.4773730000000 1.0
C      1  0.5927480000000  0.4909780000000  0.4640350000000 1.0
C      1  0.5850890000000  0.5310630000000  0.4993510000000 1.0
C      1  0.5846190000000  0.4843300000000  0.5162250000000 1.0
C      1  0.4617360000000  0.5811800000000  0.4755860000000 1.0
C      1  0.4758550000000  0.4428330000000  0.4420710000000 1.0
C      1  0.4587870000000  0.4737000000000  0.5897240000000 1.0
C      1  0.5237880000000  0.5761870000000  0.5199810000000 1.0
C      1  0.5223460000000  0.4424110000000  0.5640240000000 1.0
C      1  0.5261920000000  0.4795690000000  0.4197570000000 1.0
C      1  0.5259340000000  0.4198030000000  0.5242770000000 1.0
C      1  0.5361840000000  0.5600880000000  0.5696420000000 1.0
C      1  0.5271550000000  0.5241080000000  0.4247430000000 1.0
C      1  0.4736480000000  0.4173930000000  0.4778210000000 1.0
C      1  0.4596370000000  0.5607050000000  0.4339950000000 1.0
C      1  0.4736500000000  0.5197420000000  0.5741530000000 1.0
C      1  0.4744210000000  0.4820730000000  0.4105210000000 1.0
C      1  0.4643840000000  0.4391540000000  0.5547980000000 1.0
C      1  0.4677960000000  0.5716320000000  0.5247990000000 1.0
C      1  0.5179590000000  0.4828470000000  0.5890720000000 1.0
C      1  0.5319380000000  0.4498980000000  0.4479610000000 1.0
C      1  0.5239340000000  0.5774160000000  0.4697970000000 1.0
C      1  0.5305930000000  0.5110930000000  0.5763960000000 1.0
C      1  0.5145120000000  0.5704240000000  0.4400250000000 1.0
C      1  0.5326110000000  0.4360300000000  0.4779210000000 1.0
C      1  0.4686970000000  0.5109620000000  0.4275900000000 1.0
C      1  0.4794870000000  0.5631090000000  0.5556500000000 1.0
C      1  0.4638010000000  0.4335520000000  0.5212630000000 1.0
C      1  0.4973300000000  0.5826560000000  0.5355850000000 1.0
C      1  0.5025060000000  0.4856400000000  0.3991930000000 1.0
C      1  0.4949200000000  0.4273730000000  0.5634770000000 1.0
C      1  0.4912030000000  0.5696760000000  0.4723320000000 1.0
C      1  0.4866660000000  0.4823110000000  0.5794760000000 1.0
C      1  0.5057050000000  0.4326500000000  0.4485380000000 1.0
C      1  0.5072530000000  0.4135750000000  0.4743140000000 1.0
C      1  0.4998870000000  0.5108710000000  0.5915370000000 1.0
C      1  0.4851340000000  0.5676340000000  0.4402010000000 1.0
C      1  0.4904180000000  0.4180930000000  0.5337090000000 1.0
C      1  0.4999430000000  0.5116430000000  0.4164170000000 1.0
C      1  0.5113120000000  0.5551640000000  0.5514760000000 1.0
C      1  0.4613250000000  0.4775040000000  0.4746690000000 1.0
C      1  0.4611240000000  0.4689860000000  0.5392340000000 1.0
C      1  0.4665410000000  0.5450400000000  0.5079300000000 1.0
C      1  0.5374910000000  0.4771810000000  0.5285170000000 1.0
C      1  0.5358130000000  0.4793120000000  0.4621430000000 1.0
C      1  0.5409150000000  0.5525660000000  0.4856680000000 1.0
C      1  0.5371340000000  0.5074000000000  0.5441610000000 1.0
C      1  0.5426290000000  0.5305350000000  0.4643190000000 1.0
C      1  0.5447050000000  0.4557280000000  0.5030110000000 1.0
C      1  0.4671660000000  0.5074240000000  0.4600920000000 1.0
C      1  0.4644430000000  0.5199290000000  0.5244820000000 1.0
C      1  0.4588860000000  0.4637670000000  0.5057060000000 1.0
C      1  0.5423570000000  0.4510320000000  0.4174610000000 1.0
C      1  0.5305550000000  0.4582180000000  0.5890170000000 1.0
C      1  0.5306800000000  0.5922140000000  0.4971140000000 1.0
C      1  0.4508450000000  0.4485390000000  0.5817340000000 1.0
C      1  0.4664960000000  0.4570450000000  0.4164710000000 1.0
C      1  0.4559090000000  0.5893710000000  0.5015410000000 1.0
C      1  0.4675500000000  0.5481070000000  0.5755410000000 1.0
C      1  0.4551960000000  0.5378130000000  0.4200080000000 1.0
C      1  0.4600320000000  0.4111610000000  0.5023320000000 1.0
C      1  0.5289430000000  0.5547290000000  0.4233370000000 1.0
C      1  0.5433060000000  0.5383730000000  0.5847160000000 1.0
C      1  0.5388160000000  0.4134060000000  0.4986710000000 1.0
C      1  0.5444390000000  0.4279070000000  0.5469910000000 1.0
C      1  0.4399170000000  0.5673410000000  0.4573280000000 1.0
C      1  0.5452980000000  0.5735980000000  0.5412400000000 1.0
C      1  0.5511430000000  0.5019640000000  0.4184970000000 1.0
C      1  0.4479150000000  0.5012380000000  0.5782090000000 1.0
C      1  0.4523610000000  0.4277790000000  0.4573030000000 1.0
C      1  0.4694580000000  0.4959370000000  0.5088560000000 1.0
C      1  0.5336460000000  0.4816950000000  0.4897180000000 1.0
END
