TITL C-2622955-8511-597 -0.0028802129972556 125000 -754.552701697269 0 0 144 (C1) n - 1
REM
REM in /nfs/bkarasulu/CARBON/AIRSS/Generating-Clusters/AIREBO/with-SteepDescent/Higher-Symm/SD-CG/HFTN-CG
REM
REM
REM
REM
REM
REM ./C.cell (b20cbc046b6831c77cfcea5457e17084)
REM
REM compiler GCC version 9.2.1 20190827 (Red Hat 9.2.1-1)
REM options -cpp -mtune=generic -march=x86-64 -g -O0 -fpre-include=/usr/include/finclude/math-vector-fortran.h
REM seed -2146696557 -1369262699 -702486872 2027584812 -94304342 1967995938 1593491399 -928357312 2133588819 2064980870 1172223167 -1741490668 2093789022 1158549409 77846053 -1581973278 -399320839 457459996 89270421 -93131118 -445997991 -509002620 222971695 -1924247826 156650580 -746851620 2031449684 -1091116866 866843702 1424593282 1721328971 1376274866 -985819589
REM
CELL 1.54180   50.00000   50.00000   50.00000   90.00000   90.00000   90.00000
LATT -1
SFAC C  
C      1  0.5510980000000  0.5733120000000  0.5033740000000 1.0
C      1  0.5418320000000  0.4266030000000  0.5031490000000 1.0
C      1  0.4139850000000  0.5049550000000  0.5069960000000 1.0
C      1  0.4601540000000  0.5440130000000  0.5760200000000 1.0
C      1  0.5543970000000  0.5268350000000  0.5805550000000 1.0
C      1  0.4861290000000  0.4420140000000  0.5717120000000 1.0
C      1  0.5802070000000  0.4529800000000  0.5185980000000 1.0
C      1  0.4098650000000  0.4577910000000  0.5161570000000 1.0
C      1  0.5116370000000  0.5948790000000  0.5162330000000 1.0
C      1  0.4797630000000  0.4968570000000  0.4152390000000 1.0
C      1  0.5091320000000  0.5151390000000  0.4163860000000 1.0
C      1  0.5248230000000  0.4862730000000  0.4073800000000 1.0
C      1  0.5483190000000  0.4992970000000  0.5410450000000 1.0
C      1  0.4625720000000  0.4585280000000  0.5258720000000 1.0
C      1  0.4846380000000  0.5460260000000  0.5280710000000 1.0
C      1  0.4722330000000  0.3962130000000  0.5011240000000 1.0
C      1  0.4321070000000  0.5782800000000  0.5113200000000 1.0
C      1  0.5987170000000  0.5167150000000  0.5070100000000 1.0
C      1  0.5460700000000  0.4419220000000  0.5486010000000 1.0
C      1  0.4239900000000  0.4888140000000  0.5498240000000 1.0
C      1  0.5373240000000  0.5768450000000  0.5526580000000 1.0
C      1  0.4597480000000  0.5268130000000  0.4324650000000 1.0
C      1  0.5518560000000  0.5207600000000  0.4525120000000 1.0
C      1  0.4977140000000  0.4458720000000  0.4544170000000 1.0
C      1  0.4499660000000  0.5791740000000  0.4816560000000 1.0
C      1  0.5951450000000  0.5025140000000  0.4758250000000 1.0
C      1  0.4568070000000  0.4106730000000  0.4741160000000 1.0
C      1  0.4689570000000  0.5391670000000  0.4873740000000 1.0
C      1  0.5463450000000  0.4910380000000  0.4811980000000 1.0
C      1  0.4709140000000  0.4464180000000  0.4847590000000 1.0
C      1  0.5428090000000  0.4474240000000  0.5753360000000 1.0
C      1  0.4317800000000  0.4950090000000  0.5816720000000 1.0
C      1  0.5249780000000  0.5732330000000  0.5776060000000 1.0
C      1  0.5170740000000  0.4483490000000  0.4805430000000 1.0
C      1  0.4603010000000  0.5001640000000  0.4743110000000 1.0
C      1  0.5304660000000  0.5305740000000  0.4722460000000 1.0
C      1  0.4894720000000  0.4228740000000  0.4932360000000 1.0
C      1  0.4390890000000  0.5464270000000  0.5014280000000 1.0
C      1  0.5600910000000  0.5348240000000  0.4981380000000 1.0
C      1  0.4673600000000  0.4621090000000  0.5593450000000 1.0
C      1  0.4883220000000  0.5462910000000  0.5598040000000 1.0
C      1  0.5461430000000  0.4976650000000  0.5741990000000 1.0
C      1  0.5517190000000  0.4889020000000  0.4476890000000 1.0
C      1  0.4600780000000  0.4605740000000  0.4553410000000 1.0
C      1  0.4847570000000  0.5448530000000  0.4578000000000 1.0
C      1  0.5485090000000  0.4425250000000  0.4449940000000 1.0
C      1  0.4174170000000  0.4823180000000  0.4552150000000 1.0
C      1  0.5214600000000  0.5758310000000  0.4521950000000 1.0
C      1  0.5210810000000  0.5118630000000  0.5317400000000 1.0
C      1  0.4884010000000  0.4785860000000  0.5297970000000 1.0
C      1  0.4870480000000  0.5124570000000  0.5330840000000 1.0
C      1  0.4970120000000  0.5215570000000  0.4950990000000 1.0
C      1  0.5186400000000  0.4974040000000  0.4910980000000 1.0
C      1  0.4807640000000  0.4769310000000  0.4884110000000 1.0
C      1  0.4833170000000  0.5009600000000  0.5952880000000 1.0
C      1  0.5116200000000  0.5186140000000  0.5950180000000 1.0
C      1  0.5125380000000  0.4860690000000  0.5925150000000 1.0
C      1  0.5187790000000  0.4830750000000  0.4537760000000 1.0
C      1  0.4888600000000  0.4786530000000  0.4564530000000 1.0
C      1  0.4798460000000  0.5116480000000  0.4523010000000 1.0
C      1  0.5047270000000  0.5722280000000  0.4266520000000 1.0
C      1  0.5657180000000  0.4536440000000  0.4205780000000 1.0
C      1  0.4299810000000  0.4754070000000  0.4242260000000 1.0
C      1  0.4249580000000  0.5074380000000  0.4335760000000 1.0
C      1  0.5459220000000  0.5582220000000  0.4478600000000 1.0
C      1  0.5195580000000  0.4440800000000  0.4322190000000 1.0
C      1  0.4630210000000  0.4680170000000  0.4222730000000 1.0
C      1  0.4945430000000  0.5445990000000  0.4251890000000 1.0
C      1  0.5579490000000  0.4855210000000  0.4150510000000 1.0
C      1  0.4748230000000  0.4241700000000  0.4491360000000 1.0
C      1  0.4366730000000  0.5526330000000  0.4680860000000 1.0
C      1  0.5831660000000  0.5135890000000  0.4483890000000 1.0
C      1  0.5862870000000  0.5279880000000  0.5345620000000 1.0
C      1  0.4853410000000  0.4088420000000  0.5299320000000 1.0
C      1  0.4306530000000  0.5587060000000  0.5383910000000 1.0
C      1  0.4781410000000  0.5771050000000  0.4663380000000 1.0
C      1  0.5794960000000  0.4756190000000  0.4621220000000 1.0
C      1  0.4374120000000  0.4371530000000  0.4650620000000 1.0
C      1  0.5123980000000  0.4590110000000  0.4087440000000 1.0
C      1  0.4480520000000  0.5071890000000  0.4086070000000 1.0
C      1  0.5362970000000  0.5335020000000  0.4265250000000 1.0
C      1  0.5243650000000  0.3900530000000  0.4663680000000 1.0
C      1  0.4119770000000  0.5246520000000  0.4817940000000 1.0
C      1  0.5926060000000  0.5684520000000  0.4699210000000 1.0
C      1  0.4012800000000  0.4822210000000  0.5292040000000 1.0
C      1  0.5390660000000  0.5943830000000  0.5264450000000 1.0
C      1  0.5612450000000  0.4334030000000  0.5250700000000 1.0
C      1  0.4868180000000  0.6067840000000  0.5041780000000 1.0
C      1  0.5968770000000  0.4485270000000  0.4965590000000 1.0
C      1  0.4188620000000  0.4326650000000  0.5017030000000 1.0
C      1  0.5112720000000  0.4281030000000  0.5188210000000 1.0
C      1  0.4283140000000  0.5290670000000  0.5278730000000 1.0
C      1  0.5614170000000  0.5496240000000  0.5264470000000 1.0
C      1  0.4678760000000  0.5790570000000  0.5679510000000 1.0
C      1  0.5833540000000  0.4825650000000  0.5731380000000 1.0
C      1  0.4407600000000  0.4323870000000  0.5573950000000 1.0
C      1  0.4683280000000  0.4926900000000  0.5659880000000 1.0
C      1  0.5164070000000  0.5353790000000  0.5681540000000 1.0
C      1  0.5215300000000  0.4780310000000  0.5612990000000 1.0
C      1  0.5096160000000  0.4699200000000  0.5046720000000 1.0
C      1  0.4667570000000  0.5103630000000  0.5058730000000 1.0
C      1  0.5270330000000  0.5332620000000  0.5059780000000 1.0
C      1  0.4864670000000  0.4562230000000  0.4006460000000 1.0
C      1  0.4745700000000  0.5288740000000  0.4025760000000 1.0
C      1  0.5451950000000  0.5138460000000  0.4012080000000 1.0
C      1  0.5693540000000  0.5021010000000  0.4979890000000 1.0
C      1  0.4484990000000  0.4277930000000  0.5022950000000 1.0
C      1  0.4622970000000  0.5916630000000  0.5107760000000 1.0
C      1  0.5190700000000  0.4147280000000  0.4820890000000 1.0
C      1  0.4344840000000  0.5191540000000  0.4625120000000 1.0
C      1  0.5639260000000  0.5593010000000  0.4750980000000 1.0
C      1  0.5323840000000  0.5458010000000  0.5963000000000 1.0
C      1  0.5114500000000  0.4535270000000  0.5826080000000 1.0
C      1  0.4555480000000  0.5165830000000  0.5865350000000 1.0
C      1  0.5445730000000  0.4601130000000  0.4738330000000 1.0
C      1  0.4400840000000  0.4761630000000  0.4764600000000 1.0
C      1  0.5105830000000  0.5550560000000  0.4768140000000 1.0
C      1  0.5798800000000  0.5003510000000  0.5530820000000 1.0
C      1  0.4582120000000  0.4270100000000  0.5336250000000 1.0
C      1  0.4620720000000  0.5701550000000  0.5363850000000 1.0
C      1  0.4345150000000  0.5577270000000  0.5679060000000 1.0
C      1  0.5752640000000  0.5377990000000  0.5652230000000 1.0
C      1  0.4843520000000  0.4162180000000  0.5618860000000 1.0
C      1  0.5365600000000  0.4648150000000  0.5252580000000 1.0
C      1  0.4422290000000  0.4926160000000  0.5213700000000 1.0
C      1  0.5226040000000  0.5585590000000  0.5280540000000 1.0
C      1  0.5018050000000  0.5642500000000  0.5050220000000 1.0
C      1  0.5664030000000  0.4806010000000  0.5212340000000 1.0
C      1  0.4398090000000  0.4665130000000  0.5047460000000 1.0
C      1  0.5865930000000  0.5020700000000  0.4229050000000 1.0
C      1  0.4616850000000  0.4341660000000  0.4254010000000 1.0
C      1  0.4465870000000  0.5501780000000  0.4405080000000 1.0
C      1  0.5088320000000  0.4538280000000  0.5410200000000 1.0
C      1  0.4546270000000  0.5147470000000  0.5440120000000 1.0
C      1  0.5379750000000  0.5374590000000  0.5457350000000 1.0
C      1  0.5829820000000  0.4496760000000  0.4718120000000 1.0
C      1  0.4102490000000  0.4497810000000  0.4770470000000 1.0
C      1  0.4981580000000  0.5941690000000  0.4787560000000 1.0
C      1  0.5587800000000  0.4687860000000  0.5840930000000 1.0
C      1  0.4363030000000  0.4641860000000  0.5679590000000 1.0
C      1  0.4976040000000  0.5754210000000  0.5734820000000 1.0
C      1  0.5303270000000  0.5892720000000  0.4814100000000 1.0
C      1  0.5582910000000  0.4263400000000  0.4732610000000 1.0
C      1  0.4017700000000  0.4816450000000  0.4854010000000 1.0
END
