TITL C-2622968-4806-859 0.00179171295946936 125000 -261.557005261854 0 0 51 (C1) n - 1
REM
REM in /nfs/bkarasulu/CARBON/AIRSS/Generating-Clusters/AIREBO/with-SteepDescent/Higher-Symm/SD-CG/HFTN-CG
REM
REM
REM
REM
REM
REM ./C.cell (b20cbc046b6831c77cfcea5457e17084)
REM
REM compiler GCC version 9.2.1 20190827 (Red Hat 9.2.1-1)
REM options -cpp -mtune=generic -march=x86-64 -g -O0 -fpre-include=/usr/include/finclude/math-vector-fortran.h
REM seed 13326534 1908944967 951282303 -1070275419 -179069036 1124089808 379740463 1972342813 -1328439304 1593271751 1619460619 247423318 1459376410 1062397582 470666056 -2115951961 -1273671470 1897576869 2864068 31247720 1057055994 292590921 950369013 -2112097231 22039916 1682289148 -1259306807 -503429236 -1935878480 -1580048791 -255492670 -481167059 -1813758744
REM
CELL 1.54180   50.00000   50.00000   50.00000   90.00000   90.00000   90.00000
LATT -1
SFAC C  
C      1  0.4520840000000  0.5112760000000  0.5411930000000 1.0
C      1  0.4431920000000  0.5258850000000  0.4670450000000 1.0
C      1  0.4348380000000  0.4702760000000  0.4936660000000 1.0
C      1  0.5526420000000  0.5095780000000  0.5472550000000 1.0
C      1  0.5647230000000  0.5172250000000  0.4731980000000 1.0
C      1  0.5616160000000  0.4743840000000  0.4829580000000 1.0
C      1  0.4450870000000  0.4861100000000  0.5482610000000 1.0
C      1  0.4453020000000  0.4807890000000  0.4702900000000 1.0
C      1  0.4185140000000  0.5268130000000  0.4725430000000 1.0
C      1  0.5538760000000  0.4838190000000  0.5580150000000 1.0
C      1  0.5605070000000  0.4804600000000  0.4580200000000 1.0
C      1  0.5572360000000  0.5345060000000  0.4937130000000 1.0
C      1  0.4773390000000  0.5122460000000  0.5218520000000 1.0
C      1  0.4747950000000  0.5169950000000  0.4759770000000 1.0
C      1  0.4680640000000  0.4681180000000  0.5005530000000 1.0
C      1  0.5287940000000  0.5088990000000  0.5253940000000 1.0
C      1  0.5315110000000  0.5109860000000  0.4742370000000 1.0
C      1  0.5338180000000  0.4712680000000  0.4962550000000 1.0
C      1  0.4874840000000  0.4840150000000  0.5207540000000 1.0
C      1  0.4789190000000  0.4857060000000  0.4735500000000 1.0
C      1  0.4905840000000  0.5283460000000  0.4989000000000 1.0
C      1  0.5169100000000  0.4827240000000  0.5210310000000 1.0
C      1  0.5112620000000  0.4845900000000  0.4755000000000 1.0
C      1  0.5244800000000  0.5289900000000  0.5018150000000 1.0
C      1  0.4843500000000  0.4351610000000  0.4852430000000 1.0
C      1  0.4867510000000  0.5172300000000  0.5602180000000 1.0
C      1  0.4866520000000  0.5520590000000  0.4589150000000 1.0
C      1  0.5149900000000  0.4383110000000  0.4848390000000 1.0
C      1  0.5171610000000  0.5204020000000  0.5618100000000 1.0
C      1  0.5167630000000  0.5434770000000  0.4562780000000 1.0
C      1  0.4833900000000  0.5656070000000  0.4867480000000 1.0
C      1  0.4831740000000  0.4862020000000  0.5603760000000 1.0
C      1  0.4892530000000  0.4507490000000  0.4571900000000 1.0
C      1  0.5149040000000  0.5632520000000  0.4840070000000 1.0
C      1  0.5142200000000  0.4884430000000  0.5604160000000 1.0
C      1  0.5203060000000  0.4507630000000  0.4566530000000 1.0
C      1  0.5344110000000  0.5383740000000  0.5394010000000 1.0
C      1  0.5150660000000  0.5111200000000  0.4458620000000 1.0
C      1  0.5269120000000  0.4445540000000  0.5161230000000 1.0
C      1  0.4683760000000  0.5396550000000  0.5450880000000 1.0
C      1  0.4679110000000  0.5305380000000  0.4458780000000 1.0
C      1  0.4736270000000  0.4401440000000  0.5167320000000 1.0
C      1  0.5309850000000  0.4637390000000  0.5441200000000 1.0
C      1  0.5309580000000  0.4809010000000  0.4480240000000 1.0
C      1  0.5283620000000  0.5601050000000  0.5150860000000 1.0
C      1  0.4682350000000  0.4638120000000  0.5402100000000 1.0
C      1  0.4780890000000  0.4748380000000  0.4413380000000 1.0
C      1  0.4771800000000  0.5519600000000  0.5173050000000 1.0
C      1  0.4859360000000  0.5048180000000  0.4391470000000 1.0
C      1  0.5015860000000  0.4244940000000  0.5197400000000 1.0
C      1  0.5003670000000  0.5752880000000  0.5212780000000 1.0
END
