TITL C-2622958-629-26 0.00672228441668157 125000 -607.461686917727 0 0 115 (C1) n - 1
REM
REM in /nfs/bkarasulu/CARBON/AIRSS/Generating-Clusters/AIREBO/with-SteepDescent/Higher-Symm/SD-CG/HFTN-CG
REM
REM
REM
REM
REM
REM ./C.cell (b20cbc046b6831c77cfcea5457e17084)
REM
REM compiler GCC version 9.2.1 20190827 (Red Hat 9.2.1-1)
REM options -cpp -mtune=generic -march=x86-64 -g -O0 -fpre-include=/usr/include/finclude/math-vector-fortran.h
REM seed 967493651 1653281756 1555209365 -1164988256 117966183 1204107802 243805311 1494859856 1909492589 -961678341 -1140430890 1576023422 96811667 281466006 -1444793156 1894667150 -1008613582 -381475640 1158957394 2013112980 1218672977 -1401044817 949139282 -860128084 -1950722359 -221943971 -1233597739 -834463261 -496118084 618625231 -1674565821 -1365479445 547242512
REM
CELL 1.54180   50.00000   50.00000   50.00000   90.00000   90.00000   90.00000
LATT -1
SFAC C  
C      1  0.4799110000000  0.4259210000000  0.5602750000000 1.0
C      1  0.4400450000000  0.4826010000000  0.5701900000000 1.0
C      1  0.4503700000000  0.5324040000000  0.5584130000000 1.0
C      1  0.4908260000000  0.5655660000000  0.5641880000000 1.0
C      1  0.5503700000000  0.5408620000000  0.5558410000000 1.0
C      1  0.5625650000000  0.4881240000000  0.5569870000000 1.0
C      1  0.5368230000000  0.4365000000000  0.5679780000000 1.0
C      1  0.3995340000000  0.5125470000000  0.5012300000000 1.0
C      1  0.4224360000000  0.5677530000000  0.5060610000000 1.0
C      1  0.5057490000000  0.5856550000000  0.5076480000000 1.0
C      1  0.5781290000000  0.5370660000000  0.5039130000000 1.0
C      1  0.5903450000000  0.4694980000000  0.5066330000000 1.0
C      1  0.5257330000000  0.4089260000000  0.4968710000000 1.0
C      1  0.4570150000000  0.4277220000000  0.5036600000000 1.0
C      1  0.5129450000000  0.4098610000000  0.5208760000000 1.0
C      1  0.4412920000000  0.4209390000000  0.5309670000000 1.0
C      1  0.4070290000000  0.5107940000000  0.5316390000000 1.0
C      1  0.4326960000000  0.5735960000000  0.5306240000000 1.0
C      1  0.5269930000000  0.5949950000000  0.5320520000000 1.0
C      1  0.5955460000000  0.5462770000000  0.5298910000000 1.0
C      1  0.5899620000000  0.4526010000000  0.5308710000000 1.0
C      1  0.4319940000000  0.5370620000000  0.4394580000000 1.0
C      1  0.4873680000000  0.5788710000000  0.4278730000000 1.0
C      1  0.5385170000000  0.5644830000000  0.4571530000000 1.0
C      1  0.5893300000000  0.5023640000000  0.4537490000000 1.0
C      1  0.5594310000000  0.4387480000000  0.4566920000000 1.0
C      1  0.4754900000000  0.4296320000000  0.4252260000000 1.0
C      1  0.4149810000000  0.4577010000000  0.4727420000000 1.0
C      1  0.5122100000000  0.5381590000000  0.5444590000000 1.0
C      1  0.5514210000000  0.5136760000000  0.5266640000000 1.0
C      1  0.5329500000000  0.4687680000000  0.5388590000000 1.0
C      1  0.4877360000000  0.4591720000000  0.5401380000000 1.0
C      1  0.4828530000000  0.4922390000000  0.5464160000000 1.0
C      1  0.4624490000000  0.5104430000000  0.5273470000000 1.0
C      1  0.4817470000000  0.5375670000000  0.5343310000000 1.0
C      1  0.5125500000000  0.4797110000000  0.4386730000000 1.0
C      1  0.4425020000000  0.4719090000000  0.4380110000000 1.0
C      1  0.4620450000000  0.4923170000000  0.4279930000000 1.0
C      1  0.4816480000000  0.5166590000000  0.4416720000000 1.0
C      1  0.5081870000000  0.5314770000000  0.4378920000000 1.0
C      1  0.5356070000000  0.5132950000000  0.4416970000000 1.0
C      1  0.5447830000000  0.4817670000000  0.4325260000000 1.0
C      1  0.4774290000000  0.5853690000000  0.4515580000000 1.0
C      1  0.5487640000000  0.5744780000000  0.4840270000000 1.0
C      1  0.6020540000000  0.5023210000000  0.4786250000000 1.0
C      1  0.5655740000000  0.4278290000000  0.4862700000000 1.0
C      1  0.4989460000000  0.4279250000000  0.4399880000000 1.0
C      1  0.4124290000000  0.4478470000000  0.4982310000000 1.0
C      1  0.4129930000000  0.5535400000000  0.4288870000000 1.0
C      1  0.4598650000000  0.5748820000000  0.4773070000000 1.0
C      1  0.5093530000000  0.5573290000000  0.4600020000000 1.0
C      1  0.5572620000000  0.5012760000000  0.4650030000000 1.0
C      1  0.5439230000000  0.4600630000000  0.4781670000000 1.0
C      1  0.4960670000000  0.4408420000000  0.4711310000000 1.0
C      1  0.4466900000000  0.4637730000000  0.4696900000000 1.0
C      1  0.4317490000000  0.5295760000000  0.4699780000000 1.0
C      1  0.4408610000000  0.4563460000000  0.5124320000000 1.0
C      1  0.4326010000000  0.5204260000000  0.5027230000000 1.0
C      1  0.4714570000000  0.5624110000000  0.5049910000000 1.0
C      1  0.5305830000000  0.5624780000000  0.5092220000000 1.0
C      1  0.5810040000000  0.5070550000000  0.5009970000000 1.0
C      1  0.5541730000000  0.4517120000000  0.5094930000000 1.0
C      1  0.4945400000000  0.4414830000000  0.5050920000000 1.0
C      1  0.5488020000000  0.5694920000000  0.5375610000000 1.0
C      1  0.5846080000000  0.4922100000000  0.5313800000000 1.0
C      1  0.5456330000000  0.4313240000000  0.5353420000000 1.0
C      1  0.4808150000000  0.4192260000000  0.5268960000000 1.0
C      1  0.4328700000000  0.4631030000000  0.5439640000000 1.0
C      1  0.4288430000000  0.5340710000000  0.5353220000000 1.0
C      1  0.4844140000000  0.5772140000000  0.5327410000000 1.0
C      1  0.4751080000000  0.4784180000000  0.4807220000000 1.0
C      1  0.4526470000000  0.5027950000000  0.4731390000000 1.0
C      1  0.4812570000000  0.5171320000000  0.4730990000000 1.0
C      1  0.5064610000000  0.5325980000000  0.4800180000000 1.0
C      1  0.5328770000000  0.5176670000000  0.4813000000000 1.0
C      1  0.5268800000000  0.4864140000000  0.4861700000000 1.0
C      1  0.5043800000000  0.4736090000000  0.4674070000000 1.0
C      1  0.4548350000000  0.4402270000000  0.4396930000000 1.0
C      1  0.4146400000000  0.4825570000000  0.4552870000000 1.0
C      1  0.4523760000000  0.5236800000000  0.4264290000000 1.0
C      1  0.5040730000000  0.5585620000000  0.4204070000000 1.0
C      1  0.5556490000000  0.5388220000000  0.4518390000000 1.0
C      1  0.5763750000000  0.4757900000000  0.4423010000000 1.0
C      1  0.5501060000000  0.4481470000000  0.4319170000000 1.0
C      1  0.4702950000000  0.4862160000000  0.5764380000000 1.0
C      1  0.4713800000000  0.5200070000000  0.5728190000000 1.0
C      1  0.4938030000000  0.5367460000000  0.5793830000000 1.0
C      1  0.5253740000000  0.5248990000000  0.5728690000000 1.0
C      1  0.5381120000000  0.4934050000000  0.5744830000000 1.0
C      1  0.5197780000000  0.4650990000000  0.5699980000000 1.0
C      1  0.4874290000000  0.4567040000000  0.5740500000000 1.0
C      1  0.4952200000000  0.5815240000000  0.4792730000000 1.0
C      1  0.5695780000000  0.5519320000000  0.4779990000000 1.0
C      1  0.5755020000000  0.4725320000000  0.4761430000000 1.0
C      1  0.5261510000000  0.4311530000000  0.4804730000000 1.0
C      1  0.4625020000000  0.4357840000000  0.4731120000000 1.0
C      1  0.4077950000000  0.5054470000000  0.4702080000000 1.0
C      1  0.4334040000000  0.5612780000000  0.4821610000000 1.0
C      1  0.4346560000000  0.4952990000000  0.5397740000000 1.0
C      1  0.4579090000000  0.5603870000000  0.5425600000000 1.0
C      1  0.5190390000000  0.5671930000000  0.5496020000000 1.0
C      1  0.5766070000000  0.5227860000000  0.5439680000000 1.0
C      1  0.5637810000000  0.4572630000000  0.5477410000000 1.0
C      1  0.5129350000000  0.4347900000000  0.5440090000000 1.0
C      1  0.4576280000000  0.4448140000000  0.5468140000000 1.0
C      1  0.5454090000000  0.5336620000000  0.5040560000000 1.0
C      1  0.5542320000000  0.4865160000000  0.5063820000000 1.0
C      1  0.5205740000000  0.4564990000000  0.5116590000000 1.0
C      1  0.4737100000000  0.4647080000000  0.5096510000000 1.0
C      1  0.4421830000000  0.4878330000000  0.5013190000000 1.0
C      1  0.4650970000000  0.5299210000000  0.4995610000000 1.0
C      1  0.5008680000000  0.5460050000000  0.5074040000000 1.0
C      1  0.4918220000000  0.4828130000000  0.4212280000000 1.0
C      1  0.5071500000000  0.5078420000000  0.5417590000000 1.0
C      1  0.5292130000000  0.4968080000000  0.5357050000000 1.0
END
