TITL C-2622954-8726-367 -0.000245175027823117 125000 -247.137631771822 0 0 45 (C1) n - 1
REM
REM in /nfs/bkarasulu/CARBON/AIRSS/Generating-Clusters/AIREBO/with-SteepDescent/Higher-Symm/SD-CG/HFTN-CG
REM
REM
REM
REM
REM
REM ./C.cell (b20cbc046b6831c77cfcea5457e17084)
REM
REM compiler GCC version 9.2.1 20190827 (Red Hat 9.2.1-1)
REM options -cpp -mtune=generic -march=x86-64 -g -O0 -fpre-include=/usr/include/finclude/math-vector-fortran.h
REM seed 2015816211 947249221 -1711842848 1062666099 1035814287 -294277360 715618130 -1299408936 -259251647 1470116650 28136292 674970013 -1941924855 -1045649686 -1319200443 1231393467 90326974 1285172441 798067237 -1432959882 -918972553 -1826056210 -745048410 1399654316 -1792286178 -1287909109 -1128670871 -453183446 1433268126 -1235497462 400627453 1471669156 551821992
REM
CELL 1.54180   50.00000   50.00000   50.00000   90.00000   90.00000   90.00000
LATT -1
SFAC C  
C      1  0.5036130000000  0.4681110000000  0.5528300000000 1.0
C      1  0.5257680000000  0.5190770000000  0.5522530000000 1.0
C      1  0.4707610000000  0.5125900000000  0.5519010000000 1.0
C      1  0.5013380000000  0.4702590000000  0.4517430000000 1.0
C      1  0.5270300000000  0.5201550000000  0.4495980000000 1.0
C      1  0.4730730000000  0.5159240000000  0.4453490000000 1.0
C      1  0.4980590000000  0.5308610000000  0.5552840000000 1.0
C      1  0.5275760000000  0.4863270000000  0.5559040000000 1.0
C      1  0.4742760000000  0.4828540000000  0.5562800000000 1.0
C      1  0.5004770000000  0.5338520000000  0.4451320000000 1.0
C      1  0.5259150000000  0.4873240000000  0.4473720000000 1.0
C      1  0.4720270000000  0.4863020000000  0.4513830000000 1.0
C      1  0.5406430000000  0.5297500000000  0.5275270000000 1.0
C      1  0.4542660000000  0.5190530000000  0.5267440000000 1.0
C      1  0.5056570000000  0.4498420000000  0.5281480000000 1.0
C      1  0.5414190000000  0.5305390000000  0.4748010000000 1.0
C      1  0.4577790000000  0.5164500000000  0.4734400000000 1.0
C      1  0.5048020000000  0.4506040000000  0.4751880000000 1.0
C      1  0.5350560000000  0.4715140000000  0.5283790000000 1.0
C      1  0.4573790000000  0.4827160000000  0.5289620000000 1.0
C      1  0.5073240000000  0.5447250000000  0.5277600000000 1.0
C      1  0.5341740000000  0.4722960000000  0.4744900000000 1.0
C      1  0.4539140000000  0.4801810000000  0.4756330000000 1.0
C      1  0.5081360000000  0.5455920000000  0.4739660000000 1.0
C      1  0.5633580000000  0.5111020000000  0.4808420000000 1.0
C      1  0.4595500000000  0.5460080000000  0.4800710000000 1.0
C      1  0.4783430000000  0.4383150000000  0.4809610000000 1.0
C      1  0.5630840000000  0.5109090000000  0.5216370000000 1.0
C      1  0.4590410000000  0.5477010000000  0.5200260000000 1.0
C      1  0.4783740000000  0.4390210000000  0.5225740000000 1.0
C      1  0.5605900000000  0.4858060000000  0.4803100000000 1.0
C      1  0.4564800000000  0.4512130000000  0.4816270000000 1.0
C      1  0.4816630000000  0.5586610000000  0.4810200000000 1.0
C      1  0.5610950000000  0.4855330000000  0.5219910000000 1.0
C      1  0.4570370000000  0.4529080000000  0.5234200000000 1.0
C      1  0.4816420000000  0.5593610000000  0.5210110000000 1.0
C      1  0.4774800000000  0.5387890000000  0.4228360000000 1.0
C      1  0.4793690000000  0.4643960000000  0.4284750000000 1.0
C      1  0.5429010000000  0.5043200000000  0.4258220000000 1.0
C      1  0.4838360000000  0.4607240000000  0.5777380000000 1.0
C      1  0.5423370000000  0.5057430000000  0.5770330000000 1.0
C      1  0.4736140000000  0.5344050000000  0.5760510000000 1.0
C      1  0.5236140000000  0.5362450000000  0.5009660000000 1.0
C      1  0.5190930000000  0.4624310000000  0.5016050000000 1.0
C      1  0.4570380000000  0.4995110000000  0.5012290000000 1.0
END
