TITL C-2622956-4641-443 -0.000567828975822513 125000 -653.7235186279 0 0 116 (C1) n - 1
REM
REM in /nfs/bkarasulu/CARBON/AIRSS/Generating-Clusters/AIREBO/with-SteepDescent/Higher-Symm/SD-CG/HFTN-CG
REM
REM
REM
REM
REM
REM ./C.cell (b20cbc046b6831c77cfcea5457e17084)
REM
REM compiler GCC version 9.2.1 20190827 (Red Hat 9.2.1-1)
REM options -cpp -mtune=generic -march=x86-64 -g -O0 -fpre-include=/usr/include/finclude/math-vector-fortran.h
REM seed -539414453 -283212626 1902114144 -1508693988 847199021 22844134 169454418 1293834367 1297652787 -1322323641 1191380536 440752847 1127485714 -1077485522 1364030236 -1361827505 1617006136 -1888487878 1497038967 -1174846338 1328563432 -1205316537 1781875808 1714681915 -2114597426 496357226 1790550183 -807832282 297905495 1859651818 1570569303 957118845 -865320130
REM
CELL 1.54180   50.00000   50.00000   50.00000   90.00000   90.00000   90.00000
LATT -1
SFAC C  
C      1  0.5709640000000  0.4601870000000  0.5536690000000 1.0
C      1  0.4604010000000  0.4286240000000  0.5506050000000 1.0
C      1  0.4300090000000  0.5420860000000  0.5505830000000 1.0
C      1  0.5402140000000  0.5679980000000  0.5618850000000 1.0
C      1  0.4494280000000  0.4767230000000  0.5678050000000 1.0
C      1  0.4775480000000  0.5496180000000  0.5659150000000 1.0
C      1  0.5500580000000  0.5215290000000  0.5724940000000 1.0
C      1  0.5229310000000  0.4485410000000  0.5687480000000 1.0
C      1  0.4633510000000  0.4190040000000  0.4980880000000 1.0
C      1  0.4162940000000  0.5398560000000  0.4995010000000 1.0
C      1  0.5328620000000  0.5937120000000  0.4920960000000 1.0
C      1  0.5862170000000  0.4576050000000  0.5015600000000 1.0
C      1  0.4833840000000  0.4551210000000  0.5836360000000 1.0
C      1  0.4561370000000  0.5150670000000  0.5821290000000 1.0
C      1  0.5121550000000  0.5389960000000  0.5873120000000 1.0
C      1  0.5428830000000  0.4831170000000  0.5854640000000 1.0
C      1  0.4835860000000  0.4367140000000  0.5298380000000 1.0
C      1  0.4369850000000  0.5185270000000  0.5301900000000 1.0
C      1  0.5242850000000  0.5631020000000  0.5320240000000 1.0
C      1  0.5625780000000  0.4816450000000  0.5320470000000 1.0
C      1  0.4205570000000  0.5412760000000  0.4713730000000 1.0
C      1  0.5388630000000  0.5834740000000  0.4664650000000 1.0
C      1  0.5651200000000  0.4649670000000  0.4764240000000 1.0
C      1  0.4609170000000  0.4285530000000  0.4710620000000 1.0
C      1  0.5488740000000  0.4302900000000  0.5146870000000 1.0
C      1  0.4300720000000  0.4529110000000  0.5139040000000 1.0
C      1  0.4564040000000  0.5650630000000  0.5096500000000 1.0
C      1  0.5799620000000  0.5482650000000  0.5123790000000 1.0
C      1  0.4180610000000  0.5157370000000  0.4582200000000 1.0
C      1  0.5158070000000  0.5772750000000  0.4514690000000 1.0
C      1  0.5686690000000  0.4898830000000  0.4560260000000 1.0
C      1  0.4849340000000  0.4294350000000  0.4559650000000 1.0
C      1  0.5861570000000  0.4892000000000  0.5629390000000 1.0
C      1  0.4874500000000  0.4110630000000  0.5600630000000 1.0
C      1  0.4130290000000  0.5148530000000  0.5618200000000 1.0
C      1  0.5132260000000  0.5862470000000  0.5626750000000 1.0
C      1  0.5470420000000  0.5413450000000  0.5074400000000 1.0
C      1  0.5369300000000  0.4663450000000  0.4939470000000 1.0
C      1  0.4586800000000  0.4590960000000  0.4966000000000 1.0
C      1  0.4758160000000  0.5383450000000  0.5046570000000 1.0
C      1  0.5751530000000  0.5490990000000  0.4803600000000 1.0
C      1  0.5448080000000  0.4224120000000  0.4879180000000 1.0
C      1  0.4213810000000  0.4552930000000  0.4828960000000 1.0
C      1  0.4571730000000  0.5748620000000  0.4802510000000 1.0
C      1  0.4582970000000  0.4505960000000  0.5721280000000 1.0
C      1  0.4523700000000  0.5406030000000  0.5721170000000 1.0
C      1  0.5383430000000  0.5451430000000  0.5811290000000 1.0
C      1  0.5483350000000  0.4580890000000  0.5745820000000 1.0
C      1  0.5113900000000  0.4236270000000  0.5579800000000 1.0
C      1  0.4245910000000  0.4904670000000  0.5591570000000 1.0
C      1  0.4897280000000  0.5745710000000  0.5562430000000 1.0
C      1  0.5725810000000  0.5129900000000  0.5577540000000 1.0
C      1  0.4293330000000  0.5562430000000  0.5196360000000 1.0
C      1  0.5572430000000  0.5597860000000  0.5348980000000 1.0
C      1  0.5718730000000  0.4436440000000  0.5237910000000 1.0
C      1  0.4462050000000  0.4269780000000  0.5200610000000 1.0
C      1  0.4398560000000  0.5608350000000  0.4619860000000 1.0
C      1  0.5617120000000  0.5664770000000  0.4616850000000 1.0
C      1  0.5622590000000  0.4343130000000  0.4685480000000 1.0
C      1  0.4354700000000  0.4387670000000  0.4632660000000 1.0
C      1  0.4404000000000  0.4885350000000  0.4992320000000 1.0
C      1  0.4994300000000  0.5579860000000  0.4915560000000 1.0
C      1  0.5624510000000  0.5020610000000  0.4930420000000 1.0
C      1  0.5130280000000  0.4435160000000  0.4996720000000 1.0
C      1  0.4779320000000  0.5147600000000  0.4420780000000 1.0
C      1  0.5100450000000  0.5202890000000  0.4320300000000 1.0
C      1  0.5325950000000  0.4745970000000  0.4498560000000 1.0
C      1  0.4700920000000  0.4720100000000  0.4466680000000 1.0
C      1  0.5062560000000  0.5351460000000  0.5301610000000 1.0
C      1  0.5387560000000  0.5007710000000  0.5333660000000 1.0
C      1  0.5010790000000  0.4624910000000  0.5326980000000 1.0
C      1  0.4612620000000  0.4988460000000  0.5316500000000 1.0
C      1  0.5189560000000  0.5311090000000  0.4988550000000 1.0
C      1  0.5294810000000  0.4988310000000  0.5007070000000 1.0
C      1  0.4880600000000  0.4658770000000  0.5014720000000 1.0
C      1  0.4655580000000  0.5114050000000  0.5001340000000 1.0
C      1  0.4895620000000  0.4792940000000  0.4735840000000 1.0
C      1  0.4726800000000  0.5044640000000  0.4698380000000 1.0
C      1  0.5153400000000  0.5250840000000  0.4652760000000 1.0
C      1  0.5171450000000  0.4914390000000  0.4698920000000 1.0
C      1  0.4540330000000  0.5291060000000  0.4298210000000 1.0
C      1  0.5384930000000  0.5602130000000  0.4196570000000 1.0
C      1  0.5530290000000  0.4581980000000  0.4280800000000 1.0
C      1  0.4561710000000  0.4598450000000  0.4180370000000 1.0
C      1  0.4385930000000  0.4845530000000  0.4439870000000 1.0
C      1  0.4803000000000  0.5662580000000  0.4382420000000 1.0
C      1  0.5456070000000  0.5225640000000  0.4498290000000 1.0
C      1  0.5202300000000  0.4436590000000  0.4449840000000 1.0
C      1  0.4318270000000  0.5132140000000  0.4318750000000 1.0
C      1  0.5082830000000  0.5540170000000  0.4277260000000 1.0
C      1  0.5467310000000  0.4970360000000  0.4310340000000 1.0
C      1  0.4927670000000  0.4517670000000  0.4314250000000 1.0
C      1  0.4541380000000  0.5557700000000  0.4372030000000 1.0
C      1  0.5552900000000  0.5502260000000  0.4387010000000 1.0
C      1  0.5518860000000  0.4322290000000  0.4425340000000 1.0
C      1  0.4351890000000  0.4521030000000  0.4386460000000 1.0
C      1  0.4216790000000  0.4857810000000  0.4719060000000 1.0
C      1  0.4868850000000  0.5742370000000  0.4683380000000 1.0
C      1  0.5702650000000  0.5207130000000  0.4703450000000 1.0
C      1  0.5148520000000  0.4254390000000  0.4716670000000 1.0
C      1  0.4182070000000  0.5125820000000  0.5084900000000 1.0
C      1  0.5171110000000  0.5779650000000  0.5075740000000 1.0
C      1  0.5769790000000  0.4848220000000  0.5089760000000 1.0
C      1  0.4909830000000  0.4188040000000  0.5074180000000 1.0
C      1  0.5019210000000  0.4746250000000  0.5628440000000 1.0
C      1  0.4761630000000  0.4968050000000  0.5615860000000 1.0
C      1  0.4979800000000  0.5228910000000  0.5609260000000 1.0
C      1  0.5241440000000  0.5013400000000  0.5637110000000 1.0
C      1  0.4813580000000  0.4992990000000  0.4140530000000 1.0
C      1  0.5058820000000  0.5140790000000  0.3988600000000 1.0
C      1  0.5279150000000  0.4909690000000  0.4076380000000 1.0
C      1  0.5011090000000  0.4773710000000  0.4138470000000 1.0
C      1  0.5233840000000  0.4354090000000  0.5310270000000 1.0
C      1  0.4337420000000  0.4788630000000  0.5311470000000 1.0
C      1  0.4845060000000  0.5612300000000  0.5284010000000 1.0
C      1  0.5653210000000  0.5213180000000  0.5279600000000 1.0
END
