TITL C-2622968-4806-854 -0.00200090464813552 125000 -613.038852665191 0 0 115 (C1) n - 1
REM
REM in /nfs/bkarasulu/CARBON/AIRSS/Generating-Clusters/AIREBO/with-SteepDescent/Higher-Symm/SD-CG/HFTN-CG
REM
REM
REM
REM
REM
REM ./C.cell (b20cbc046b6831c77cfcea5457e17084)
REM
REM compiler GCC version 9.2.1 20190827 (Red Hat 9.2.1-1)
REM options -cpp -mtune=generic -march=x86-64 -g -O0 -fpre-include=/usr/include/finclude/math-vector-fortran.h
REM seed -785776271 2047579 -897206122 47650177 -1711422837 686756979 1795675137 -98168699 -1179775768 -1568543541 -875677307 -1904518392 253426852 1039889028 -2002239868 -242381066 591284054 -867307954 706399379 -300942507 19571819 1445389126 -443807354 824400225 676934816 1391627040 1990832746 -344363945 -1621170494 -518356053 965011836 718561533 -1657037315
REM
CELL 1.54180   50.00000   50.00000   50.00000   90.00000   90.00000   90.00000
LATT -1
SFAC C  
C      1  0.4551850000000  0.5001780000000  0.4795820000000 1.0
C      1  0.4200740000000  0.4856910000000  0.5611810000000 1.0
C      1  0.4408900000000  0.4272000000000  0.4746850000000 1.0
C      1  0.5756100000000  0.5160660000000  0.5317960000000 1.0
C      1  0.4898050000000  0.4620800000000  0.5259760000000 1.0
C      1  0.5808040000000  0.5302250000000  0.5024490000000 1.0
C      1  0.4974740000000  0.4344920000000  0.5624570000000 1.0
C      1  0.4718450000000  0.4310640000000  0.5457080000000 1.0
C      1  0.4868380000000  0.5248450000000  0.4045140000000 1.0
C      1  0.5147790000000  0.4633640000000  0.4744160000000 1.0
C      1  0.4500400000000  0.5917610000000  0.4899550000000 1.0
C      1  0.4643370000000  0.5237870000000  0.5308190000000 1.0
C      1  0.4555930000000  0.5281220000000  0.5694630000000 1.0
C      1  0.4741220000000  0.4275160000000  0.4831790000000 1.0
C      1  0.5247210000000  0.4764920000000  0.4473110000000 1.0
C      1  0.4153370000000  0.5242350000000  0.5291800000000 1.0
C      1  0.5036960000000  0.4193690000000  0.4453840000000 1.0
C      1  0.4766470000000  0.5015170000000  0.4555350000000 1.0
C      1  0.4130360000000  0.5162450000000  0.4772460000000 1.0
C      1  0.4644120000000  0.5166310000000  0.4276370000000 1.0
C      1  0.5628940000000  0.5342480000000  0.5507620000000 1.0
C      1  0.4853940000000  0.5340910000000  0.6085670000000 1.0
C      1  0.4977880000000  0.4978380000000  0.5753690000000 1.0
C      1  0.5494930000000  0.4372130000000  0.4545110000000 1.0
C      1  0.4502060000000  0.4828680000000  0.5312080000000 1.0
C      1  0.5695710000000  0.5407260000000  0.4397270000000 1.0
C      1  0.4739920000000  0.5281300000000  0.5020080000000 1.0
C      1  0.4437250000000  0.4710380000000  0.4412630000000 1.0
C      1  0.5297710000000  0.4182840000000  0.4371350000000 1.0
C      1  0.4583900000000  0.5336540000000  0.4745590000000 1.0
C      1  0.4404930000000  0.5018970000000  0.5075830000000 1.0
C      1  0.5542110000000  0.4270650000000  0.5000040000000 1.0
C      1  0.5753880000000  0.5298840000000  0.4706750000000 1.0
C      1  0.4300110000000  0.5511200000000  0.4406080000000 1.0
C      1  0.5869610000000  0.4990470000000  0.4786530000000 1.0
C      1  0.4344750000000  0.4785980000000  0.5844940000000 1.0
C      1  0.4755870000000  0.5409320000000  0.4492450000000 1.0
C      1  0.4485390000000  0.4101420000000  0.5324730000000 1.0
C      1  0.4751650000000  0.5725720000000  0.4771090000000 1.0
C      1  0.5017580000000  0.5564170000000  0.4647000000000 1.0
C      1  0.4878300000000  0.4410890000000  0.4387940000000 1.0
C      1  0.5258660000000  0.4383270000000  0.5256610000000 1.0
C      1  0.5015470000000  0.4130950000000  0.4748790000000 1.0
C      1  0.4278380000000  0.5429350000000  0.4795160000000 1.0
C      1  0.5224470000000  0.5690270000000  0.5511660000000 1.0
C      1  0.4160560000000  0.4653460000000  0.5418220000000 1.0
C      1  0.4611650000000  0.4834110000000  0.5822320000000 1.0
C      1  0.5968940000000  0.5008250000000  0.5107190000000 1.0
C      1  0.5859400000000  0.4706280000000  0.4992790000000 1.0
C      1  0.4991510000000  0.5480330000000  0.4257870000000 1.0
C      1  0.5189470000000  0.5231000000000  0.4161960000000 1.0
C      1  0.5501500000000  0.5403940000000  0.5130920000000 1.0
C      1  0.4959180000000  0.5655380000000  0.5297240000000 1.0
C      1  0.5455830000000  0.4824810000000  0.5003140000000 1.0
C      1  0.5503010000000  0.5616570000000  0.5390770000000 1.0
C      1  0.5070450000000  0.4278740000000  0.5058720000000 1.0
C      1  0.4929800000000  0.4803430000000  0.4899430000000 1.0
C      1  0.4751180000000  0.4742190000000  0.5526730000000 1.0
C      1  0.4303640000000  0.4963010000000  0.4572820000000 1.0
C      1  0.5000710000000  0.5114880000000  0.4950410000000 1.0
C      1  0.5367630000000  0.4680370000000  0.5361700000000 1.0
C      1  0.4435220000000  0.5693920000000  0.4650200000000 1.0
C      1  0.4871830000000  0.4853070000000  0.4176900000000 1.0
C      1  0.5637630000000  0.4873280000000  0.5285570000000 1.0
C      1  0.4622450000000  0.4489230000000  0.4595600000000 1.0
C      1  0.4990360000000  0.5518150000000  0.5963630000000 1.0
C      1  0.4776840000000  0.4359410000000  0.5134680000000 1.0
C      1  0.4757960000000  0.5473590000000  0.5502430000000 1.0
C      1  0.5055050000000  0.5939410000000  0.5137690000000 1.0
C      1  0.5277570000000  0.5889560000000  0.4979150000000 1.0
C      1  0.4136850000000  0.4730480000000  0.5133380000000 1.0
C      1  0.5173280000000  0.5205530000000  0.5606210000000 1.0
C      1  0.5656290000000  0.5074860000000  0.4391310000000 1.0
C      1  0.5740730000000  0.4778980000000  0.4383640000000 1.0
C      1  0.4369320000000  0.5637310000000  0.5040450000000 1.0
C      1  0.5018930000000  0.4642830000000  0.5717220000000 1.0
C      1  0.5457520000000  0.5139760000000  0.4921290000000 1.0
C      1  0.5447610000000  0.5620190000000  0.4444580000000 1.0
C      1  0.5152170000000  0.4744850000000  0.5127040000000 1.0
C      1  0.5419510000000  0.5381210000000  0.4684800000000 1.0
C      1  0.4636200000000  0.4697230000000  0.4859620000000 1.0
C      1  0.4848100000000  0.5049530000000  0.5447570000000 1.0
C      1  0.5167090000000  0.5433530000000  0.5145060000000 1.0
C      1  0.5039070000000  0.5483050000000  0.5656410000000 1.0
C      1  0.4073660000000  0.5039790000000  0.5059410000000 1.0
C      1  0.4386010000000  0.4297140000000  0.5077550000000 1.0
C      1  0.5257330000000  0.5603160000000  0.4884950000000 1.0
C      1  0.5591460000000  0.4627790000000  0.5721630000000 1.0
C      1  0.5478630000000  0.5262250000000  0.4178900000000 1.0
C      1  0.5248340000000  0.4224530000000  0.5538510000000 1.0
C      1  0.5507800000000  0.4613860000000  0.4338250000000 1.0
C      1  0.5474190000000  0.4963080000000  0.4630720000000 1.0
C      1  0.5643820000000  0.5872150000000  0.5285630000000 1.0
C      1  0.5057000000000  0.5036900000000  0.4395010000000 1.0
C      1  0.4726480000000  0.5120570000000  0.5909050000000 1.0
C      1  0.5528270000000  0.5985830000000  0.5062830000000 1.0
C      1  0.5014960000000  0.4626290000000  0.4283280000000 1.0
C      1  0.5278470000000  0.4341290000000  0.4797160000000 1.0
C      1  0.4453000000000  0.4494020000000  0.5348610000000 1.0
C      1  0.5740330000000  0.4624700000000  0.5492310000000 1.0
C      1  0.5713400000000  0.4498820000000  0.5177600000000 1.0
C      1  0.5464900000000  0.5218420000000  0.5689570000000 1.0
C      1  0.5112880000000  0.5235490000000  0.4665440000000 1.0
C      1  0.4579430000000  0.4842930000000  0.4193530000000 1.0
C      1  0.5092120000000  0.5159730000000  0.5275450000000 1.0
C      1  0.5891140000000  0.4690710000000  0.4654600000000 1.0
C      1  0.4704280000000  0.5609860000000  0.5076790000000 1.0
C      1  0.4341270000000  0.4604700000000  0.4981240000000 1.0
C      1  0.5562320000000  0.4650370000000  0.4731240000000 1.0
C      1  0.4338880000000  0.5237810000000  0.4374790000000 1.0
C      1  0.5547650000000  0.4285670000000  0.5384620000000 1.0
C      1  0.4171490000000  0.5513570000000  0.5249150000000 1.0
C      1  0.5169700000000  0.5708980000000  0.4379610000000 1.0
C      1  0.5319800000000  0.4688980000000  0.5669420000000 1.0
C      1  0.4373130000000  0.5103750000000  0.5465070000000 1.0
END
