TITL C-2622960-5345-436 0.00174865456995389 125000 -267.16722620353 0 0 46 (C1) n - 1
REM
REM in /nfs/bkarasulu/CARBON/AIRSS/Generating-Clusters/AIREBO/with-SteepDescent/Higher-Symm/SD-CG/HFTN-CG
REM
REM
REM
REM
REM
REM ./C.cell (b20cbc046b6831c77cfcea5457e17084)
REM
REM compiler GCC version 9.2.1 20190827 (Red Hat 9.2.1-1)
REM options -cpp -mtune=generic -march=x86-64 -g -O0 -fpre-include=/usr/include/finclude/math-vector-fortran.h
REM seed 1449585225 -905885054 -2018218742 -1760660429 -1562066208 1012561237 -1859373126 -1643748131 475935700 1366807096 -682455510 341611075 1872586608 -440605179 1336626426 1645752766 -1902715423 929077251 2027724040 2051982589 1781904612 -1536066725 1712566777 926461515 541695094 1534256954 1807870906 -940158202 -220621993 657596008 -875745213 1495475859 1666287510
REM
CELL 1.54180   50.00000   50.00000   50.00000   90.00000   90.00000   90.00000
LATT -1
SFAC C  
C      1  0.5315250000000  0.4700140000000  0.4632160000000 1.0
C      1  0.4665250000000  0.5239590000000  0.4379690000000 1.0
C      1  0.5236760000000  0.5265770000000  0.4516660000000 1.0
C      1  0.4697240000000  0.4618350000000  0.4637220000000 1.0
C      1  0.4614090000000  0.5257510000000  0.4658460000000 1.0
C      1  0.5594510000000  0.4847600000000  0.4656230000000 1.0
C      1  0.4438470000000  0.4801290000000  0.4649020000000 1.0
C      1  0.5532040000000  0.5320970000000  0.4644100000000 1.0
C      1  0.4861550000000  0.4658100000000  0.4902790000000 1.0
C      1  0.5112110000000  0.5493750000000  0.4980080000000 1.0
C      1  0.4847860000000  0.5324000000000  0.4855990000000 1.0
C      1  0.5126790000000  0.4839100000000  0.4851210000000 1.0
C      1  0.5149480000000  0.4788470000000  0.4385930000000 1.0
C      1  0.4846360000000  0.5032250000000  0.4304080000000 1.0
C      1  0.5154230000000  0.5084900000000  0.4297190000000 1.0
C      1  0.4848760000000  0.4735560000000  0.4400290000000 1.0
C      1  0.4764920000000  0.4863870000000  0.5133350000000 1.0
C      1  0.5285770000000  0.5281750000000  0.5177130000000 1.0
C      1  0.4721070000000  0.5258110000000  0.5156670000000 1.0
C      1  0.5279970000000  0.4887240000000  0.5133480000000 1.0
C      1  0.4681910000000  0.4338070000000  0.5243470000000 1.0
C      1  0.5277050000000  0.5657120000000  0.5428840000000 1.0
C      1  0.4804970000000  0.5664070000000  0.5367450000000 1.0
C      1  0.5155250000000  0.4345120000000  0.5177430000000 1.0
C      1  0.5290460000000  0.4477300000000  0.5379370000000 1.0
C      1  0.4713010000000  0.5401010000000  0.5411480000000 1.0
C      1  0.5338000000000  0.5379370000000  0.5459100000000 1.0
C      1  0.4626350000000  0.4519200000000  0.5447030000000 1.0
C      1  0.5294370000000  0.5523470000000  0.4731480000000 1.0
C      1  0.4631240000000  0.4345190000000  0.4597990000000 1.0
C      1  0.5344280000000  0.4420760000000  0.4656430000000 1.0
C      1  0.4558610000000  0.5410520000000  0.4200980000000 1.0
C      1  0.4752190000000  0.5217740000000  0.5625660000000 1.0
C      1  0.5274720000000  0.4756190000000  0.5401970000000 1.0
C      1  0.4740500000000  0.4774520000000  0.5424410000000 1.0
C      1  0.5313490000000  0.5173800000000  0.5648650000000 1.0
C      1  0.4506330000000  0.5038370000000  0.5048300000000 1.0
C      1  0.5518130000000  0.5093770000000  0.5053240000000 1.0
C      1  0.4899890000000  0.4399270000000  0.5073020000000 1.0
C      1  0.5060070000000  0.5686510000000  0.5243220000000 1.0
C      1  0.4875800000000  0.4958120000000  0.5597490000000 1.0
C      1  0.5163160000000  0.4935670000000  0.5597470000000 1.0
C      1  0.4456180000000  0.5053180000000  0.4775080000000 1.0
C      1  0.5611480000000  0.5096120000000  0.4792570000000 1.0
C      1  0.5070650000000  0.5132000000000  0.4748310000000 1.0
C      1  0.5007170000000  0.5090130000000  0.5138310000000 1.0
END
