TITL C-2622962-9663-827 -0.00422445851938691 125000 -1031.88759103885 0 0 185 (C1) n - 1
REM
REM in /nfs/bkarasulu/CARBON/AIRSS/Generating-Clusters/AIREBO/with-SteepDescent/Higher-Symm/SD-CG/HFTN-CG
REM
REM
REM
REM
REM
REM ./C.cell (b20cbc046b6831c77cfcea5457e17084)
REM
REM compiler GCC version 9.2.1 20190827 (Red Hat 9.2.1-1)
REM options -cpp -mtune=generic -march=x86-64 -g -O0 -fpre-include=/usr/include/finclude/math-vector-fortran.h
REM seed -1144659683 -2051503911 463085687 1414176787 -1205427665 161397909 -909896356 -1737281354 1569220676 905063582 -146774130 -1168494438 406977693 226158382 1236360166 -1388776402 817980714 -1983662019 -1615525163 -620843270 -580536070 2128003476 -711186141 379819489 -1279217118 -309977167 364831239 1429458562 1426562769 216836814 -1632222292 1751666819 -1348284830
REM
CELL 1.54180   50.00000   50.00000   50.00000   90.00000   90.00000   90.00000
LATT -1
SFAC C  
C      1  0.5275120000000  0.4573310000000  0.5884890000000 1.0
C      1  0.5348130000000  0.5932220000000  0.5063280000000 1.0
C      1  0.5295550000000  0.4659690000000  0.4217800000000 1.0
C      1  0.5257790000000  0.4362700000000  0.5179740000000 1.0
C      1  0.5177050000000  0.5613360000000  0.5459070000000 1.0
C      1  0.5202070000000  0.5101720000000  0.4242350000000 1.0
C      1  0.5538970000000  0.4779990000000  0.5122470000000 1.0
C      1  0.5476140000000  0.5272210000000  0.5142020000000 1.0
C      1  0.5476360000000  0.5013400000000  0.4777850000000 1.0
C      1  0.4181560000000  0.5177630000000  0.5428090000000 1.0
C      1  0.4102590000000  0.5282540000000  0.4616920000000 1.0
C      1  0.4143310000000  0.4528260000000  0.4957190000000 1.0
C      1  0.4367910000000  0.5697460000000  0.4074270000000 1.0
C      1  0.4387790000000  0.3836740000000  0.4809570000000 1.0
C      1  0.4369080000000  0.5532950000000  0.6042770000000 1.0
C      1  0.4533870000000  0.4232820000000  0.5552700000000 1.0
C      1  0.4554930000000  0.5968120000000  0.5435890000000 1.0
C      1  0.4556590000000  0.4887910000000  0.3937900000000 1.0
C      1  0.5399290000000  0.5267150000000  0.4039270000000 1.0
C      1  0.5396690000000  0.3989880000000  0.5211060000000 1.0
C      1  0.5385340000000  0.5713200000000  0.5698220000000 1.0
C      1  0.4884610000000  0.5649510000000  0.4802280000000 1.0
C      1  0.4862350000000  0.4502880000000  0.4453250000000 1.0
C      1  0.4867260000000  0.4866170000000  0.5764390000000 1.0
C      1  0.5380700000000  0.5878390000000  0.5397890000000 1.0
C      1  0.5407400000000  0.4925150000000  0.4036890000000 1.0
C      1  0.5433830000000  0.4197050000000  0.5420380000000 1.0
C      1  0.4510780000000  0.5186260000000  0.5421830000000 1.0
C      1  0.4432920000000  0.5264640000000  0.4599220000000 1.0
C      1  0.4463150000000  0.4528050000000  0.4936360000000 1.0
C      1  0.4813130000000  0.5267560000000  0.4714310000000 1.0
C      1  0.4847200000000  0.4585320000000  0.4842950000000 1.0
C      1  0.4881300000000  0.5064900000000  0.5336750000000 1.0
C      1  0.4005380000000  0.5578310000000  0.4611530000000 1.0
C      1  0.3982520000000  0.4367830000000  0.4711490000000 1.0
C      1  0.4168680000000  0.4986360000000  0.5711910000000 1.0
C      1  0.5874490000000  0.5108900000000  0.5314530000000 1.0
C      1  0.5846430000000  0.5253650000000  0.4780490000000 1.0
C      1  0.5912400000000  0.4804620000000  0.4915940000000 1.0
C      1  0.4858120000000  0.3901200000000  0.5646430000000 1.0
C      1  0.4980230000000  0.6118390000000  0.5548140000000 1.0
C      1  0.4988690000000  0.4930830000000  0.3763930000000 1.0
C      1  0.5094860000000  0.5418020000000  0.4023900000000 1.0
C      1  0.5109780000000  0.3995300000000  0.5129480000000 1.0
C      1  0.5101870000000  0.5632520000000  0.5849720000000 1.0
C      1  0.5211380000000  0.5329810000000  0.4963660000000 1.0
C      1  0.5278030000000  0.4768230000000  0.4820860000000 1.0
C      1  0.5271380000000  0.4860720000000  0.5295620000000 1.0
C      1  0.5154540000000  0.6076410000000  0.4887080000000 1.0
C      1  0.5180840000000  0.4355120000000  0.4119240000000 1.0
C      1  0.5068450000000  0.4631180000000  0.6046810000000 1.0
C      1  0.4901790000000  0.4839480000000  0.4423590000000 1.0
C      1  0.4987520000000  0.4588070000000  0.5610110000000 1.0
C      1  0.4949560000000  0.5580120000000  0.5131780000000 1.0
C      1  0.3922950000000  0.4102960000000  0.4723090000000 1.0
C      1  0.4171810000000  0.5127700000000  0.5948690000000 1.0
C      1  0.3861590000000  0.5668970000000  0.4397520000000 1.0
C      1  0.4600830000000  0.5410880000000  0.5962210000000 1.0
C      1  0.4600150000000  0.5660720000000  0.4214710000000 1.0
C      1  0.4636250000000  0.3942780000000  0.4764290000000 1.0
C      1  0.5074820000000  0.4654500000000  0.3885850000000 1.0
C      1  0.5010730000000  0.4061920000000  0.5810840000000 1.0
C      1  0.5059880000000  0.6163330000000  0.5251730000000 1.0
C      1  0.5835240000000  0.5701320000000  0.5364270000000 1.0
C      1  0.5726090000000  0.4871070000000  0.4268000000000 1.0
C      1  0.5783160000000  0.4389930000000  0.5406080000000 1.0
C      1  0.5564090000000  0.4523170000000  0.5819040000000 1.0
C      1  0.5665000000000  0.5969890000000  0.4974500000000 1.0
C      1  0.5512880000000  0.4412420000000  0.4176200000000 1.0
C      1  0.4970130000000  0.4316170000000  0.4724020000000 1.0
C      1  0.4915360000000  0.5186070000000  0.5652720000000 1.0
C      1  0.4919770000000  0.5502010000000  0.4497750000000 1.0
C      1  0.4693470000000  0.5360050000000  0.4287230000000 1.0
C      1  0.4732930000000  0.4184240000000  0.4929930000000 1.0
C      1  0.4699100000000  0.5448460000000  0.5654070000000 1.0
C      1  0.4587040000000  0.4519140000000  0.4634210000000 1.0
C      1  0.4659890000000  0.4901640000000  0.5536570000000 1.0
C      1  0.4586290000000  0.5532160000000  0.4742860000000 1.0
C      1  0.5778670000000  0.5342650000000  0.4457720000000 1.0
C      1  0.5824250000000  0.4203490000000  0.4983320000000 1.0
C      1  0.5800560000000  0.5294810000000  0.5594520000000 1.0
C      1  0.4807170000000  0.5939960000000  0.4750170000000 1.0
C      1  0.4733220000000  0.4218230000000  0.4319310000000 1.0
C      1  0.4730970000000  0.4840600000000  0.6047520000000 1.0
C      1  0.4786000000000  0.5862310000000  0.4276680000000 1.0
C      1  0.4819900000000  0.3841750000000  0.4570160000000 1.0
C      1  0.4789310000000  0.5291230000000  0.6136880000000 1.0
C      1  0.5290050000000  0.5619250000000  0.5077650000000 1.0
C      1  0.5218560000000  0.4745550000000  0.4504320000000 1.0
C      1  0.5298360000000  0.4673660000000  0.5560840000000 1.0
C      1  0.4885410000000  0.4523710000000  0.4114630000000 1.0
C      1  0.4758830000000  0.4529480000000  0.5948380000000 1.0
C      1  0.4841890000000  0.6089630000000  0.5021010000000 1.0
C      1  0.5585590000000  0.4001980000000  0.4998810000000 1.0
C      1  0.5578900000000  0.5472570000000  0.5781710000000 1.0
C      1  0.5555220000000  0.5474900000000  0.4237790000000 1.0
C      1  0.4511570000000  0.4753240000000  0.4413520000000 1.0
C      1  0.4563940000000  0.4607780000000  0.5417270000000 1.0
C      1  0.4559560000000  0.5637800000000  0.5065870000000 1.0
C      1  0.4605230000000  0.4689050000000  0.4123260000000 1.0
C      1  0.4535550000000  0.4517730000000  0.5736460000000 1.0
C      1  0.4612960000000  0.5923460000000  0.5169750000000 1.0
C      1  0.5002700000000  0.4904600000000  0.4104630000000 1.0
C      1  0.4971360000000  0.4324160000000  0.5811470000000 1.0
C      1  0.4986910000000  0.5844040000000  0.5343080000000 1.0
C      1  0.5621370000000  0.5565620000000  0.5141960000000 1.0
C      1  0.5551980000000  0.4810950000000  0.4532620000000 1.0
C      1  0.5590660000000  0.4656500000000  0.5421790000000 1.0
C      1  0.4020670000000  0.4776850000000  0.5151780000000 1.0
C      1  0.4071090000000  0.5348580000000  0.5202190000000 1.0
C      1  0.4018880000000  0.4985590000000  0.4703310000000 1.0
C      1  0.4724560000000  0.4853500000000  0.5147350000000 1.0
C      1  0.4643140000000  0.5204000000000  0.4958820000000 1.0
C      1  0.4715480000000  0.4891810000000  0.4810160000000 1.0
C      1  0.4984750000000  0.4507060000000  0.5284290000000 1.0
C      1  0.5146350000000  0.5328350000000  0.5475930000000 1.0
C      1  0.5137840000000  0.5239430000000  0.4485290000000 1.0
C      1  0.4886860000000  0.6026930000000  0.4480660000000 1.0
C      1  0.4912940000000  0.4002410000000  0.4355350000000 1.0
C      1  0.4843700000000  0.5031320000000  0.6235190000000 1.0
C      1  0.4749820000000  0.5087040000000  0.3856600000000 1.0
C      1  0.4715900000000  0.4040580000000  0.5443230000000 1.0
C      1  0.4752830000000  0.5950860000000  0.5647570000000 1.0
C      1  0.4024470000000  0.5981760000000  0.4881300000000 1.0
C      1  0.3941890000000  0.4459530000000  0.4208050000000 1.0
C      1  0.4062440000000  0.4509570000000  0.5573370000000 1.0
C      1  0.5933000000000  0.4376920000000  0.5173320000000 1.0
C      1  0.5986720000000  0.5483870000000  0.5442840000000 1.0
C      1  0.5902740000000  0.5075410000000  0.4316660000000 1.0
C      1  0.4690200000000  0.5455870000000  0.5314060000000 1.0
C      1  0.4638050000000  0.5054690000000  0.4426360000000 1.0
C      1  0.4677310000000  0.4423620000000  0.5165410000000 1.0
C      1  0.4250240000000  0.5562710000000  0.5020920000000 1.0
C      1  0.4201010000000  0.4769370000000  0.4504250000000 1.0
C      1  0.4260990000000  0.4644540000000  0.5338910000000 1.0
C      1  0.5619200000000  0.4286820000000  0.4445860000000 1.0
C      1  0.5552380000000  0.4860300000000  0.5863820000000 1.0
C      1  0.5582400000000  0.5785310000000  0.4699820000000 1.0
C      1  0.4848250000000  0.4063770000000  0.5200010000000 1.0
C      1  0.4848310000000  0.5709060000000  0.5750740000000 1.0
C      1  0.4840390000000  0.5298160000000  0.4017310000000 1.0
C      1  0.5168180000000  0.4075570000000  0.4261870000000 1.0
C      1  0.5106820000000  0.4878830000000  0.6177010000000 1.0
C      1  0.5167620000000  0.6032870000000  0.4605160000000 1.0
C      1  0.4089860000000  0.5721620000000  0.4827680000000 1.0
C      1  0.4045870000000  0.4520630000000  0.4438590000000 1.0
C      1  0.4256100000000  0.4676630000000  0.5736070000000 1.0
C      1  0.5892890000000  0.4809230000000  0.5390640000000 1.0
C      1  0.5906480000000  0.5486570000000  0.4972920000000 1.0
C      1  0.5866880000000  0.4740920000000  0.4618130000000 1.0
C      1  0.5209870000000  0.4195610000000  0.4887300000000 1.0
C      1  0.5109190000000  0.5344770000000  0.5882710000000 1.0
C      1  0.5106650000000  0.5611800000000  0.4235620000000 1.0
C      1  0.5551880000000  0.5479430000000  0.4635680000000 1.0
C      1  0.5604750000000  0.4335380000000  0.4782510000000 1.0
C      1  0.5541010000000  0.5111950000000  0.5635100000000 1.0
C      1  0.3955140000000  0.5312790000000  0.4922020000000 1.0
C      1  0.3912390000000  0.4695420000000  0.4769530000000 1.0
C      1  0.3981570000000  0.4910370000000  0.5438370000000 1.0
C      1  0.5392050000000  0.5222400000000  0.5918480000000 1.0
C      1  0.5369890000000  0.5694100000000  0.4296550000000 1.0
C      1  0.5439200000000  0.4047670000000  0.4708500000000 1.0
C      1  0.5347190000000  0.5274010000000  0.4701250000000 1.0
C      1  0.5433890000000  0.4520510000000  0.4949520000000 1.0
C      1  0.5359320000000  0.5142890000000  0.5395360000000 1.0
C      1  0.5003400000000  0.5026140000000  0.4689030000000 1.0
C      1  0.5041400000000  0.4761000000000  0.5065280000000 1.0
C      1  0.4942110000000  0.5242510000000  0.5091730000000 1.0
C      1  0.5602120000000  0.4318950000000  0.5635200000000 1.0
C      1  0.5672580000000  0.5933000000000  0.5289550000000 1.0
C      1  0.5649910000000  0.4686460000000  0.4045300000000 1.0
C      1  0.4415830000000  0.4925480000000  0.5225020000000 1.0
C      1  0.4351450000000  0.5270430000000  0.4929300000000 1.0
C      1  0.4383420000000  0.4822290000000  0.4785710000000 1.0
C      1  0.6081170000000  0.5346760000000  0.5195220000000 1.0
C      1  0.6006100000000  0.5047900000000  0.4602530000000 1.0
C      1  0.6003060000000  0.4654820000000  0.5138020000000 1.0
C      1  0.5843210000000  0.4783130000000  0.5709080000000 1.0
C      1  0.5882420000000  0.5763440000000  0.4838640000000 1.0
C      1  0.5892950000000  0.4444680000000  0.4527610000000 1.0
C      1  0.5406600000000  0.4025330000000  0.4400660000000 1.0
C      1  0.5365830000000  0.4980390000000  0.6120840000000 1.0
C      1  0.5388020000000  0.5888580000000  0.4500620000000 1.0
C      1  0.5709680000000  0.5056370000000  0.5021570000000 1.0
C      1  0.4201020000000  0.5003620000000  0.4984490000000 1.0
END
