TITL C-2622966-9038-656 0.0053045979495275 125000 -138.384738403726 0 0 27 (C1) n - 1
REM
REM in /nfs/bkarasulu/CARBON/AIRSS/Generating-Clusters/AIREBO/with-SteepDescent/Higher-Symm/SD-CG/HFTN-CG
REM
REM
REM
REM
REM
REM ./C.cell (b20cbc046b6831c77cfcea5457e17084)
REM
REM compiler GCC version 9.2.1 20190827 (Red Hat 9.2.1-1)
REM options -cpp -mtune=generic -march=x86-64 -g -O0 -fpre-include=/usr/include/finclude/math-vector-fortran.h
REM seed 1268651755 54337381 216489958 -1321467545 -469758295 633048871 868179599 1773598355 -694818107 1677002452 -2145697472 -2058485727 -630846403 -81683987 1150117241 575790581 -605451044 255109784 -648063406 1099132516 2049286119 569958719 1694682471 1060613677 -991520820 -1336930596 1034985469 308324242 397229151 1479180413 1023282105 -631803015 -1241598618
REM
CELL 1.54180   50.00000   50.00000   50.00000   90.00000   90.00000   90.00000
LATT -1
SFAC C  
C      1  0.4796220000000  0.5520100000000  0.4644430000000 1.0
C      1  0.5196100000000  0.4460600000000  0.4670810000000 1.0
C      1  0.5445760000000  0.5231690000000  0.4563940000000 1.0
C      1  0.4539740000000  0.4707760000000  0.4531250000000 1.0
C      1  0.4745930000000  0.4808470000000  0.5589650000000 1.0
C      1  0.5243380000000  0.5182010000000  0.5592540000000 1.0
C      1  0.5279600000000  0.4907270000000  0.5612660000000 1.0
C      1  0.4710260000000  0.5083370000000  0.5607680000000 1.0
C      1  0.5184490000000  0.4752840000000  0.5393570000000 1.0
C      1  0.4808680000000  0.5235590000000  0.5388600000000 1.0
C      1  0.4903940000000  0.4715170000000  0.5372150000000 1.0
C      1  0.5089470000000  0.5274130000000  0.5371370000000 1.0
C      1  0.5211650000000  0.5110440000000  0.4633900000000 1.0
C      1  0.4725330000000  0.4863250000000  0.4634120000000 1.0
C      1  0.4813680000000  0.5295380000000  0.4765080000000 1.0
C      1  0.5171020000000  0.4686140000000  0.4788180000000 1.0
C      1  0.4671140000000  0.5200470000000  0.5147450000000 1.0
C      1  0.5324840000000  0.4786540000000  0.5153550000000 1.0
C      1  0.5213700000000  0.5264070000000  0.5115680000000 1.0
C      1  0.4786440000000  0.4723190000000  0.5113270000000 1.0
C      1  0.4420190000000  0.5290120000000  0.5085420000000 1.0
C      1  0.5580600000000  0.4705940000000  0.5099100000000 1.0
C      1  0.5401550000000  0.5445980000000  0.5032130000000 1.0
C      1  0.4617230000000  0.4529540000000  0.5017260000000 1.0
C      1  0.5168940000000  0.4993590000000  0.4933500000000 1.0
C      1  0.4828910000000  0.4997690000000  0.4928750000000 1.0
C      1  0.4983020000000  0.5066150000000  0.4484420000000 1.0
END
