TITL C-2622964-2985-518 0.00198951269202281 125000 -1105.11417928626 0 0 198 (C1) n - 1
REM
REM in /nfs/bkarasulu/CARBON/AIRSS/Generating-Clusters/AIREBO/with-SteepDescent/Higher-Symm/SD-CG/HFTN-CG
REM
REM
REM
REM
REM
REM ./C.cell (b20cbc046b6831c77cfcea5457e17084)
REM
REM compiler GCC version 9.2.1 20190827 (Red Hat 9.2.1-1)
REM options -cpp -mtune=generic -march=x86-64 -g -O0 -fpre-include=/usr/include/finclude/math-vector-fortran.h
REM seed -2137220410 1110563681 -1800424038 1949405306 -1489277546 1905401449 -2097544250 -1386724968 2138461727 433485571 -751610882 1230266234 -2140908717 636102286 -234987023 865069216 1105604334 -432693647 1702623679 -331861099 377156054 -938200565 -1747750418 1584973162 -1819912078 1768439084 -27394571 -471263966 -1807931856 -1062820186 -25921964 211337454 1813641689
REM
CELL 1.54180   50.00000   50.00000   50.00000   90.00000   90.00000   90.00000
LATT -1
SFAC C  
C      1  0.6024940000000  0.5610360000000  0.5078810000000 1.0
C      1  0.5988650000000  0.5169230000000  0.4922500000000 1.0
C      1  0.4322910000000  0.3994230000000  0.4805620000000 1.0
C      1  0.4945250000000  0.5945560000000  0.5169550000000 1.0
C      1  0.5574160000000  0.4437650000000  0.4801500000000 1.0
C      1  0.4594900000000  0.5719070000000  0.4260210000000 1.0
C      1  0.6232680000000  0.5019760000000  0.5088630000000 1.0
C      1  0.4359900000000  0.4614100000000  0.4059880000000 1.0
C      1  0.5579900000000  0.4759300000000  0.4911870000000 1.0
C      1  0.5389450000000  0.6029860000000  0.5538260000000 1.0
C      1  0.4750570000000  0.5539930000000  0.4731430000000 1.0
C      1  0.4598180000000  0.4252330000000  0.4688010000000 1.0
C      1  0.5319060000000  0.5528780000000  0.4568640000000 1.0
C      1  0.5142650000000  0.5353780000000  0.5803990000000 1.0
C      1  0.5591990000000  0.5248380000000  0.5647700000000 1.0
C      1  0.4069440000000  0.5343920000000  0.5212960000000 1.0
C      1  0.4887260000000  0.4252280000000  0.5649730000000 1.0
C      1  0.3963220000000  0.4961970000000  0.5229890000000 1.0
C      1  0.4494480000000  0.5381020000000  0.4572060000000 1.0
C      1  0.4836670000000  0.5485430000000  0.5735620000000 1.0
C      1  0.6004300000000  0.5458710000000  0.4858190000000 1.0
C      1  0.5303610000000  0.5215190000000  0.5291740000000 1.0
C      1  0.4804160000000  0.5264430000000  0.4059800000000 1.0
C      1  0.6245920000000  0.5003230000000  0.4671200000000 1.0
C      1  0.5647370000000  0.4390520000000  0.4470650000000 1.0
C      1  0.5240580000000  0.5546800000000  0.5332920000000 1.0
C      1  0.4873550000000  0.5258720000000  0.4586850000000 1.0
C      1  0.3950260000000  0.4880870000000  0.5485800000000 1.0
C      1  0.4707670000000  0.4673960000000  0.5774970000000 1.0
C      1  0.5656600000000  0.4507980000000  0.4149630000000 1.0
C      1  0.3885670000000  0.4927190000000  0.4633250000000 1.0
C      1  0.4741570000000  0.5592720000000  0.5363480000000 1.0
C      1  0.4774490000000  0.3955530000000  0.5081940000000 1.0
C      1  0.4468440000000  0.5340820000000  0.5226670000000 1.0
C      1  0.5307510000000  0.5185040000000  0.5606770000000 1.0
C      1  0.5318640000000  0.5074880000000  0.4567120000000 1.0
C      1  0.5107040000000  0.6278610000000  0.4768130000000 1.0
C      1  0.5138690000000  0.5340550000000  0.6144590000000 1.0
C      1  0.5513080000000  0.5527860000000  0.5163900000000 1.0
C      1  0.4093850000000  0.4427310000000  0.5120870000000 1.0
C      1  0.5896230000000  0.5155140000000  0.5553900000000 1.0
C      1  0.4553170000000  0.4848220000000  0.3982420000000 1.0
C      1  0.5825380000000  0.4982760000000  0.5306700000000 1.0
C      1  0.4835360000000  0.4795570000000  0.3901560000000 1.0
C      1  0.6081910000000  0.4487760000000  0.5510180000000 1.0
C      1  0.5850220000000  0.5539970000000  0.4630620000000 1.0
C      1  0.5404060000000  0.4175120000000  0.5503830000000 1.0
C      1  0.4742740000000  0.3746990000000  0.4636250000000 1.0
C      1  0.4935620000000  0.5593450000000  0.6042480000000 1.0
C      1  0.4492200000000  0.4381410000000  0.4136120000000 1.0
C      1  0.4649310000000  0.4296820000000  0.5410680000000 1.0
C      1  0.5380330000000  0.5860170000000  0.4362410000000 1.0
C      1  0.3994210000000  0.5378490000000  0.4415270000000 1.0
C      1  0.6179020000000  0.4782130000000  0.5171260000000 1.0
C      1  0.4594160000000  0.4719350000000  0.4620010000000 1.0
C      1  0.4767860000000  0.5686910000000  0.5037810000000 1.0
C      1  0.4872980000000  0.5749360000000  0.4200660000000 1.0
C      1  0.5737260000000  0.5742200000000  0.5718750000000 1.0
C      1  0.4879930000000  0.4231420000000  0.5169460000000 1.0
C      1  0.4529300000000  0.5803610000000  0.4532800000000 1.0
C      1  0.4671110000000  0.4630800000000  0.5470590000000 1.0
C      1  0.5065610000000  0.3810730000000  0.5431600000000 1.0
C      1  0.4864760000000  0.4917290000000  0.5670000000000 1.0
C      1  0.4137070000000  0.5546630000000  0.4633190000000 1.0
C      1  0.5316140000000  0.3956500000000  0.4959640000000 1.0
C      1  0.4321530000000  0.5652620000000  0.5807780000000 1.0
C      1  0.5727580000000  0.4184000000000  0.4922460000000 1.0
C      1  0.5559400000000  0.5239160000000  0.4700790000000 1.0
C      1  0.5377420000000  0.4387250000000  0.4179230000000 1.0
C      1  0.5325690000000  0.4477500000000  0.5031210000000 1.0
C      1  0.4284170000000  0.4996810000000  0.4235570000000 1.0
C      1  0.5584660000000  0.5904950000000  0.4851240000000 1.0
C      1  0.4898750000000  0.5133270000000  0.5895030000000 1.0
C      1  0.5805030000000  0.5487140000000  0.5554820000000 1.0
C      1  0.5673460000000  0.4749940000000  0.5965780000000 1.0
C      1  0.5464080000000  0.4822590000000  0.4295110000000 1.0
C      1  0.4610580000000  0.5244210000000  0.5752690000000 1.0
C      1  0.5124420000000  0.6602190000000  0.4662790000000 1.0
C      1  0.5745020000000  0.5041380000000  0.5837180000000 1.0
C      1  0.4251530000000  0.4065670000000  0.5063330000000 1.0
C      1  0.4644090000000  0.3942230000000  0.4809620000000 1.0
C      1  0.4781500000000  0.4657130000000  0.4995230000000 1.0
C      1  0.4795480000000  0.5079250000000  0.4313140000000 1.0
C      1  0.5059270000000  0.4952670000000  0.4385320000000 1.0
C      1  0.4325550000000  0.4927870000000  0.4626780000000 1.0
C      1  0.5135730000000  0.6557060000000  0.4961130000000 1.0
C      1  0.5781790000000  0.5611810000000  0.5274700000000 1.0
C      1  0.4426220000000  0.4371360000000  0.5656450000000 1.0
C      1  0.5127290000000  0.4060930000000  0.5594620000000 1.0
C      1  0.4985450000000  0.5498300000000  0.4153380000000 1.0
C      1  0.4842200000000  0.3764620000000  0.5265200000000 1.0
C      1  0.5298140000000  0.5640210000000  0.5843780000000 1.0
C      1  0.5306450000000  0.5084060000000  0.6147840000000 1.0
C      1  0.5591230000000  0.4373630000000  0.5546970000000 1.0
C      1  0.5069390000000  0.5074530000000  0.4795010000000 1.0
C      1  0.5972680000000  0.4783910000000  0.4492140000000 1.0
C      1  0.5129470000000  0.5384340000000  0.4400570000000 1.0
C      1  0.5659810000000  0.5961510000000  0.5544720000000 1.0
C      1  0.4279850000000  0.4228430000000  0.4567070000000 1.0
C      1  0.5258590000000  0.4863310000000  0.4953240000000 1.0
C      1  0.4439200000000  0.4719250000000  0.5883760000000 1.0
C      1  0.4374340000000  0.4230630000000  0.5871230000000 1.0
C      1  0.5428380000000  0.4755520000000  0.4607410000000 1.0
C      1  0.5685160000000  0.5080990000000  0.4930810000000 1.0
C      1  0.5149760000000  0.4711050000000  0.4228760000000 1.0
C      1  0.4338060000000  0.5713240000000  0.4727090000000 1.0
C      1  0.5556310000000  0.5651240000000  0.4190080000000 1.0
C      1  0.4359360000000  0.5390830000000  0.5888800000000 1.0
C      1  0.5601140000000  0.5719920000000  0.4579920000000 1.0
C      1  0.4110240000000  0.4353610000000  0.5413790000000 1.0
C      1  0.5460470000000  0.5498180000000  0.4880020000000 1.0
C      1  0.5887960000000  0.4227130000000  0.5127530000000 1.0
C      1  0.4491040000000  0.5101130000000  0.5467860000000 1.0
C      1  0.5066570000000  0.5567310000000  0.4974530000000 1.0
C      1  0.5714980000000  0.6034660000000  0.5039820000000 1.0
C      1  0.4762590000000  0.5179960000000  0.5171920000000 1.0
C      1  0.5517780000000  0.5011280000000  0.5215600000000 1.0
C      1  0.5308500000000  0.4655040000000  0.5561670000000 1.0
C      1  0.4441470000000  0.5595390000000  0.5002080000000 1.0
C      1  0.4905240000000  0.4457170000000  0.5898440000000 1.0
C      1  0.5949260000000  0.4478360000000  0.4419730000000 1.0
C      1  0.5787000000000  0.5288820000000  0.4465900000000 1.0
C      1  0.4778950000000  0.4398860000000  0.4178760000000 1.0
C      1  0.4910030000000  0.4559820000000  0.5259550000000 1.0
C      1  0.4910430000000  0.4781360000000  0.4728590000000 1.0
C      1  0.4802120000000  0.4335390000000  0.6159330000000 1.0
C      1  0.5188980000000  0.4907380000000  0.5687480000000 1.0
C      1  0.5152240000000  0.5845270000000  0.5379270000000 1.0
C      1  0.4398730000000  0.4158410000000  0.4290120000000 1.0
C      1  0.4096760000000  0.4724020000000  0.4511270000000 1.0
C      1  0.4206060000000  0.4073420000000  0.5363100000000 1.0
C      1  0.5094830000000  0.4449030000000  0.5503630000000 1.0
C      1  0.5589500000000  0.5032730000000  0.6131700000000 1.0
C      1  0.4663220000000  0.4975310000000  0.4975510000000 1.0
C      1  0.4269300000000  0.5078900000000  0.5138990000000 1.0
C      1  0.4572890000000  0.4875230000000  0.4321780000000 1.0
C      1  0.4443410000000  0.4808750000000  0.5377000000000 1.0
C      1  0.5180070000000  0.4874720000000  0.6008710000000 1.0
C      1  0.4412730000000  0.4790420000000  0.5067450000000 1.0
C      1  0.4671600000000  0.6025500000000  0.5311130000000 1.0
C      1  0.5275400000000  0.5772540000000  0.4801670000000 1.0
C      1  0.5070890000000  0.5278260000000  0.5067580000000 1.0
C      1  0.5552510000000  0.5686010000000  0.5923010000000 1.0
C      1  0.5504000000000  0.4558590000000  0.5805240000000 1.0
C      1  0.5795650000000  0.4804970000000  0.4231750000000 1.0
C      1  0.4956240000000  0.5049560000000  0.5395050000000 1.0
C      1  0.4601970000000  0.5102860000000  0.4719580000000 1.0
C      1  0.5267930000000  0.4507260000000  0.4437670000000 1.0
C      1  0.5615980000000  0.5356310000000  0.4210140000000 1.0
C      1  0.4939850000000  0.4593380000000  0.4062710000000 1.0
C      1  0.4237560000000  0.5981010000000  0.5211850000000 1.0
C      1  0.5770150000000  0.5921570000000  0.5288970000000 1.0
C      1  0.4506890000000  0.4516510000000  0.4882950000000 1.0
C      1  0.4990790000000  0.5035410000000  0.3912770000000 1.0
C      1  0.3986600000000  0.5260950000000  0.4933840000000 1.0
C      1  0.4222090000000  0.5225350000000  0.4704980000000 1.0
C      1  0.5276090000000  0.5013480000000  0.3999960000000 1.0
C      1  0.4420870000000  0.4343290000000  0.5162700000000 1.0
C      1  0.5502700000000  0.4761140000000  0.3967610000000 1.0
C      1  0.4469170000000  0.4016510000000  0.5479020000000 1.0
C      1  0.5154570000000  0.5894910000000  0.5716440000000 1.0
C      1  0.4426070000000  0.5163500000000  0.3975510000000 1.0
C      1  0.5003340000000  0.5859270000000  0.5999790000000 1.0
C      1  0.5853120000000  0.4707860000000  0.5108340000000 1.0
C      1  0.5988170000000  0.4842960000000  0.4826630000000 1.0
C      1  0.4245430000000  0.4609550000000  0.5552160000000 1.0
C      1  0.5104690000000  0.4820750000000  0.5241100000000 1.0
C      1  0.5414870000000  0.4700620000000  0.5272310000000 1.0
C      1  0.4851340000000  0.4238740000000  0.4462190000000 1.0
C      1  0.5105230000000  0.4527340000000  0.4800830000000 1.0
C      1  0.4974440000000  0.5385950000000  0.5441080000000 1.0
C      1  0.4634210000000  0.4010330000000  0.4348790000000 1.0
C      1  0.5514620000000  0.4030280000000  0.4785890000000 1.0
C      1  0.5425650000000  0.4162540000000  0.4554200000000 1.0
C      1  0.5342140000000  0.5199500000000  0.4251520000000 1.0
C      1  0.4118070000000  0.4724470000000  0.4197380000000 1.0
C      1  0.4284480000000  0.5305730000000  0.4318220000000 1.0
C      1  0.5330400000000  0.3934960000000  0.5279040000000 1.0
C      1  0.4228390000000  0.5178510000000  0.5665240000000 1.0
C      1  0.6022780000000  0.5108010000000  0.4469450000000 1.0
C      1  0.4457460000000  0.5766750000000  0.5295350000000 1.0
C      1  0.5241190000000  0.6053240000000  0.4612780000000 1.0
C      1  0.3975970000000  0.4423320000000  0.4875460000000 1.0
C      1  0.4831950000000  0.5858800000000  0.4657140000000 1.0
C      1  0.5648650000000  0.5055810000000  0.4054350000000 1.0
C      1  0.4937030000000  0.6040520000000  0.4871750000000 1.0
C      1  0.4173690000000  0.4873190000000  0.5741910000000 1.0
C      1  0.4266900000000  0.5656080000000  0.5529990000000 1.0
C      1  0.5188690000000  0.4579340000000  0.5933760000000 1.0
C      1  0.4525120000000  0.5445510000000  0.4132260000000 1.0
C      1  0.3828990000000  0.5160830000000  0.4483960000000 1.0
C      1  0.4132840000000  0.5420220000000  0.5465610000000 1.0
C      1  0.3918760000000  0.4951250000000  0.4915470000000 1.0
C      1  0.5111740000000  0.4289070000000  0.4587090000000 1.0
C      1  0.4083250000000  0.4444280000000  0.4629490000000 1.0
C      1  0.5043860000000  0.5882840000000  0.4406710000000 1.0
C      1  0.5850640000000  0.4457890000000  0.5343080000000 1.0
C      1  0.5192560000000  0.4212620000000  0.5133120000000 1.0
END
