TITL C-2622957-9142-177 -0.00116111219103337 125000 -141.347691069787 0 0 27 (C1) n - 1
REM
REM in /nfs/bkarasulu/CARBON/AIRSS/Generating-Clusters/AIREBO/with-SteepDescent/Higher-Symm/SD-CG/HFTN-CG
REM
REM
REM
REM
REM
REM ./C.cell (b20cbc046b6831c77cfcea5457e17084)
REM
REM compiler GCC version 9.2.1 20190827 (Red Hat 9.2.1-1)
REM options -cpp -mtune=generic -march=x86-64 -g -O0 -fpre-include=/usr/include/finclude/math-vector-fortran.h
REM seed -992310812 -1997956088 -1021030190 -915507969 1400441186 -1609063903 884671224 -1619994147 -358056419 1400744823 -1607325230 -1612356443 -432125492 -1241140621 692184385 205155008 1211086368 -672393605 -287303730 341694948 -1208691537 272983736 -32683993 1668409605 -495348137 1180426199 -703483742 -1913458233 617283082 -2085234786 -14237987 -601434246 -480291388
REM
CELL 1.54180   50.00000   50.00000   50.00000   90.00000   90.00000   90.00000
LATT -1
SFAC C  
C      1  0.4710260000000  0.4723060000000  0.4557110000000 1.0
C      1  0.4807940000000  0.4922370000000  0.5475410000000 1.0
C      1  0.4718950000000  0.5436400000000  0.4930580000000 1.0
C      1  0.5073980000000  0.4623520000000  0.5236760000000 1.0
C      1  0.5049520000000  0.5454160000000  0.5269060000000 1.0
C      1  0.5071180000000  0.5013550000000  0.4492090000000 1.0
C      1  0.4744140000000  0.5099210000000  0.4894280000000 1.0
C      1  0.4763460000000  0.4760470000000  0.4868350000000 1.0
C      1  0.4682120000000  0.5101620000000  0.5228600000000 1.0
C      1  0.5320230000000  0.4682920000000  0.4805020000000 1.0
C      1  0.5316000000000  0.5013660000000  0.5364950000000 1.0
C      1  0.5315050000000  0.5213700000000  0.4886880000000 1.0
C      1  0.5304440000000  0.4853520000000  0.4516230000000 1.0
C      1  0.5331190000000  0.4737360000000  0.5299820000000 1.0
C      1  0.5290150000000  0.5453550000000  0.5125170000000 1.0
C      1  0.4831460000000  0.5575180000000  0.5138660000000 1.0
C      1  0.4841450000000  0.4892070000000  0.4385780000000 1.0
C      1  0.4875200000000  0.4665380000000  0.5430630000000 1.0
C      1  0.4432430000000  0.5213040000000  0.5288630000000 1.0
C      1  0.4488640000000  0.5104520000000  0.4715130000000 1.0
C      1  0.4550920000000  0.4636410000000  0.5013570000000 1.0
C      1  0.5035380000000  0.4647630000000  0.4955450000000 1.0
C      1  0.4986040000000  0.5174850000000  0.5363860000000 1.0
C      1  0.5037540000000  0.5163040000000  0.4734360000000 1.0
C      1  0.5447660000000  0.5196950000000  0.5194700000000 1.0
C      1  0.5472300000000  0.4982880000000  0.4750510000000 1.0
C      1  0.5502380000000  0.4658940000000  0.5078420000000 1.0
END
