TITL C-2622959-7779-365 -0.000937087818089114 125000 -609.271304446007 0 0 106 (C1) n - 1
REM
REM in /nfs/bkarasulu/CARBON/AIRSS/Generating-Clusters/AIREBO/with-SteepDescent/Higher-Symm/SD-CG/HFTN-CG
REM
REM
REM
REM
REM
REM ./C.cell (b20cbc046b6831c77cfcea5457e17084)
REM
REM compiler GCC version 9.2.1 20190827 (Red Hat 9.2.1-1)
REM options -cpp -mtune=generic -march=x86-64 -g -O0 -fpre-include=/usr/include/finclude/math-vector-fortran.h
REM seed 1305461666 1731082593 -1426071326 260201849 -882667497 -1867475781 -1230474136 81274421 1257322173 1110805227 660636683 1661255359 1457911615 347552318 920915170 -1715560620 -734670424 1073022841 653673275 123756816 81405717 1758593296 2147434284 1002932618 832597559 620097566 1331477353 2078647584 -1646365974 1190171202 1178049769 1074207587 -1869517173
REM
CELL 1.54180   50.00000   50.00000   50.00000   90.00000   90.00000   90.00000
LATT -1
SFAC C  
C      1  0.4760290000000  0.4918910000000  0.5892230000000 1.0
C      1  0.4811300000000  0.5080010000000  0.5603010000000 1.0
C      1  0.5064250000000  0.5277160000000  0.5553210000000 1.0
C      1  0.5234130000000  0.5020070000000  0.5513180000000 1.0
C      1  0.5043710000000  0.4762260000000  0.5528730000000 1.0
C      1  0.4973830000000  0.5138260000000  0.4103360000000 1.0
C      1  0.4774940000000  0.4854250000000  0.4458950000000 1.0
C      1  0.5042810000000  0.4700230000000  0.4481610000000 1.0
C      1  0.5266770000000  0.4924530000000  0.4465930000000 1.0
C      1  0.5089430000000  0.5274640000000  0.4399490000000 1.0
C      1  0.4369490000000  0.5173770000000  0.4764450000000 1.0
C      1  0.4961130000000  0.5619160000000  0.4769890000000 1.0
C      1  0.5605590000000  0.5290810000000  0.4778010000000 1.0
C      1  0.5405420000000  0.4455030000000  0.4766930000000 1.0
C      1  0.4628370000000  0.4426090000000  0.4761550000000 1.0
C      1  0.4337760000000  0.4831630000000  0.5277290000000 1.0
C      1  0.4933270000000  0.4361390000000  0.5221390000000 1.0
C      1  0.5594010000000  0.4729110000000  0.5181420000000 1.0
C      1  0.5392390000000  0.5546150000000  0.5233460000000 1.0
C      1  0.4620200000000  0.5545390000000  0.5279150000000 1.0
C      1  0.5358640000000  0.5046590000000  0.5226110000000 1.0
C      1  0.5197650000000  0.4745340000000  0.5225990000000 1.0
C      1  0.4882180000000  0.4822660000000  0.5125240000000 1.0
C      1  0.4691750000000  0.5012560000000  0.5306820000000 1.0
C      1  0.5012350000000  0.5466240000000  0.5327030000000 1.0
C      1  0.5373470000000  0.4971610000000  0.4738010000000 1.0
C      1  0.5212000000000  0.5270280000000  0.4717350000000 1.0
C      1  0.4900300000000  0.5230320000000  0.4829360000000 1.0
C      1  0.4704270000000  0.4962340000000  0.4763140000000 1.0
C      1  0.5014620000000  0.4511990000000  0.4709250000000 1.0
C      1  0.4628860000000  0.4215660000000  0.5008340000000 1.0
C      1  0.4123870000000  0.5124960000000  0.4965060000000 1.0
C      1  0.4868000000000  0.5844810000000  0.4962400000000 1.0
C      1  0.5796520000000  0.5462380000000  0.4960300000000 1.0
C      1  0.5639280000000  0.4346990000000  0.4958800000000 1.0
C      1  0.4611460000000  0.5775120000000  0.5055760000000 1.0
C      1  0.4126630000000  0.4851920000000  0.5039840000000 1.0
C      1  0.4901860000000  0.4081380000000  0.5073780000000 1.0
C      1  0.5825780000000  0.4567660000000  0.5032130000000 1.0
C      1  0.5631030000000  0.5674520000000  0.5058970000000 1.0
C      1  0.4806350000000  0.5311820000000  0.5851810000000 1.0
C      1  0.5280850000000  0.5273950000000  0.5815300000000 1.0
C      1  0.5332870000000  0.4854740000000  0.5786320000000 1.0
C      1  0.4874290000000  0.4705510000000  0.5728070000000 1.0
C      1  0.4504740000000  0.4978360000000  0.5991650000000 1.0
C      1  0.4780920000000  0.4647450000000  0.4187460000000 1.0
C      1  0.5232270000000  0.4720030000000  0.4199090000000 1.0
C      1  0.5301510000000  0.5112760000000  0.4188730000000 1.0
C      1  0.4906830000000  0.5442840000000  0.4165430000000 1.0
C      1  0.4741310000000  0.4966600000000  0.4139810000000 1.0
C      1  0.4409710000000  0.4709260000000  0.4386190000000 1.0
C      1  0.4483470000000  0.5504140000000  0.4396270000000 1.0
C      1  0.5283380000000  0.5622120000000  0.4372230000000 1.0
C      1  0.5659910000000  0.4925420000000  0.4394250000000 1.0
C      1  0.5106620000000  0.4322200000000  0.4365950000000 1.0
C      1  0.4385880000000  0.5282770000000  0.5645770000000 1.0
C      1  0.4448680000000  0.4504460000000  0.5632620000000 1.0
C      1  0.5263700000000  0.4403010000000  0.5608880000000 1.0
C      1  0.5670270000000  0.5073790000000  0.5579040000000 1.0
C      1  0.5116730000000  0.5658390000000  0.5661640000000 1.0
C      1  0.4313040000000  0.4808120000000  0.5602820000000 1.0
C      1  0.4588370000000  0.5526310000000  0.5595590000000 1.0
C      1  0.5406080000000  0.5545270000000  0.5554400000000 1.0
C      1  0.5612780000000  0.4763520000000  0.5516890000000 1.0
C      1  0.4957280000000  0.4358850000000  0.5546860000000 1.0
C      1  0.4402420000000  0.5191520000000  0.4426540000000 1.0
C      1  0.4576170000000  0.4428710000000  0.4447610000000 1.0
C      1  0.5385460000000  0.4457550000000  0.4448570000000 1.0
C      1  0.5585420000000  0.5227150000000  0.4445360000000 1.0
C      1  0.4976840000000  0.5693600000000  0.4465000000000 1.0
C      1  0.4838370000000  0.4374010000000  0.4289370000000 1.0
C      1  0.4444950000000  0.4967580000000  0.4267580000000 1.0
C      1  0.4727130000000  0.5620210000000  0.4309890000000 1.0
C      1  0.5438030000000  0.5414140000000  0.4264410000000 1.0
C      1  0.5540070000000  0.4685850000000  0.4301040000000 1.0
C      1  0.4851710000000  0.5588070000000  0.5740420000000 1.0
C      1  0.4332510000000  0.5033180000000  0.5770840000000 1.0
C      1  0.4720920000000  0.4459130000000  0.5697700000000 1.0
C      1  0.5447940000000  0.4591670000000  0.5705670000000 1.0
C      1  0.5555800000000  0.5310180000000  0.5682690000000 1.0
C      1  0.4393260000000  0.4407060000000  0.5083940000000 1.0
C      1  0.4280090000000  0.5355640000000  0.5108930000000 1.0
C      1  0.5148150000000  0.5886100000000  0.5069690000000 1.0
C      1  0.5875430000000  0.5177180000000  0.5049320000000 1.0
C      1  0.5387990000000  0.4227920000000  0.5095400000000 1.0
C      1  0.4387240000000  0.5579350000000  0.4956260000000 1.0
C      1  0.4284780000000  0.4619330000000  0.4911510000000 1.0
C      1  0.5175980000000  0.4088900000000  0.4949940000000 1.0
C      1  0.5886680000000  0.4860630000000  0.4944280000000 1.0
C      1  0.5376490000000  0.5788840000000  0.4917440000000 1.0
C      1  0.4407970000000  0.5491430000000  0.4684580000000 1.0
C      1  0.5284430000000  0.5601920000000  0.4696590000000 1.0
C      1  0.5706610000000  0.4972870000000  0.4722720000000 1.0
C      1  0.5162710000000  0.4230660000000  0.4685210000000 1.0
C      1  0.4483390000000  0.4722040000000  0.4696840000000 1.0
C      1  0.4387710000000  0.4520710000000  0.5341190000000 1.0
C      1  0.5254280000000  0.4416240000000  0.5290110000000 1.0
C      1  0.5685410000000  0.5048020000000  0.5253100000000 1.0
C      1  0.5147920000000  0.5756250000000  0.5343170000000 1.0
C      1  0.4469250000000  0.5253390000000  0.5334190000000 1.0
C      1  0.4850210000000  0.5454550000000  0.5047780000000 1.0
C      1  0.5364250000000  0.4720210000000  0.4930620000000 1.0
C      1  0.4848690000000  0.4549020000000  0.4989510000000 1.0
C      1  0.5364560000000  0.5297610000000  0.5020170000000 1.0
C      1  0.4497520000000  0.4999110000000  0.5027880000000 1.0
C      1  0.5046000000000  0.5004370000000  0.4964030000000 1.0
END
