TITL C-2622956-4641-238 0.000812040079888937 125000 -560.54425244279 0 0 109 (C1) n - 1
REM
REM in /nfs/bkarasulu/CARBON/AIRSS/Generating-Clusters/AIREBO/with-SteepDescent/Higher-Symm/SD-CG/HFTN-CG
REM
REM
REM
REM
REM
REM ./C.cell (b20cbc046b6831c77cfcea5457e17084)
REM
REM compiler GCC version 9.2.1 20190827 (Red Hat 9.2.1-1)
REM options -cpp -mtune=generic -march=x86-64 -g -O0 -fpre-include=/usr/include/finclude/math-vector-fortran.h
REM seed -431020744 -347428894 1465746933 118583793 -2046756030 535355588 78522246 1684241567 706646489 1316374538 719726702 -323599461 -1131994546 -1555900406 -508271828 559448408 880566840 217897091 -1645998240 1607152145 1193977321 -794659253 1920381694 150920820 2049120793 -1208928442 610523493 -1548644946 -1675404213 767071603 -1034799660 -1231178270 926858178
REM
CELL 1.54180   50.00000   50.00000   50.00000   90.00000   90.00000   90.00000
LATT -1
SFAC C  
C      1  0.5347260000000  0.5237900000000  0.5595990000000 1.0
C      1  0.5256060000000  0.4815190000000  0.4397150000000 1.0
C      1  0.5394850000000  0.4901030000000  0.5598430000000 1.0
C      1  0.5373970000000  0.5133290000000  0.4368100000000 1.0
C      1  0.4427860000000  0.4834230000000  0.5624680000000 1.0
C      1  0.4206990000000  0.5122600000000  0.4453610000000 1.0
C      1  0.4358010000000  0.5122080000000  0.5461630000000 1.0
C      1  0.4380230000000  0.4845800000000  0.4403060000000 1.0
C      1  0.5841490000000  0.4625200000000  0.4721340000000 1.0
C      1  0.5797250000000  0.5310920000000  0.5274650000000 1.0
C      1  0.5736450000000  0.5353370000000  0.4635090000000 1.0
C      1  0.5779180000000  0.4689860000000  0.5309660000000 1.0
C      1  0.5667380000000  0.5547840000000  0.4859640000000 1.0
C      1  0.5648260000000  0.4474180000000  0.5150330000000 1.0
C      1  0.5660500000000  0.4470960000000  0.4869800000000 1.0
C      1  0.5699140000000  0.5551710000000  0.5137030000000 1.0
C      1  0.4803320000000  0.4605560000000  0.5206980000000 1.0
C      1  0.4773230000000  0.5420670000000  0.4925850000000 1.0
C      1  0.4719870000000  0.5372290000000  0.5258180000000 1.0
C      1  0.4843210000000  0.4550230000000  0.4721450000000 1.0
C      1  0.5411150000000  0.5566650000000  0.5536050000000 1.0
C      1  0.5331300000000  0.4483540000000  0.4392350000000 1.0
C      1  0.5359660000000  0.4562700000000  0.5594160000000 1.0
C      1  0.5346500000000  0.5468080000000  0.4421990000000 1.0
C      1  0.5681410000000  0.5111020000000  0.4469340000000 1.0
C      1  0.5723840000000  0.4877520000000  0.5530420000000 1.0
C      1  0.5751340000000  0.4885070000000  0.4613700000000 1.0
C      1  0.5677140000000  0.5170230000000  0.5510070000000 1.0
C      1  0.5052800000000  0.4138140000000  0.5400050000000 1.0
C      1  0.4983540000000  0.5836360000000  0.4646300000000 1.0
C      1  0.5068120000000  0.5712880000000  0.5349020000000 1.0
C      1  0.5046730000000  0.4051520000000  0.4634380000000 1.0
C      1  0.4205400000000  0.4910960000000  0.5158490000000 1.0
C      1  0.4083720000000  0.5122010000000  0.4713100000000 1.0
C      1  0.4105320000000  0.5211100000000  0.5033430000000 1.0
C      1  0.4171250000000  0.4863120000000  0.4862100000000 1.0
C      1  0.5225640000000  0.5802160000000  0.4872400000000 1.0
C      1  0.5222450000000  0.4186280000000  0.5116700000000 1.0
C      1  0.5253880000000  0.4170400000000  0.4852460000000 1.0
C      1  0.5292670000000  0.5842590000000  0.5146900000000 1.0
C      1  0.5204520000000  0.4662410000000  0.4097730000000 1.0
C      1  0.5390520000000  0.5199510000000  0.5931160000000 1.0
C      1  0.5315570000000  0.5316910000000  0.4087910000000 1.0
C      1  0.5227080000000  0.4742690000000  0.5850540000000 1.0
C      1  0.5545600000000  0.4853860000000  0.4867270000000 1.0
C      1  0.5563690000000  0.5156730000000  0.5127040000000 1.0
C      1  0.5508330000000  0.5184430000000  0.4821140000000 1.0
C      1  0.5518300000000  0.4848980000000  0.5188670000000 1.0
C      1  0.4583060000000  0.4374990000000  0.4589920000000 1.0
C      1  0.4579380000000  0.5651050000000  0.5388580000000 1.0
C      1  0.4587360000000  0.5487340000000  0.4579410000000 1.0
C      1  0.4556360000000  0.4391870000000  0.5436680000000 1.0
C      1  0.4617160000000  0.4918160000000  0.4193680000000 1.0
C      1  0.4526060000000  0.5200290000000  0.5729430000000 1.0
C      1  0.4480280000000  0.5210420000000  0.4302110000000 1.0
C      1  0.4624140000000  0.4919750000000  0.5854610000000 1.0
C      1  0.4619010000000  0.5773720000000  0.5703200000000 1.0
C      1  0.4787060000000  0.4137360000000  0.4466270000000 1.0
C      1  0.4740050000000  0.4139060000000  0.5533640000000 1.0
C      1  0.4799540000000  0.5646970000000  0.4469690000000 1.0
C      1  0.5295460000000  0.5213940000000  0.5271430000000 1.0
C      1  0.5270140000000  0.4799700000000  0.4722750000000 1.0
C      1  0.5208780000000  0.4817720000000  0.5326120000000 1.0
C      1  0.5174700000000  0.5118220000000  0.4776780000000 1.0
C      1  0.4363300000000  0.5586480000000  0.5134090000000 1.0
C      1  0.4460090000000  0.4536860000000  0.4828760000000 1.0
C      1  0.4511900000000  0.4494210000000  0.5118480000000 1.0
C      1  0.4471070000000  0.5540070000000  0.4853510000000 1.0
C      1  0.5054550000000  0.5198910000000  0.4468990000000 1.0
C      1  0.4968770000000  0.4724580000000  0.5548680000000 1.0
C      1  0.4923480000000  0.4718740000000  0.4370250000000 1.0
C      1  0.5005760000000  0.5300330000000  0.5642340000000 1.0
C      1  0.4468050000000  0.4855860000000  0.4731420000000 1.0
C      1  0.4415920000000  0.5250830000000  0.5165940000000 1.0
C      1  0.4582700000000  0.5131810000000  0.4894540000000 1.0
C      1  0.4438190000000  0.4766340000000  0.5300010000000 1.0
C      1  0.4803550000000  0.5758570000000  0.4901500000000 1.0
C      1  0.4836800000000  0.4268920000000  0.5172170000000 1.0
C      1  0.4863780000000  0.4249270000000  0.4841890000000 1.0
C      1  0.4829800000000  0.5881050000000  0.5214580000000 1.0
C      1  0.4652020000000  0.4003250000000  0.5070950000000 1.0
C      1  0.4624030000000  0.6045760000000  0.4939030000000 1.0
C      1  0.4703020000000  0.6177360000000  0.5191390000000 1.0
C      1  0.4686620000000  0.3962190000000  0.4796690000000 1.0
C      1  0.5052360000000  0.5145360000000  0.4133150000000 1.0
C      1  0.4920910000000  0.4861380000000  0.5841970000000 1.0
C      1  0.4937880000000  0.4873490000000  0.4089470000000 1.0
C      1  0.5100520000000  0.5122240000000  0.5886940000000 1.0
C      1  0.5408200000000  0.4407940000000  0.4718310000000 1.0
C      1  0.5497000000000  0.5674940000000  0.5285100000000 1.0
C      1  0.5374620000000  0.5553230000000  0.4743670000000 1.0
C      1  0.5376130000000  0.4429580000000  0.5280960000000 1.0
C      1  0.5219540000000  0.5752320000000  0.5651060000000 1.0
C      1  0.5258620000000  0.4188880000000  0.4419560000000 1.0
C      1  0.5263930000000  0.4243500000000  0.5615170000000 1.0
C      1  0.5234870000000  0.5757810000000  0.4431130000000 1.0
C      1  0.4854230000000  0.4442230000000  0.5567450000000 1.0
C      1  0.4962810000000  0.5488610000000  0.4316260000000 1.0
C      1  0.4853680000000  0.5586020000000  0.5579830000000 1.0
C      1  0.4806610000000  0.4443390000000  0.4339650000000 1.0
C      1  0.4744060000000  0.4887830000000  0.5387050000000 1.0
C      1  0.4719490000000  0.5178660000000  0.4523180000000 1.0
C      1  0.4752960000000  0.5171100000000  0.5495930000000 1.0
C      1  0.4777380000000  0.4859290000000  0.4605800000000 1.0
C      1  0.5111630000000  0.5419750000000  0.4892850000000 1.0
C      1  0.5108540000000  0.4567270000000  0.5133980000000 1.0
C      1  0.5127920000000  0.4557150000000  0.4840080000000 1.0
C      1  0.5056460000000  0.5419000000000  0.5208200000000 1.0
C      1  0.5088680000000  0.5036890000000  0.5095530000000 1.0
END
