TITL C-2622960-5345-175 -0.00270905480418425 125000 -226.410482707937 0 0 45 (C1) n - 1
REM
REM in /nfs/bkarasulu/CARBON/AIRSS/Generating-Clusters/AIREBO/with-SteepDescent/Higher-Symm/SD-CG/HFTN-CG
REM
REM
REM
REM
REM
REM ./C.cell (b20cbc046b6831c77cfcea5457e17084)
REM
REM compiler GCC version 9.2.1 20190827 (Red Hat 9.2.1-1)
REM options -cpp -mtune=generic -march=x86-64 -g -O0 -fpre-include=/usr/include/finclude/math-vector-fortran.h
REM seed -1298867627 -2117621189 160631857 -462482232 -1495151450 708639136 -891947825 -395513749 272763362 -613587959 -1492996782 1406206066 1092971193 1737951029 -804298670 1635237333 1295566687 -1659716916 -1107309843 -203028953 639530855 1751959855 1369111019 -1809437937 1962096164 -1588810903 1904012726 1329853698 -1935461053 1750172063 1068240715 6182814 -687915677
REM
CELL 1.54180   50.00000   50.00000   50.00000   90.00000   90.00000   90.00000
LATT -1
SFAC C  
C      1  0.4289790000000  0.5305580000000  0.5225730000000 1.0
C      1  0.4807570000000  0.5540580000000  0.5491080000000 1.0
C      1  0.5321450000000  0.5361700000000  0.5521620000000 1.0
C      1  0.5553820000000  0.5221160000000  0.5100700000000 1.0
C      1  0.5502630000000  0.5532770000000  0.4590440000000 1.0
C      1  0.4890660000000  0.5348130000000  0.4433710000000 1.0
C      1  0.4549640000000  0.5503080000000  0.4729120000000 1.0
C      1  0.5493280000000  0.4426440000000  0.5091500000000 1.0
C      1  0.5416720000000  0.4402990000000  0.4848780000000 1.0
C      1  0.5104630000000  0.4541740000000  0.4393550000000 1.0
C      1  0.4806220000000  0.4278190000000  0.4684230000000 1.0
C      1  0.4350680000000  0.4446530000000  0.5040840000000 1.0
C      1  0.4713610000000  0.4399760000000  0.5350700000000 1.0
C      1  0.5033060000000  0.4561400000000  0.5482690000000 1.0
C      1  0.4557780000000  0.5200170000000  0.5173060000000 1.0
C      1  0.4727870000000  0.5269120000000  0.5459420000000 1.0
C      1  0.5237640000000  0.5032630000000  0.5538800000000 1.0
C      1  0.5500460000000  0.4984970000000  0.5328390000000 1.0
C      1  0.5142370000000  0.5148340000000  0.4670750000000 1.0
C      1  0.4812350000000  0.5087810000000  0.4614370000000 1.0
C      1  0.4576860000000  0.5199210000000  0.4833370000000 1.0
C      1  0.5322610000000  0.4930910000000  0.5802030000000 1.0
C      1  0.5505550000000  0.4944030000000  0.4967010000000 1.0
C      1  0.5230520000000  0.5153520000000  0.4372010000000 1.0
C      1  0.4772000000000  0.4803300000000  0.4500630000000 1.0
C      1  0.4549540000000  0.4873470000000  0.4824940000000 1.0
C      1  0.4569340000000  0.4874040000000  0.5222990000000 1.0
C      1  0.4903350000000  0.5089040000000  0.5559880000000 1.0
C      1  0.4798980000000  0.5648950000000  0.4764570000000 1.0
C      1  0.4873520000000  0.5622790000000  0.5033070000000 1.0
C      1  0.4995620000000  0.5636690000000  0.5297480000000 1.0
C      1  0.5256190000000  0.5522750000000  0.5295870000000 1.0
C      1  0.5373050000000  0.5429910000000  0.5053860000000 1.0
C      1  0.5281560000000  0.5448870000000  0.4748260000000 1.0
C      1  0.4999250000000  0.5539560000000  0.4599200000000 1.0
C      1  0.5248240000000  0.4612330000000  0.4696730000000 1.0
C      1  0.4914730000000  0.4549110000000  0.4675650000000 1.0
C      1  0.4793170000000  0.4696120000000  0.4944110000000 1.0
C      1  0.4582480000000  0.4557260000000  0.5150860000000 1.0
C      1  0.5163420000000  0.4769860000000  0.5330400000000 1.0
C      1  0.5457200000000  0.4678200000000  0.5220070000000 1.0
C      1  0.5334970000000  0.4895830000000  0.4751380000000 1.0
C      1  0.5018470000000  0.5127690000000  0.4985690000000 1.0
C      1  0.4991550000000  0.4866420000000  0.5094250000000 1.0
C      1  0.4858950000000  0.5325740000000  0.5086300000000 1.0
END
