TITL C-2622954-8726-175 -0.000371136431880311 125000 -781.234217154817 0 0 138 (C1) n - 1
REM
REM in /nfs/bkarasulu/CARBON/AIRSS/Generating-Clusters/AIREBO/with-SteepDescent/Higher-Symm/SD-CG/HFTN-CG
REM
REM
REM
REM
REM
REM ./C.cell (b20cbc046b6831c77cfcea5457e17084)
REM
REM compiler GCC version 9.2.1 20190827 (Red Hat 9.2.1-1)
REM options -cpp -mtune=generic -march=x86-64 -g -O0 -fpre-include=/usr/include/finclude/math-vector-fortran.h
REM seed -59018466 -660515190 1849636570 -1482558686 416898721 -1190676417 1205272418 -1096250141 -2006259027 -1772494055 -811664460 370331817 -2142706134 1730400205 907303715 1250079197 2113838131 -2023395029 1476428579 -661610513 -419945232 1163096517 -287551327 2042182421 -2055737810 414111786 -1533881494 1788190064 1634758487 944587888 1272229023 -417034921 668522654
REM
CELL 1.54180   50.00000   50.00000   50.00000   90.00000   90.00000   90.00000
LATT -1
SFAC C  
C      1  0.6066760000000  0.5200920000000  0.4431610000000 1.0
C      1  0.5895730000000  0.4979920000000  0.4396660000000 1.0
C      1  0.5985270000000  0.4744070000000  0.4526030000000 1.0
C      1  0.5902530000000  0.4526830000000  0.4684860000000 1.0
C      1  0.5913390000000  0.4485850000000  0.4953540000000 1.0
C      1  0.5882730000000  0.4572050000000  0.5278720000000 1.0
C      1  0.6147270000000  0.4725070000000  0.5374610000000 1.0
C      1  0.6100140000000  0.5008520000000  0.5380480000000 1.0
C      1  0.6212440000000  0.5200600000000  0.5208620000000 1.0
C      1  0.6150250000000  0.5305180000000  0.4966300000000 1.0
C      1  0.6137580000000  0.5348530000000  0.4653700000000 1.0
C      1  0.4979560000000  0.4428200000000  0.5704980000000 1.0
C      1  0.4950590000000  0.4900630000000  0.5918670000000 1.0
C      1  0.4837850000000  0.5490900000000  0.5879390000000 1.0
C      1  0.5074210000000  0.5713830000000  0.5610460000000 1.0
C      1  0.5025000000000  0.5915340000000  0.5203760000000 1.0
C      1  0.4864990000000  0.5937980000000  0.4357920000000 1.0
C      1  0.5044160000000  0.5424790000000  0.4138500000000 1.0
C      1  0.4972900000000  0.4882900000000  0.4078030000000 1.0
C      1  0.4955330000000  0.4368890000000  0.4233560000000 1.0
C      1  0.5016600000000  0.4095470000000  0.4691610000000 1.0
C      1  0.5067070000000  0.4061860000000  0.5281830000000 1.0
C      1  0.4911010000000  0.3990340000000  0.4992170000000 1.0
C      1  0.4872140000000  0.4183090000000  0.5524720000000 1.0
C      1  0.4804520000000  0.4631830000000  0.5864200000000 1.0
C      1  0.4773070000000  0.5170320000000  0.5920550000000 1.0
C      1  0.4753870000000  0.5718870000000  0.5641090000000 1.0
C      1  0.4747970000000  0.5976290000000  0.5177710000000 1.0
C      1  0.4677110000000  0.5934880000000  0.4591600000000 1.0
C      1  0.4882470000000  0.5666230000000  0.4232100000000 1.0
C      1  0.4874350000000  0.5173900000000  0.4033880000000 1.0
C      1  0.4779540000000  0.4603140000000  0.4078780000000 1.0
C      1  0.4842020000000  0.4146010000000  0.4435350000000 1.0
C      1  0.4310900000000  0.4964960000000  0.4496950000000 1.0
C      1  0.4250690000000  0.4666340000000  0.4565370000000 1.0
C      1  0.4207320000000  0.4538500000000  0.4843840000000 1.0
C      1  0.4264080000000  0.4565350000000  0.5113330000000 1.0
C      1  0.4317910000000  0.4687460000000  0.5407910000000 1.0
C      1  0.4217690000000  0.4915530000000  0.5586000000000 1.0
C      1  0.4259440000000  0.5207450000000  0.5493040000000 1.0
C      1  0.4168570000000  0.5483470000000  0.5321120000000 1.0
C      1  0.4220890000000  0.5559340000000  0.5047600000000 1.0
C      1  0.4201450000000  0.5446330000000  0.4782170000000 1.0
C      1  0.4142970000000  0.5196790000000  0.4643260000000 1.0
C      1  0.4305850000000  0.5354010000000  0.5789250000000 1.0
C      1  0.4252260000000  0.5704500000000  0.5504560000000 1.0
C      1  0.4397600000000  0.5786000000000  0.5070570000000 1.0
C      1  0.4306670000000  0.5633830000000  0.4589980000000 1.0
C      1  0.4458210000000  0.5471120000000  0.4186960000000 1.0
C      1  0.4436920000000  0.4934230000000  0.4201820000000 1.0
C      1  0.4383310000000  0.4502550000000  0.4368510000000 1.0
C      1  0.4354820000000  0.4314080000000  0.4719450000000 1.0
C      1  0.4484800000000  0.4000360000000  0.5255300000000 1.0
C      1  0.4436400000000  0.4457600000000  0.5603810000000 1.0
C      1  0.4358390000000  0.4837410000000  0.5859500000000 1.0
C      1  0.5129490000000  0.4635660000000  0.4728630000000 1.0
C      1  0.5329450000000  0.4538180000000  0.4974440000000 1.0
C      1  0.5237640000000  0.4606910000000  0.5268420000000 1.0
C      1  0.5408850000000  0.4797220000000  0.5409350000000 1.0
C      1  0.5278200000000  0.5027870000000  0.5494240000000 1.0
C      1  0.5367460000000  0.5292810000000  0.5380700000000 1.0
C      1  0.5453860000000  0.5310960000000  0.5065550000000 1.0
C      1  0.5233420000000  0.5477650000000  0.4887650000000 1.0
C      1  0.5439970000000  0.5321840000000  0.4667050000000 1.0
C      1  0.5385050000000  0.5045980000000  0.4477240000000 1.0
C      1  0.5346200000000  0.4726370000000  0.4517150000000 1.0
C      1  0.5533630000000  0.4366790000000  0.4930450000000 1.0
C      1  0.5733080000000  0.4290510000000  0.5166760000000 1.0
C      1  0.5682230000000  0.4793210000000  0.5402280000000 1.0
C      1  0.5821600000000  0.5042010000000  0.5442280000000 1.0
C      1  0.5698900000000  0.5287500000000  0.5375700000000 1.0
C      1  0.5766700000000  0.5382750000000  0.5090120000000 1.0
C      1  0.5900960000000  0.5495830000000  0.4833100000000 1.0
C      1  0.5666760000000  0.5487450000000  0.4622230000000 1.0
C      1  0.5629580000000  0.4994750000000  0.4281060000000 1.0
C      1  0.5502830000000  0.4526070000000  0.4430440000000 1.0
C      1  0.5707690000000  0.4379480000000  0.4539910000000 1.0
C      1  0.5595120000000  0.4072360000000  0.5329390000000 1.0
C      1  0.5456160000000  0.4312590000000  0.5970940000000 1.0
C      1  0.5341470000000  0.4871100000000  0.6315010000000 1.0
C      1  0.5014460000000  0.5725960000000  0.6351180000000 1.0
C      1  0.5376930000000  0.5650910000000  0.6077130000000 1.0
C      1  0.5265440000000  0.6187580000000  0.5550440000000 1.0
C      1  0.5113400000000  0.6375440000000  0.4170800000000 1.0
C      1  0.5470690000000  0.5577850000000  0.3811120000000 1.0
C      1  0.5519610000000  0.4919490000000  0.4031190000000 1.0
C      1  0.5383510000000  0.4197350000000  0.3923250000000 1.0
C      1  0.5516960000000  0.3884900000000  0.4558270000000 1.0
C      1  0.4889650000000  0.5347480000000  0.5583980000000 1.0
C      1  0.5121930000000  0.5480450000000  0.5388970000000 1.0
C      1  0.5072970000000  0.5620850000000  0.5100380000000 1.0
C      1  0.5043120000000  0.5304640000000  0.4708190000000 1.0
C      1  0.5129270000000  0.5257400000000  0.4402190000000 1.0
C      1  0.4848200000000  0.4845430000000  0.4384200000000 1.0
C      1  0.4890850000000  0.4568870000000  0.4498250000000 1.0
C      1  0.4985540000000  0.4362840000000  0.4870510000000 1.0
C      1  0.5034550000000  0.4356350000000  0.5173410000000 1.0
C      1  0.4934800000000  0.4560440000000  0.5412360000000 1.0
C      1  0.5020220000000  0.5046850000000  0.5633500000000 1.0
C      1  0.4516520000000  0.4660700000000  0.4172070000000 1.0
C      1  0.4517350000000  0.4200890000000  0.4444240000000 1.0
C      1  0.4617110000000  0.4026260000000  0.5015890000000 1.0
C      1  0.4582750000000  0.4231030000000  0.5446270000000 1.0
C      1  0.4525610000000  0.4604860000000  0.5831750000000 1.0
C      1  0.4504440000000  0.5105250000000  0.5790120000000 1.0
C      1  0.4246580000000  0.5616580000000  0.5773380000000 1.0
C      1  0.4544590000000  0.5799660000000  0.5385240000000 1.0
C      1  0.4645890000000  0.5887770000000  0.4876980000000 1.0
C      1  0.4609190000000  0.5640880000000  0.4434890000000 1.0
C      1  0.4585750000000  0.5184850000000  0.4149810000000 1.0
C      1  0.4933100000000  0.5618400000000  0.6134590000000 1.0
C      1  0.5234090000000  0.5679280000000  0.5867180000000 1.0
C      1  0.5149980000000  0.5963360000000  0.5450160000000 1.0
C      1  0.5002620000000  0.6159570000000  0.4269890000000 1.0
C      1  0.5271220000000  0.5501140000000  0.3950580000000 1.0
C      1  0.5263260000000  0.4842290000000  0.3975590000000 1.0
C      1  0.5195810000000  0.4283150000000  0.4073410000000 1.0
C      1  0.5285900000000  0.3969720000000  0.4625700000000 1.0
C      1  0.5361820000000  0.3984640000000  0.5330800000000 1.0
C      1  0.5238360000000  0.4364730000000  0.5848660000000 1.0
C      1  0.5155360000000  0.4892740000000  0.6141750000000 1.0
C      1  0.4657090000000  0.4726940000000  0.5409630000000 1.0
C      1  0.4710760000000  0.4994990000000  0.5542040000000 1.0
C      1  0.4586580000000  0.5285710000000  0.5442880000000 1.0
C      1  0.4632460000000  0.5512520000000  0.5245020000000 1.0
C      1  0.4773360000000  0.5592340000000  0.4986970000000 1.0
C      1  0.4763200000000  0.5473480000000  0.4687670000000 1.0
C      1  0.4785450000000  0.5282940000000  0.4406940000000 1.0
C      1  0.4644780000000  0.5019570000000  0.4531330000000 1.0
C      1  0.4664290000000  0.4433810000000  0.4643680000000 1.0
C      1  0.4677260000000  0.4333080000000  0.4953770000000 1.0
C      1  0.4576540000000  0.4467360000000  0.5205170000000 1.0
C      1  0.4828800000000  0.4959520000000  0.4930140000000 1.0
C      1  0.4573040000000  0.5009920000000  0.4959720000000 1.0
C      1  0.4344230000000  0.5131050000000  0.4982280000000 1.0
C      1  0.5641340000000  0.4995010000000  0.4879080000000 1.0
C      1  0.5079030000000  0.4913900000000  0.4873220000000 1.0
C      1  0.5325910000000  0.5074590000000  0.4871430000000 1.0
END
