TITL C-2622955-8511-319 -0.0105231315859568 125000 -686.372870619144 0 0 118 (C1) n - 1
REM
REM in /nfs/bkarasulu/CARBON/AIRSS/Generating-Clusters/AIREBO/with-SteepDescent/Higher-Symm/SD-CG/HFTN-CG
REM
REM
REM
REM
REM
REM ./C.cell (b20cbc046b6831c77cfcea5457e17084)
REM
REM compiler GCC version 9.2.1 20190827 (Red Hat 9.2.1-1)
REM options -cpp -mtune=generic -march=x86-64 -g -O0 -fpre-include=/usr/include/finclude/math-vector-fortran.h
REM seed 661035998 1718238178 1427798248 762324244 183183427 102290294 648316241 946208886 -2081729814 284613047 2120096563 1865563648 -620051780 -150472195 960660934 455971272 2061911443 859100518 1937791146 1308272829 481925195 1240866758 307625362 2125239365 -1960562693 161857849 -1745119185 -63632060 590506525 -1933981601 -2070002957 299665490 -1599403478
REM
CELL 1.54180   50.00000   50.00000   50.00000   90.00000   90.00000   90.00000
LATT -1
SFAC C  
C      1  0.5161010000000  0.4215710000000  0.4217710000000 1.0
C      1  0.5142010000000  0.4016530000000  0.4748250000000 1.0
C      1  0.5011620000000  0.4003720000000  0.5247970000000 1.0
C      1  0.5118970000000  0.4311340000000  0.5777820000000 1.0
C      1  0.5115650000000  0.4810780000000  0.5980200000000 1.0
C      1  0.5171250000000  0.5415880000000  0.5922550000000 1.0
C      1  0.5073120000000  0.5866640000000  0.5545180000000 1.0
C      1  0.5059330000000  0.6032450000000  0.4917940000000 1.0
C      1  0.5145190000000  0.5812090000000  0.4376730000000 1.0
C      1  0.5222140000000  0.5368730000000  0.4017320000000 1.0
C      1  0.5030140000000  0.4793630000000  0.3999750000000 1.0
C      1  0.4998880000000  0.4550740000000  0.4925170000000 1.0
C      1  0.4989640000000  0.4600030000000  0.5239310000000 1.0
C      1  0.4999030000000  0.4900420000000  0.5307550000000 1.0
C      1  0.4854800000000  0.5034270000000  0.5489000000000 1.0
C      1  0.4786380000000  0.5298330000000  0.5453840000000 1.0
C      1  0.4760500000000  0.5485470000000  0.5240480000000 1.0
C      1  0.4750880000000  0.5544400000000  0.4962370000000 1.0
C      1  0.4777500000000  0.5403210000000  0.4717960000000 1.0
C      1  0.4884690000000  0.5130880000000  0.4570320000000 1.0
C      1  0.4994960000000  0.4866980000000  0.4575890000000 1.0
C      1  0.4884790000000  0.4634640000000  0.4692580000000 1.0
C      1  0.5047300000000  0.4072670000000  0.4492440000000 1.0
C      1  0.4954220000000  0.3969810000000  0.4953590000000 1.0
C      1  0.5039160000000  0.4154140000000  0.5564070000000 1.0
C      1  0.4963860000000  0.4527640000000  0.5875800000000 1.0
C      1  0.5012500000000  0.5125270000000  0.5889930000000 1.0
C      1  0.5030510000000  0.5688310000000  0.5780780000000 1.0
C      1  0.5022290000000  0.5999200000000  0.5232370000000 1.0
C      1  0.4943530000000  0.5894420000000  0.4626120000000 1.0
C      1  0.5014480000000  0.5562970000000  0.4186650000000 1.0
C      1  0.5046270000000  0.5102650000000  0.3978620000000 1.0
C      1  0.4990900000000  0.4489200000000  0.4153310000000 1.0
C      1  0.5717420000000  0.4251090000000  0.5109390000000 1.0
C      1  0.5682420000000  0.4350890000000  0.5434310000000 1.0
C      1  0.5660940000000  0.4641920000000  0.5609030000000 1.0
C      1  0.5706080000000  0.5362260000000  0.5575330000000 1.0
C      1  0.5785570000000  0.5557100000000  0.5385740000000 1.0
C      1  0.5765470000000  0.5730230000000  0.5091600000000 1.0
C      1  0.5666550000000  0.5649680000000  0.4796550000000 1.0
C      1  0.5740710000000  0.5486510000000  0.4507450000000 1.0
C      1  0.5689360000000  0.5013750000000  0.4351930000000 1.0
C      1  0.5741910000000  0.4681610000000  0.4395130000000 1.0
C      1  0.5648120000000  0.4462900000000  0.4624880000000 1.0
C      1  0.5557550000000  0.4776690000000  0.4149480000000 1.0
C      1  0.5629570000000  0.4308720000000  0.4335550000000 1.0
C      1  0.5631860000000  0.4241970000000  0.4845660000000 1.0
C      1  0.5538550000000  0.4086550000000  0.5308670000000 1.0
C      1  0.5618900000000  0.4343480000000  0.5758060000000 1.0
C      1  0.5615850000000  0.4708310000000  0.5921790000000 1.0
C      1  0.5681480000000  0.5417700000000  0.5852040000000 1.0
C      1  0.5634180000000  0.5842810000000  0.5384330000000 1.0
C      1  0.5572260000000  0.5984320000000  0.4993610000000 1.0
C      1  0.5619510000000  0.5863290000000  0.4562100000000 1.0
C      1  0.5670650000000  0.5321590000000  0.4302700000000 1.0
C      1  0.4850710000000  0.5286550000000  0.4121750000000 1.0
C      1  0.4724270000000  0.4663420000000  0.4065870000000 1.0
C      1  0.4836250000000  0.4289610000000  0.4373710000000 1.0
C      1  0.4689290000000  0.3991180000000  0.4883820000000 1.0
C      1  0.4780400000000  0.4187150000000  0.5391830000000 1.0
C      1  0.4684120000000  0.4511510000000  0.5851970000000 1.0
C      1  0.4795930000000  0.4885450000000  0.5936620000000 1.0
C      1  0.4838770000000  0.5415810000000  0.5851300000000 1.0
C      1  0.4770900000000  0.5928110000000  0.5424340000000 1.0
C      1  0.4737030000000  0.6004760000000  0.4839080000000 1.0
C      1  0.4806360000000  0.5781950000000  0.4335860000000 1.0
C      1  0.4615900000000  0.5704860000000  0.5401000000000 1.0
C      1  0.4598340000000  0.5790260000000  0.4928850000000 1.0
C      1  0.4616480000000  0.5556290000000  0.4465220000000 1.0
C      1  0.4683290000000  0.5251670000000  0.4361870000000 1.0
C      1  0.4513410000000  0.4680270000000  0.4227410000000 1.0
C      1  0.4693020000000  0.4440500000000  0.4579400000000 1.0
C      1  0.4560580000000  0.4256170000000  0.4818760000000 1.0
C      1  0.4722550000000  0.4460550000000  0.5296940000000 1.0
C      1  0.4474460000000  0.4560620000000  0.5696420000000 1.0
C      1  0.4695590000000  0.4892390000000  0.5672480000000 1.0
C      1  0.4576350000000  0.5382900000000  0.5677250000000 1.0
C      1  0.5400410000000  0.4632660000000  0.4709050000000 1.0
C      1  0.5285610000000  0.4582840000000  0.4970950000000 1.0
C      1  0.5320870000000  0.4672970000000  0.5273730000000 1.0
C      1  0.5487330000000  0.4828470000000  0.5452540000000 1.0
C      1  0.5532410000000  0.5114160000000  0.5491090000000 1.0
C      1  0.5386720000000  0.5345100000000  0.5336210000000 1.0
C      1  0.5314850000000  0.5509950000000  0.5120500000000 1.0
C      1  0.5401950000000  0.5493850000000  0.4849240000000 1.0
C      1  0.5356370000000  0.5314720000000  0.4634210000000 1.0
C      1  0.5414780000000  0.5079100000000  0.4490930000000 1.0
C      1  0.5276390000000  0.4844320000000  0.4558470000000 1.0
C      1  0.4398930000000  0.4536910000000  0.4723940000000 1.0
C      1  0.4491190000000  0.4481060000000  0.5052150000000 1.0
C      1  0.4415710000000  0.4595460000000  0.5363350000000 1.0
C      1  0.4404490000000  0.4868230000000  0.5569570000000 1.0
C      1  0.4326660000000  0.5169990000000  0.5588080000000 1.0
C      1  0.4394740000000  0.5444640000000  0.5396380000000 1.0
C      1  0.4259730000000  0.5404480000000  0.5103800000000 1.0
C      1  0.4276780000000  0.5386770000000  0.4854010000000 1.0
C      1  0.4393940000000  0.5324840000000  0.4577370000000 1.0
C      1  0.4359230000000  0.5023310000000  0.4507460000000 1.0
C      1  0.4408950000000  0.4758080000000  0.4478460000000 1.0
C      1  0.5375190000000  0.5846490000000  0.5446150000000 1.0
C      1  0.5363820000000  0.6085580000000  0.4911590000000 1.0
C      1  0.5430710000000  0.5890420000000  0.4404080000000 1.0
C      1  0.5491200000000  0.5380980000000  0.4093520000000 1.0
C      1  0.5352200000000  0.4740210000000  0.3990730000000 1.0
C      1  0.5451120000000  0.4198990000000  0.4200480000000 1.0
C      1  0.5418500000000  0.4059300000000  0.4793460000000 1.0
C      1  0.5315000000000  0.3953670000000  0.5322200000000 1.0
C      1  0.5383900000000  0.4285090000000  0.5869990000000 1.0
C      1  0.5405230000000  0.4753640000000  0.6046890000000 1.0
C      1  0.5458600000000  0.5431990000000  0.6008860000000 1.0
C      1  0.4460560000000  0.5029770000000  0.5023140000000 1.0
C      1  0.4192820000000  0.5017120000000  0.5030160000000 1.0
C      1  0.5603970000000  0.5017330000000  0.4982650000000 1.0
C      1  0.5346030000000  0.5129600000000  0.5003130000000 1.0
C      1  0.4728460000000  0.4996880000000  0.5033290000000 1.0
C      1  0.5063550000000  0.5048710000000  0.5059540000000 1.0
C      1  0.3931460000000  0.5008780000000  0.5012190000000 1.0
C      1  0.5853340000000  0.4934010000000  0.4978550000000 1.0
END
