TITL C-2622962-9663-246 -1.08238159705952e-05 125000 -92.1828045327258 0 0 21 (C1) n - 1
REM
REM in /nfs/bkarasulu/CARBON/AIRSS/Generating-Clusters/AIREBO/with-SteepDescent/Higher-Symm/SD-CG/HFTN-CG
REM
REM
REM
REM
REM
REM ./C.cell (b20cbc046b6831c77cfcea5457e17084)
REM
REM compiler GCC version 9.2.1 20190827 (Red Hat 9.2.1-1)
REM options -cpp -mtune=generic -march=x86-64 -g -O0 -fpre-include=/usr/include/finclude/math-vector-fortran.h
REM seed 887409760 -57163683 -2009551416 1731995577 1128273630 1504416775 -161834877 723457413 -268498591 958991817 172724674 1214574649 -1094648275 798265129 -508827188 1978703508 1573555109 698779 1737193377 -1057203760 -2104174093 77627752 -2001277537 -1747841272 -335096064 -259318799 -40546358 -1417589123 126439807 -181932029 1498540070 1369239859 283158728
REM
CELL 1.54180   50.00000   50.00000   50.00000   90.00000   90.00000   90.00000
LATT -1
SFAC C  
C      1  0.4609420000000  0.5314820000000  0.5073510000000 1.0
C      1  0.5156570000000  0.5444650000000  0.5143280000000 1.0
C      1  0.5564140000000  0.5081850000000  0.4816570000000 1.0
C      1  0.5203200000000  0.4520790000000  0.5146740000000 1.0
C      1  0.4548660000000  0.4722340000000  0.5053910000000 1.0
C      1  0.5049580000000  0.4696160000000  0.4915170000000 1.0
C      1  0.4760500000000  0.4851350000000  0.4963420000000 1.0
C      1  0.4763560000000  0.5138070000000  0.4870570000000 1.0
C      1  0.5081060000000  0.5253900000000  0.4882810000000 1.0
C      1  0.5158790000000  0.4979500000000  0.5068160000000 1.0
C      1  0.5357660000000  0.5215220000000  0.4688880000000 1.0
C      1  0.5219550000000  0.4748820000000  0.4666050000000 1.0
C      1  0.4893610000000  0.4454170000000  0.4792260000000 1.0
C      1  0.4660030000000  0.5165180000000  0.4607160000000 1.0
C      1  0.4982650000000  0.5502810000000  0.4711820000000 1.0
C      1  0.5216370000000  0.5591600000000  0.5343190000000 1.0
C      1  0.5476710000000  0.4962370000000  0.5050410000000 1.0
C      1  0.5322560000000  0.4385180000000  0.5326960000000 1.0
C      1  0.4345690000000  0.4601520000000  0.5167460000000 1.0
C      1  0.4480250000000  0.5458720000000  0.5240080000000 1.0
C      1  0.5055750000000  0.4999040000000  0.5355440000000 1.0
END
