TITL C-2622959-7779-501 -6.88537186818408e-05 125000 -136.323803692645 0 0 27 (C1) n - 1
REM
REM in /nfs/bkarasulu/CARBON/AIRSS/Generating-Clusters/AIREBO/with-SteepDescent/Higher-Symm/SD-CG/HFTN-CG
REM
REM
REM
REM
REM
REM ./C.cell (b20cbc046b6831c77cfcea5457e17084)
REM
REM compiler GCC version 9.2.1 20190827 (Red Hat 9.2.1-1)
REM options -cpp -mtune=generic -march=x86-64 -g -O0 -fpre-include=/usr/include/finclude/math-vector-fortran.h
REM seed -447002816 -1078659835 814218724 362980073 2124471829 188137236 -1749901897 -619002115 1603724949 -816473795 2094920556 1275091790 1021431132 667680704 768093155 1102691273 1206808189 -391723789 -58941992 -509010246 155252539 -1213942632 -1006506316 -478424469 20011550 -1249126808 -1651989807 -2067302557 168878698 -869657536 -1347777439 -17307198 -1686891449
REM
CELL 1.54180   50.00000   50.00000   50.00000   90.00000   90.00000   90.00000
LATT -1
SFAC C  
C      1  0.5016970000000  0.5228730000000  0.4775020000000 1.0
C      1  0.4774730000000  0.5028310000000  0.4759860000000 1.0
C      1  0.4860140000000  0.4763850000000  0.4808910000000 1.0
C      1  0.5141090000000  0.4740180000000  0.4787240000000 1.0
C      1  0.5242350000000  0.5018550000000  0.4856100000000 1.0
C      1  0.5018100000000  0.5233950000000  0.5272200000000 1.0
C      1  0.4759920000000  0.5053860000000  0.5319850000000 1.0
C      1  0.4844410000000  0.4783140000000  0.5300640000000 1.0
C      1  0.5161070000000  0.4763770000000  0.5347440000000 1.0
C      1  0.5279800000000  0.5038040000000  0.5193080000000 1.0
C      1  0.4532760000000  0.5127880000000  0.5186940000000 1.0
C      1  0.4438730000000  0.4488730000000  0.5052730000000 1.0
C      1  0.5268070000000  0.4523720000000  0.5224530000000 1.0
C      1  0.5590930000000  0.5119440000000  0.5224110000000 1.0
C      1  0.5120100000000  0.5724470000000  0.5030900000000 1.0
C      1  0.4540780000000  0.5113040000000  0.4873980000000 1.0
C      1  0.4676540000000  0.4304140000000  0.5067400000000 1.0
C      1  0.5272090000000  0.4533090000000  0.4910290000000 1.0
C      1  0.5535100000000  0.5119110000000  0.4898990000000 1.0
C      1  0.4818900000000  0.5698070000000  0.5029040000000 1.0
C      1  0.5758340000000  0.5316550000000  0.5027130000000 1.0
C      1  0.4265400000000  0.5213920000000  0.5019350000000 1.0
C      1  0.4746600000000  0.4636670000000  0.5056140000000 1.0
C      1  0.5429560000000  0.4291640000000  0.5064840000000 1.0
C      1  0.4997590000000  0.5407310000000  0.5027230000000 1.0
C      1  0.5069520000000  0.5378050000000  0.4515560000000 1.0
C      1  0.5092290000000  0.5034950000000  0.5540700000000 1.0
END
