TITL C-2622957-9142-726 690.363309543512 125000 -1045.48504660311 0 0 195 (C1) n - 1
REM
REM in /nfs/bkarasulu/CARBON/AIRSS/Generating-Clusters/AIREBO/with-SteepDescent/Higher-Symm/SD-CG/HFTN-CG
REM
REM
REM
REM
REM
REM ./C.cell (b20cbc046b6831c77cfcea5457e17084)
REM
REM compiler GCC version 9.2.1 20190827 (Red Hat 9.2.1-1)
REM options -cpp -mtune=generic -march=x86-64 -g -O0 -fpre-include=/usr/include/finclude/math-vector-fortran.h
REM seed 1145954209 649215439 2053159247 1038664488 -866345240 -1399595963 -836174365 -1527599824 -2085922421 2044345782 -1162023282 -327794694 -1085551743 131945281 1880443746 123770932 1105139256 -391388915 -1292130299 -1377384127 -2022364044 -1288464569 1100399352 1461375070 -1789981131 391215082 906186677 17212798 1966911228 1779355305 -1050412840 1654435885 517297731
REM
CELL 1.54180   50.00000   50.00000   50.00000   90.00000   90.00000   90.00000
LATT -1
SFAC C  
C      1  0.4424070000000  0.5674310000000  0.5661300000000 1.0
C      1  0.4609130000000  0.5012260000000  0.4780140000000 1.0
C      1  0.4711250000000  0.5855710000000  0.5677280000000 1.0
C      1  0.3803560000000  0.5176960000000  0.5017530000000 1.0
C      1  0.5016380000000  0.5237280000000  0.3735410000000 1.0
C      1  0.5992690000000  0.5241900000000  0.5613710000000 1.0
C      1  0.5272550000000  0.5782870000000  0.5706400000000 1.0
C      1  0.3899030000000  0.4794990000000  0.4590000000000 1.0
C      1  0.5702420000000  0.5701000000000  0.5363340000000 1.0
C      1  0.5232800000000  0.4997200000000  0.4533950000000 1.0
C      1  0.5083220000000  0.4450390000000  0.5928200000000 1.0
C      1  0.5269240000000  0.4574790000000  0.4909750000000 1.0
C      1  0.5404400000000  0.4277450000000  0.4182230000000 1.0
C      1  0.5883100000000  0.4950170000000  0.5559610000000 1.0
C      1  0.5647390000000  0.4682580000000  0.4331130000000 1.0
C      1  0.4465320000000  0.5247940000000  0.4581550000000 1.0
C      1  0.5477570000000  0.4721830000000  0.5509430000000 1.0
C      1  0.5107010000000  0.6125580000000  0.4546630000000 1.0
C      1  0.4318560000000  0.5441420000000  0.4806530000000 1.0
C      1  0.4411690000000  0.4078570000000  0.4657750000000 1.0
C      1  0.4829450000000  0.4773720000000  0.4785990000000 1.0
C      1  0.4642250000000  0.5401100000000  0.5855610000000 1.0
C      1  0.4375940000000  0.5337520000000  0.4265890000000 1.0
C      1  0.5125450000000  0.4959010000000  0.6316000000000 1.0
C      1  0.4834880000000  0.5508850000000  0.5526020000000 1.0
C      1  0.6102620000000  0.4744670000000  0.5001300000000 1.0
C      1  0.5387560000000  0.3980970000000  0.4559620000000 1.0
C      1  0.4182830000000  0.5551140000000  0.4446700000000 1.0
C      1  0.5762230000000  0.5192930000000  0.5267030000000 1.0
C      1  0.4598940000000  0.5854150000000  0.4265560000000 1.0
C      1  0.5671060000000  0.4826100000000  0.5769090000000 1.0
C      1  0.4795230000000  0.5237540000000  0.4863470000000 1.0
C      1  0.4927430000000  0.4929700000000  0.4540560000000 1.0
C      1  0.4957670000000  0.5394680000000  0.5888300000000 1.0
C      1  0.5979720000000  0.4752580000000  0.4348620000000 1.0
C      1  0.5862090000000  0.5863060000000  0.5110680000000 1.0
C      1  0.5255760000000  0.5675410000000  0.5390680000000 1.0
C      1  0.4867020000000  0.4064160000000  0.5596050000000 1.0
C      1  0.5492270000000  0.5303050000000  0.3958500000000 1.0
C      1  0.5609040000000  0.5151670000000  0.5547680000000 1.0
C      1  0.4080790000000  0.5573960000000  0.5105530000000 1.0
C      1  0.4158210000000  0.4990900000000  0.4204830000000 1.0
C      1  0.5275130000000  0.6094470000000  0.5659720000000 1.0
C      1  0.5551740000000  0.5029010000000  0.3976840000000 1.0
C      1  0.4454950000000  0.4494870000000  0.5910510000000 1.0
C      1  0.4926040000000  0.3905450000000  0.4661250000000 1.0
C      1  0.4583010000000  0.4369460000000  0.4445210000000 1.0
C      1  0.5619530000000  0.5543570000000  0.4022930000000 1.0
C      1  0.5799040000000  0.4262670000000  0.4455750000000 1.0
C      1  0.5075050000000  0.5128660000000  0.4989960000000 1.0
C      1  0.4764890000000  0.4478900000000  0.4812760000000 1.0
C      1  0.5396290000000  0.5109970000000  0.4960500000000 1.0
C      1  0.4691620000000  0.4664900000000  0.5457960000000 1.0
C      1  0.5570010000000  0.5382480000000  0.5915160000000 1.0
C      1  0.4588790000000  0.5320090000000  0.4076600000000 1.0
C      1  0.3974730000000  0.4409990000000  0.5212900000000 1.0
C      1  0.4343540000000  0.5385740000000  0.5117100000000 1.0
C      1  0.5971490000000  0.4855070000000  0.5295680000000 1.0
C      1  0.5186680000000  0.4315880000000  0.5382260000000 1.0
C      1  0.4799700000000  0.5080240000000  0.4193260000000 1.0
C      1  0.4003480000000  0.5207760000000  0.4545060000000 1.0
C      1  0.5726190000000  0.4253800000000  0.5119120000000 1.0
C      1  0.5460810000000  0.5475560000000  0.4483140000000 1.0
C      1  0.4378100000000  0.4248980000000  0.4222120000000 1.0
C      1  0.3816330000000  0.5045910000000  0.4767150000000 1.0
C      1  0.5534550000000  0.5934500000000  0.5167490000000 1.0
C      1  0.5244170000000  0.5294310000000  0.5957530000000 1.0
C      1  0.5040440000000  0.4617430000000  0.4018140000000 1.0
C      1  0.5233690000000  0.4528130000000  0.5633280000000 1.0
C      1  0.5926080000000  0.4487250000000  0.4539570000000 1.0
C      1  0.5606260000000  0.5672770000000  0.4976340000000 1.0
C      1  0.4361950000000  0.4067340000000  0.4961970000000 1.0
C      1  0.4892970000000  0.5690690000000  0.4314970000000 1.0
C      1  0.3978880000000  0.5060090000000  0.5248740000000 1.0
C      1  0.4567480000000  0.5697860000000  0.5949570000000 1.0
C      1  0.4893430000000  0.3919620000000  0.5101820000000 1.0
C      1  0.6061590000000  0.5028170000000  0.4521640000000 1.0
C      1  0.5144780000000  0.5779650000000  0.4895900000000 1.0
C      1  0.5361610000000  0.4045680000000  0.5302240000000 1.0
C      1  0.4891240000000  0.5820490000000  0.5120330000000 1.0
C      1  0.5385860000000  0.4593000000000  0.4218750000000 1.0
C      1  0.5122270000000  0.5988330000000  0.5400290000000 1.0
C      1  0.5707760000000  0.5149680000000  0.4819110000000 1.0
C      1  0.4883060000000  0.4320200000000  0.4414790000000 1.0
C      1  0.4733570000000  0.5545290000000  0.4830410000000 1.0
C      1  0.4049310000000  0.5304940000000  0.4236240000000 1.0
C      1  0.4287740000000  0.4535380000000  0.4373660000000 1.0
C      1  0.5667410000000  0.4506140000000  0.5324440000000 1.0
C      1  0.6206370000000  0.5044120000000  0.5151470000000 1.0
C      1  0.4173260000000  0.5162260000000  0.5509050000000 1.0
C      1  0.4856570000000  0.6020070000000  0.4375630000000 1.0
C      1  0.5319200000000  0.4225290000000  0.6024380000000 1.0
C      1  0.5148970000000  0.4618510000000  0.4422420000000 1.0
C      1  0.5184390000000  0.5373430000000  0.3991780000000 1.0
C      1  0.4571810000000  0.5544100000000  0.5313250000000 1.0
C      1  0.5643190000000  0.4747780000000  0.4642680000000 1.0
C      1  0.4453780000000  0.5349270000000  0.5565890000000 1.0
C      1  0.5445640000000  0.4315660000000  0.5794920000000 1.0
C      1  0.5511210000000  0.5863470000000  0.4522150000000 1.0
C      1  0.6118540000000  0.5037520000000  0.4841260000000 1.0
C      1  0.4669090000000  0.4856910000000  0.5821620000000 1.0
C      1  0.4804960000000  0.6113410000000  0.4697590000000 1.0
C      1  0.4086300000000  0.4979840000000  0.5978530000000 1.0
C      1  0.5734560000000  0.5033490000000  0.4500690000000 1.0
C      1  0.5819360000000  0.4560140000000  0.5617710000000 1.0
C      1  0.5243630000000  0.6009440000000  0.5118430000000 1.0
C      1  0.4689940000000  0.5151640000000  0.5420660000000 1.0
C      1  0.4688550000000  0.5495160000000  0.4511750000000 1.0
C      1  0.4482580000000  0.4957660000000  0.4201760000000 1.0
C      1  0.5591940000000  0.4612540000000  0.5013630000000 1.0
C      1  0.5224040000000  0.5178920000000  0.6246460000000 1.0
C      1  0.4470400000000  0.4397080000000  0.4764230000000 1.0
C      1  0.5728790000000  0.4919100000000  0.5068160000000 1.0
C      1  0.5680850000000  0.5628110000000  0.4678440000000 1.0
C      1  0.5547030000000  0.5589050000000  0.5644750000000 1.0
C      1  0.4944690000000  0.4857370000000  0.5057670000000 1.0
C      1  0.5178010000000  0.5393640000000  0.4589530000000 1.0
C      1  0.5447710000000  0.5698510000000  0.4244390000000 1.0
C      1  0.5466280000000  0.5187760000000  0.4404480000000 1.0
C      1  0.4238070000000  0.5000250000000  0.4634080000000 1.0
C      1  0.5079580000000  0.4576630000000  0.5192060000000 1.0
C      1  0.4469320000000  0.4888890000000  0.5044110000000 1.0
C      1  0.4756750000000  0.4359730000000  0.5957180000000 1.0
C      1  0.5209700000000  0.5120510000000  0.4217660000000 1.0
C      1  0.5036940000000  0.4125910000000  0.4873740000000 1.0
C      1  0.5756590000000  0.4944750000000  0.4171140000000 1.0
C      1  0.4413530000000  0.4813850000000  0.4452800000000 1.0
C      1  0.5126490000000  0.3892320000000  0.4456780000000 1.0
C      1  0.5028450000000  0.5011360000000  0.3951250000000 1.0
C      1  0.5309640000000  0.4821340000000  0.3976310000000 1.0
C      1  0.4167220000000  0.4932070000000  0.5720630000000 1.0
C      1  0.5100090000000  0.4727100000000  0.6101550000000 1.0
C      1  0.5461370000000  0.5424440000000  0.5072280000000 1.0
C      1  0.4808240000000  0.5971020000000  0.5413770000000 1.0
C      1  0.4839090000000  0.4987820000000  0.5639040000000 1.0
C      1  0.5876640000000  0.4605050000000  0.4836090000000 1.0
C      1  0.5884590000000  0.5419730000000  0.4842820000000 1.0
C      1  0.4304680000000  0.4582300000000  0.5352610000000 1.0
C      1  0.5171300000000  0.5440550000000  0.4894590000000 1.0
C      1  0.5345480000000  0.4883290000000  0.5990970000000 1.0
C      1  0.4327520000000  0.4581430000000  0.5012010000000 1.0
C      1  0.5546800000000  0.4146880000000  0.4387360000000 1.0
C      1  0.5066850000000  0.5281740000000  0.5420210000000 1.0
C      1  0.5071870000000  0.4413000000000  0.4682170000000 1.0
C      1  0.4567200000000  0.5751530000000  0.5043460000000 1.0
C      1  0.5900950000000  0.5359960000000  0.5840230000000 1.0
C      1  0.5362200000000  0.4043970000000  0.4840390000000 1.0
C      1  0.5632860000000  0.5060140000000  0.6003840000000 1.0
C      1  0.6072090000000  0.5296970000000  0.5306020000000 1.0
C      1  0.5048510000000  0.4001780000000  0.5350580000000 1.0
C      1  0.4578130000000  0.6044690000000  0.5225230000000 1.0
C      1  0.4191140000000  0.4270800000000  0.5035940000000 1.0
C      1  0.5217760000000  0.5024560000000  0.5458630000000 1.0
C      1  0.5082910000000  0.4346300000000  0.4137950000000 1.0
C      1  0.4289570000000  0.5095540000000  0.5166910000000 1.0
C      1  0.5377720000000  0.4835640000000  0.4760490000000 1.0
C      1  0.5446200000000  0.5399530000000  0.5381080000000 1.0
C      1  0.4981870000000  0.5686920000000  0.5765490000000 1.0
C      1  0.4017210000000  0.5487420000000  0.4720790000000 1.0
C      1  0.4869630000000  0.4330170000000  0.5088170000000 1.0
C      1  0.4659880000000  0.3882650000000  0.4653230000000 1.0
C      1  0.4100940000000  0.4779560000000  0.4853800000000 1.0
C      1  0.5016230000000  0.4052080000000  0.4253590000000 1.0
C      1  0.5351740000000  0.5086440000000  0.5727130000000 1.0
C      1  0.4450840000000  0.4025300000000  0.5760130000000 1.0
C      1  0.5443630000000  0.4941460000000  0.5252050000000 1.0
C      1  0.4786280000000  0.4693030000000  0.6013000000000 1.0
C      1  0.5143480000000  0.5626980000000  0.4163400000000 1.0
C      1  0.5596620000000  0.5566490000000  0.6156210000000 1.0
C      1  0.4900540000000  0.4764720000000  0.4267440000000 1.0
C      1  0.4447300000000  0.5734820000000  0.4516390000000 1.0
C      1  0.4559530000000  0.5942690000000  0.4762320000000 1.0
C      1  0.3988270000000  0.4731900000000  0.5160150000000 1.0
C      1  0.5041680000000  0.6163200000000  0.4936830000000 1.0
C      1  0.4701380000000  0.4885280000000  0.5238780000000 1.0
C      1  0.4924930000000  0.5255620000000  0.4463180000000 1.0
C      1  0.4204520000000  0.4005130000000  0.4486670000000 1.0
C      1  0.5039750000000  0.5529850000000  0.5189220000000 1.0
C      1  0.4772190000000  0.5324410000000  0.5159890000000 1.0
C      1  0.4231770000000  0.5804790000000  0.5060670000000 1.0
C      1  0.4396530000000  0.4119390000000  0.5495890000000 1.0
C      1  0.5020590000000  0.4748450000000  0.5479620000000 1.0
C      1  0.4876240000000  0.4605320000000  0.3760710000000 1.0
C      1  0.6159740000000  0.5318610000000  0.4670110000000 1.0
C      1  0.4579890000000  0.3971530000000  0.5102170000000 1.0
C      1  0.4196400000000  0.4291820000000  0.5432680000000 1.0
C      1  0.4414850000000  0.4709950000000  0.5650250000000 1.0
C      1  0.5930740000000  0.5535510000000  0.5159390000000 1.0
C      1  0.4688640000000  0.4172560000000  0.5329860000000 1.0
C      1  0.5512630000000  0.4074790000000  0.5073880000000 1.0
C      1  0.3845570000000  0.5453850000000  0.4978830000000 1.0
C      1  0.5282600000000  0.5944620000000  0.4661080000000 1.0
C      1  0.4053040000000  0.4752750000000  0.5487640000000 1.0
C      1  0.4718690000000  0.4091330000000  0.5829750000000 1.0
C      1  0.4034980000000  0.4761620000000  0.4344560000000 1.0
END
