TITL C-2622968-4806-383 612.033161568294 125000 -838.311021312038 0 0 159 (C1) n - 1
REM
REM in /nfs/bkarasulu/CARBON/AIRSS/Generating-Clusters/AIREBO/with-SteepDescent/Higher-Symm/SD-CG/HFTN-CG
REM
REM
REM
REM
REM
REM ./C.cell (b20cbc046b6831c77cfcea5457e17084)
REM
REM compiler GCC version 9.2.1 20190827 (Red Hat 9.2.1-1)
REM options -cpp -mtune=generic -march=x86-64 -g -O0 -fpre-include=/usr/include/finclude/math-vector-fortran.h
REM seed -1707121170 -1270634953 -2068609929 1076811769 529519500 -846759575 42338726 -1729649256 83201826 -1276895244 -376134339 56351457 -155931654 -856497036 -1378528949 268924474 1342822725 1387620688 -241475687 -1776145791 -2084709245 866137102 -2070262612 1786274910 2038552475 -1431529383 1214699835 -1454455108 -1436835719 -1546733361 479210203 681243365 463239024
REM
CELL 1.54180   50.00000   50.00000   50.00000   90.00000   90.00000   90.00000
LATT -1
SFAC C  
C      1  0.4067640000000  0.4924220000000  0.4311700000000 1.0
C      1  0.5422480000000  0.5851370000000  0.4128990000000 1.0
C      1  0.5550840000000  0.4193860000000  0.4190320000000 1.0
C      1  0.5489440000000  0.4852080000000  0.4236740000000 1.0
C      1  0.4705750000000  0.4746580000000  0.4251970000000 1.0
C      1  0.4863700000000  0.5419780000000  0.4318030000000 1.0
C      1  0.5740630000000  0.4930310000000  0.4838690000000 1.0
C      1  0.4530890000000  0.4496470000000  0.4806170000000 1.0
C      1  0.4681530000000  0.5676340000000  0.4856160000000 1.0
C      1  0.4461400000000  0.5540820000000  0.5786970000000 1.0
C      1  0.5777820000000  0.5018370000000  0.5878840000000 1.0
C      1  0.4755620000000  0.4258800000000  0.5862100000000 1.0
C      1  0.5214990000000  0.4724620000000  0.4073780000000 1.0
C      1  0.4683740000000  0.4953160000000  0.3991950000000 1.0
C      1  0.5097100000000  0.5316960000000  0.4087470000000 1.0
C      1  0.4385800000000  0.5776520000000  0.4957310000000 1.0
C      1  0.5976550000000  0.5025200000000  0.5064400000000 1.0
C      1  0.4620300000000  0.4193810000000  0.4904630000000 1.0
C      1  0.4848620000000  0.4429790000000  0.4916460000000 1.0
C      1  0.4535600000000  0.5403000000000  0.4974590000000 1.0
C      1  0.5555580000000  0.5188630000000  0.4938650000000 1.0
C      1  0.5435140000000  0.4787600000000  0.5076450000000 1.0
C      1  0.4604440000000  0.4743610000000  0.5108070000000 1.0
C      1  0.5011120000000  0.5476590000000  0.5108510000000 1.0
C      1  0.5435230000000  0.5827480000000  0.5518780000000 1.0
C      1  0.5453360000000  0.4189560000000  0.5504080000000 1.0
C      1  0.4132450000000  0.4944980000000  0.5491210000000 1.0
C      1  0.5276450000000  0.5275400000000  0.6115300000000 1.0
C      1  0.5062600000000  0.4657290000000  0.6041960000000 1.0
C      1  0.4613660000000  0.5193230000000  0.6066190000000 1.0
C      1  0.4129500000000  0.5622770000000  0.4693980000000 1.0
C      1  0.5956300000000  0.5416320000000  0.4736840000000 1.0
C      1  0.4916350000000  0.3931600000000  0.4655810000000 1.0
C      1  0.4718560000000  0.4962960000000  0.5432680000000 1.0
C      1  0.5135620000000  0.5277490000000  0.5438980000000 1.0
C      1  0.5197480000000  0.4732140000000  0.5425500000000 1.0
C      1  0.5479810000000  0.4655480000000  0.5693590000000 1.0
C      1  0.4507680000000  0.4670040000000  0.5718860000000 1.0
C      1  0.5047880000000  0.5589110000000  0.5709910000000 1.0
C      1  0.4990220000000  0.5140530000000  0.4426570000000 1.0
C      1  0.5234650000000  0.4937990000000  0.4409790000000 1.0
C      1  0.4940660000000  0.4823300000000  0.4432280000000 1.0
C      1  0.4982950000000  0.3973970000000  0.5264830000000 1.0
C      1  0.4132320000000  0.5508820000000  0.5277530000000 1.0
C      1  0.5854990000000  0.5540380000000  0.5291600000000 1.0
C      1  0.5484230000000  0.5283480000000  0.4534540000000 1.0
C      1  0.5006720000000  0.4411800000000  0.4535580000000 1.0
C      1  0.4517270000000  0.5290000000000  0.4591480000000 1.0
C      1  0.5657180000000  0.4391300000000  0.4748950000000 1.0
C      1  0.4120640000000  0.4736630000000  0.4739050000000 1.0
C      1  0.5204950000000  0.5900340000000  0.4708660000000 1.0
C      1  0.5427190000000  0.5312270000000  0.4212210000000 1.0
C      1  0.5080210000000  0.4458200000000  0.4228090000000 1.0
C      1  0.4533060000000  0.5196920000000  0.4287800000000 1.0
C      1  0.5760190000000  0.5628880000000  0.4914320000000 1.0
C      1  0.5140160000000  0.4010810000000  0.4899220000000 1.0
C      1  0.4058350000000  0.5371320000000  0.4911390000000 1.0
C      1  0.4837060000000  0.4443900000000  0.5401350000000 1.0
C      1  0.4595140000000  0.5415910000000  0.5432570000000 1.0
C      1  0.5574530000000  0.5134700000000  0.5411280000000 1.0
C      1  0.4375070000000  0.4910610000000  0.5235030000000 1.0
C      1  0.5261870000000  0.5703300000000  0.5177530000000 1.0
C      1  0.5413970000000  0.4474470000000  0.5173290000000 1.0
C      1  0.5172050000000  0.4340780000000  0.4975040000000 1.0
C      1  0.4309310000000  0.5187480000000  0.5048850000000 1.0
C      1  0.5446270000000  0.5509460000000  0.4967230000000 1.0
C      1  0.4910150000000  0.4720010000000  0.3983360000000 1.0
C      1  0.4767570000000  0.5244070000000  0.4046100000000 1.0
C      1  0.5302210000000  0.5050860000000  0.4034120000000 1.0
C      1  0.5275470000000  0.4428210000000  0.5544420000000 1.0
C      1  0.4438740000000  0.5044770000000  0.5600310000000 1.0
C      1  0.5329510000000  0.5527570000000  0.5529460000000 1.0
C      1  0.4369580000000  0.4400320000000  0.4378210000000 1.0
C      1  0.4811520000000  0.5849160000000  0.4367290000000 1.0
C      1  0.5859690000000  0.4748990000000  0.4342520000000 1.0
C      1  0.5374870000000  0.4397760000000  0.4386690000000 1.0
C      1  0.4338730000000  0.4965590000000  0.4444150000000 1.0
C      1  0.5338050000000  0.5614310000000  0.4340530000000 1.0
C      1  0.4344270000000  0.4975810000000  0.4784050000000 1.0
C      1  0.5293360000000  0.5603390000000  0.4677470000000 1.0
C      1  0.5355250000000  0.4470380000000  0.4718470000000 1.0
C      1  0.4655860000000  0.4040210000000  0.4643430000000 1.0
C      1  0.4345540000000  0.5825590000000  0.4636880000000 1.0
C      1  0.6006330000000  0.5112450000000  0.4729300000000 1.0
C      1  0.4728800000000  0.4673400000000  0.5977190000000 1.0
C      1  0.4790640000000  0.5474140000000  0.5992070000000 1.0
C      1  0.5389330000000  0.5036460000000  0.6013300000000 1.0
C      1  0.4717570000000  0.5331480000000  0.5708120000000 1.0
C      1  0.5496230000000  0.5087590000000  0.5701270000000 1.0
C      1  0.4881890000000  0.4534000000000  0.5707360000000 1.0
C      1  0.5741600000000  0.4654070000000  0.5037090000000 1.0
C      1  0.4318450000000  0.4570890000000  0.5043290000000 1.0
C      1  0.4884090000000  0.5769360000000  0.5066220000000 1.0
C      1  0.3938550000000  0.5260920000000  0.5179000000000 1.0
C      1  0.5771310000000  0.5815550000000  0.5166720000000 1.0
C      1  0.5302140000000  0.3935740000000  0.5153800000000 1.0
C      1  0.4549800000000  0.5722950000000  0.5443350000000 1.0
C      1  0.5965930000000  0.4913780000000  0.5387870000000 1.0
C      1  0.4484070000000  0.4259290000000  0.5433600000000 1.0
C      1  0.4308180000000  0.5731030000000  0.5222890000000 1.0
C      1  0.5869440000000  0.5222280000000  0.5302470000000 1.0
C      1  0.4713080000000  0.4178950000000  0.5227210000000 1.0
C      1  0.4903480000000  0.4844690000000  0.5667350000000 1.0
C      1  0.4957400000000  0.5169540000000  0.5673870000000 1.0
C      1  0.5220130000000  0.4958610000000  0.5661440000000 1.0
C      1  0.5521370000000  0.5908780000000  0.5255490000000 1.0
C      1  0.5522050000000  0.4152680000000  0.5193320000000 1.0
C      1  0.3984300000000  0.4987040000000  0.5219850000000 1.0
C      1  0.5897020000000  0.5058630000000  0.4410870000000 1.0
C      1  0.4608470000000  0.4195150000000  0.4406440000000 1.0
C      1  0.4499830000000  0.5764650000000  0.4400330000000 1.0
C      1  0.6148610000000  0.4427900000000  0.5329640000000 1.0
C      1  0.3984360000000  0.4255500000000  0.5311040000000 1.0
C      1  0.4732200000000  0.6195280000000  0.5342980000000 1.0
C      1  0.5327670000000  0.4745460000000  0.5981440000000 1.0
C      1  0.4544820000000  0.4951540000000  0.5910000000000 1.0
C      1  0.5103450000000  0.5455170000000  0.6016210000000 1.0
C      1  0.5631330000000  0.4535310000000  0.5413490000000 1.0
C      1  0.4314200000000  0.4678250000000  0.5475730000000 1.0
C      1  0.5048070000000  0.5782460000000  0.5430010000000 1.0
C      1  0.5826910000000  0.4493460000000  0.4564400000000 1.0
C      1  0.4155850000000  0.4510230000000  0.4602950000000 1.0
C      1  0.5066880000000  0.6018160000000  0.4500670000000 1.0
C      1  0.5756880000000  0.5231890000000  0.4234910000000 1.0
C      1  0.4824100000000  0.4233970000000  0.4230350000000 1.0
C      1  0.4443070000000  0.5524740000000  0.4277660000000 1.0
C      1  0.5287170000000  0.5022460000000  0.5272790000000 1.0
C      1  0.4904760000000  0.4740480000000  0.5255110000000 1.0
C      1  0.4833090000000  0.5247700000000  0.5286240000000 1.0
C      1  0.5110700000000  0.4171060000000  0.4618230000000 1.0
C      1  0.4260820000000  0.5345340000000  0.4660550000000 1.0
C      1  0.5666510000000  0.5470880000000  0.4629290000000 1.0
C      1  0.4736580000000  0.5725360000000  0.5730370000000 1.0
C      1  0.5780760000000  0.4812540000000  0.5654550000000 1.0
C      1  0.4528760000000  0.4350230000000  0.5696720000000 1.0
C      1  0.5742610000000  0.4314270000000  0.5019920000000 1.0
C      1  0.4054410000000  0.4785460000000  0.5034660000000 1.0
C      1  0.5130610000000  0.5938110000000  0.4969570000000 1.0
C      1  0.5666550000000  0.4494500000000  0.4238930000000 1.0
C      1  0.4257150000000  0.4395260000000  0.4120930000000 1.0
C      1  0.5102850000000  0.5821060000000  0.4199080000000 1.0
C      1  0.5912660000000  0.4613340000000  0.5316630000000 1.0
C      1  0.4245760000000  0.4404260000000  0.5306720000000 1.0
C      1  0.4777380000000  0.5897150000000  0.5333440000000 1.0
C      1  0.5090170000000  0.4281680000000  0.5299840000000 1.0
C      1  0.4324170000000  0.5275410000000  0.5377260000000 1.0
C      1  0.5531960000000  0.5430420000000  0.5286820000000 1.0
C      1  0.4721560000000  0.5053510000000  0.5030310000000 1.0
C      1  0.5137160000000  0.5186440000000  0.5035350000000 1.0
C      1  0.5107760000000  0.4779710000000  0.4984050000000 1.0
C      1  0.4816180000000  0.5610380000000  0.4587950000000 1.0
C      1  0.5606070000000  0.4826740000000  0.4555240000000 1.0
C      1  0.4508430000000  0.4677130000000  0.4518740000000 1.0
C      1  0.4662260000000  0.4880620000000  0.4743580000000 1.0
C      1  0.5049710000000  0.5373520000000  0.4666950000000 1.0
C      1  0.5298740000000  0.4805460000000  0.4703830000000 1.0
C      1  0.4764340000000  0.5262250000000  0.4785670000000 1.0
C      1  0.5283060000000  0.5141640000000  0.4753320000000 1.0
C      1  0.4918170000000  0.4683310000000  0.4718690000000 1.0
END
