TITL C-2622956-4641-578 -0.000410805804348856 125000 -588.349439376728 0 0 108 (C1) n - 1
REM
REM in /nfs/bkarasulu/CARBON/AIRSS/Generating-Clusters/AIREBO/with-SteepDescent/Higher-Symm/SD-CG/HFTN-CG
REM
REM
REM
REM
REM
REM ./C.cell (b20cbc046b6831c77cfcea5457e17084)
REM
REM compiler GCC version 9.2.1 20190827 (Red Hat 9.2.1-1)
REM options -cpp -mtune=generic -march=x86-64 -g -O0 -fpre-include=/usr/include/finclude/math-vector-fortran.h
REM seed 255766771 425481176 335585541 -379763129 1076520096 1029103635 -135478069 -827199046 1959851630 -1556080104 704643976 227749090 -340139343 -1029552746 -233777789 334392183 -77516772 2025751961 -1730802604 466344026 -2089944016 -133229901 737216038 -258825540 1777702957 -211742458 -937479940 -860687986 410661752 -886450965 565410173 -1739148546 -385674617
REM
CELL 1.54180   50.00000   50.00000   50.00000   90.00000   90.00000   90.00000
LATT -1
SFAC C  
C      1  0.4788150000000  0.4556920000000  0.4815060000000 1.0
C      1  0.3896710000000  0.5145970000000  0.5467430000000 1.0
C      1  0.4356860000000  0.4550780000000  0.5292030000000 1.0
C      1  0.5675760000000  0.4554810000000  0.5055460000000 1.0
C      1  0.4223130000000  0.5267400000000  0.4388800000000 1.0
C      1  0.5291980000000  0.5275660000000  0.5270510000000 1.0
C      1  0.4563620000000  0.4368970000000  0.5222860000000 1.0
C      1  0.5428960000000  0.5507990000000  0.4332270000000 1.0
C      1  0.5037250000000  0.5420060000000  0.4725090000000 1.0
C      1  0.5013960000000  0.4480350000000  0.4598080000000 1.0
C      1  0.5603730000000  0.4887100000000  0.5060880000000 1.0
C      1  0.4821730000000  0.5409720000000  0.4538640000000 1.0
C      1  0.4382710000000  0.5000880000000  0.5491910000000 1.0
C      1  0.5120660000000  0.4284830000000  0.5502820000000 1.0
C      1  0.5063430000000  0.5386710000000  0.5972180000000 1.0
C      1  0.4507360000000  0.5450580000000  0.4425520000000 1.0
C      1  0.4678490000000  0.5583220000000  0.4927560000000 1.0
C      1  0.5070010000000  0.5065280000000  0.4198080000000 1.0
C      1  0.5431060000000  0.4343090000000  0.4327840000000 1.0
C      1  0.5199140000000  0.5177100000000  0.5778320000000 1.0
C      1  0.4986350000000  0.5619020000000  0.5067390000000 1.0
C      1  0.4221550000000  0.5351140000000  0.4782070000000 1.0
C      1  0.4377100000000  0.4619820000000  0.4813960000000 1.0
C      1  0.4723200000000  0.4524110000000  0.4422040000000 1.0
C      1  0.4115470000000  0.5040180000000  0.5342190000000 1.0
C      1  0.4067750000000  0.5074590000000  0.4831610000000 1.0
C      1  0.5189340000000  0.4666010000000  0.5917460000000 1.0
C      1  0.5199640000000  0.4018120000000  0.5393760000000 1.0
C      1  0.4679230000000  0.5894910000000  0.5063470000000 1.0
C      1  0.5633850000000  0.4484120000000  0.5380590000000 1.0
C      1  0.5170570000000  0.4456990000000  0.4182770000000 1.0
C      1  0.5980480000000  0.4559420000000  0.5043070000000 1.0
C      1  0.4814480000000  0.5568750000000  0.5365340000000 1.0
C      1  0.5634940000000  0.5072600000000  0.5543070000000 1.0
C      1  0.5366910000000  0.5858790000000  0.4989840000000 1.0
C      1  0.4615260000000  0.5182450000000  0.5661240000000 1.0
C      1  0.5105620000000  0.5971050000000  0.5379700000000 1.0
C      1  0.4571590000000  0.5700420000000  0.4647160000000 1.0
C      1  0.4795250000000  0.4856650000000  0.5192390000000 1.0
C      1  0.4367970000000  0.5791360000000  0.5068040000000 1.0
C      1  0.4117250000000  0.4933060000000  0.5074400000000 1.0
C      1  0.4715470000000  0.5335920000000  0.5138200000000 1.0
C      1  0.4824750000000  0.5904620000000  0.4753830000000 1.0
C      1  0.5568850000000  0.4844690000000  0.4736260000000 1.0
C      1  0.4852290000000  0.5889930000000  0.5324370000000 1.0
C      1  0.4554290000000  0.4379830000000  0.4672400000000 1.0
C      1  0.5443840000000  0.5314730000000  0.5636280000000 1.0
C      1  0.4567180000000  0.4829520000000  0.4625430000000 1.0
C      1  0.5846580000000  0.5215370000000  0.4824180000000 1.0
C      1  0.4769300000000  0.4980260000000  0.5884080000000 1.0
C      1  0.5765240000000  0.5628590000000  0.4781920000000 1.0
C      1  0.4497240000000  0.5219300000000  0.4673300000000 1.0
C      1  0.4899960000000  0.4017730000000  0.4628170000000 1.0
C      1  0.4733590000000  0.5479250000000  0.5640310000000 1.0
C      1  0.4906880000000  0.4446380000000  0.4174670000000 1.0
C      1  0.5744870000000  0.5505480000000  0.5369080000000 1.0
C      1  0.4938520000000  0.5146120000000  0.5561970000000 1.0
C      1  0.4664580000000  0.5113210000000  0.4889460000000 1.0
C      1  0.5285170000000  0.4681890000000  0.4643040000000 1.0
C      1  0.4107650000000  0.5036280000000  0.4526440000000 1.0
C      1  0.4238340000000  0.5583950000000  0.5022250000000 1.0
C      1  0.4157700000000  0.4774380000000  0.4401640000000 1.0
C      1  0.4982120000000  0.5143400000000  0.5224670000000 1.0
C      1  0.5266840000000  0.5479080000000  0.5044870000000 1.0
C      1  0.5481590000000  0.4033820000000  0.4890350000000 1.0
C      1  0.4633400000000  0.4079180000000  0.4674440000000 1.0
C      1  0.4593920000000  0.5067810000000  0.5281480000000 1.0
C      1  0.5009080000000  0.4487100000000  0.5697850000000 1.0
C      1  0.5255020000000  0.5710620000000  0.4470110000000 1.0
C      1  0.5739790000000  0.4608690000000  0.4664850000000 1.0
C      1  0.5105400000000  0.5140800000000  0.4907790000000 1.0
C      1  0.5173300000000  0.4839230000000  0.5049830000000 1.0
C      1  0.5328980000000  0.5829140000000  0.5274860000000 1.0
C      1  0.4682510000000  0.4600470000000  0.5651440000000 1.0
C      1  0.5157480000000  0.5137250000000  0.4472560000000 1.0
C      1  0.5418800000000  0.4200820000000  0.4603470000000 1.0
C      1  0.5613830000000  0.5133340000000  0.4619200000000 1.0
C      1  0.5805130000000  0.5123370000000  0.5080850000000 1.0
C      1  0.4618450000000  0.5069350000000  0.4392990000000 1.0
C      1  0.4827760000000  0.4870130000000  0.4794520000000 1.0
C      1  0.5588670000000  0.4846690000000  0.5733760000000 1.0
C      1  0.4237130000000  0.5655340000000  0.4630890000000 1.0
C      1  0.5343090000000  0.4887110000000  0.5868050000000 1.0
C      1  0.5068710000000  0.4571430000000  0.5231880000000 1.0
C      1  0.5376280000000  0.4680580000000  0.4315400000000 1.0
C      1  0.5518680000000  0.5185000000000  0.4307570000000 1.0
C      1  0.4794920000000  0.4530390000000  0.5111590000000 1.0
C      1  0.5094590000000  0.4925890000000  0.4669170000000 1.0
C      1  0.5306720000000  0.4363170000000  0.5227190000000 1.0
C      1  0.5369000000000  0.4965050000000  0.4185760000000 1.0
C      1  0.4249730000000  0.4680290000000  0.5053780000000 1.0
C      1  0.5123290000000  0.5744030000000  0.4782230000000 1.0
C      1  0.5424370000000  0.5560360000000  0.5401670000000 1.0
C      1  0.5651300000000  0.4343830000000  0.4789750000000 1.0
C      1  0.4440610000000  0.4695870000000  0.5523010000000 1.0
C      1  0.5349440000000  0.4051600000000  0.5126750000000 1.0
C      1  0.4871190000000  0.5552130000000  0.5863810000000 1.0
C      1  0.5803970000000  0.5238680000000  0.5333390000000 1.0
C      1  0.4788260000000  0.5075730000000  0.4185120000000 1.0
C      1  0.5357670000000  0.5358410000000  0.4629170000000 1.0
C      1  0.5169180000000  0.4831010000000  0.5388800000000 1.0
C      1  0.5672610000000  0.4600490000000  0.5624370000000 1.0
C      1  0.5493920000000  0.5589180000000  0.4834240000000 1.0
C      1  0.5104690000000  0.4193560000000  0.4610690000000 1.0
C      1  0.4404580000000  0.4650330000000  0.4417890000000 1.0
C      1  0.5350850000000  0.4564630000000  0.4955470000000 1.0
C      1  0.4945260000000  0.4816190000000  0.5640510000000 1.0
C      1  0.5437090000000  0.5001000000000  0.5301820000000 1.0
END
