TITL C-2622963-3633-451 -0.00234790466541426 125000 -795.601955888555 0 0 151 (C1) n - 1
REM
REM in /nfs/bkarasulu/CARBON/AIRSS/Generating-Clusters/AIREBO/with-SteepDescent/Higher-Symm/SD-CG/HFTN-CG
REM
REM
REM
REM
REM
REM ./C.cell (b20cbc046b6831c77cfcea5457e17084)
REM
REM compiler GCC version 9.2.1 20190827 (Red Hat 9.2.1-1)
REM options -cpp -mtune=generic -march=x86-64 -g -O0 -fpre-include=/usr/include/finclude/math-vector-fortran.h
REM seed 30016107 2101060851 -611464529 -744630398 1629728620 1043624877 612127515 -1874346302 -906483063 1519025065 2012715076 -1454571202 -1065561050 984398544 642860149 -721063844 257692006 102410138 -233245411 -1583692393 616886000 -859341903 413730780 -2142107193 -1714519196 -1757107513 -1911544063 1818996126 -772941278 -729762241 -2033845848 -1757579185 1012038386
REM
CELL 1.54180   50.00000   50.00000   50.00000   90.00000   90.00000   90.00000
LATT -1
SFAC C  
C      1  0.5380910000000  0.4792320000000  0.4619740000000 1.0
C      1  0.4737430000000  0.5226600000000  0.4648650000000 1.0
C      1  0.5828180000000  0.5012010000000  0.5757890000000 1.0
C      1  0.4229580000000  0.5021450000000  0.5720520000000 1.0
C      1  0.5238570000000  0.4871640000000  0.4918200000000 1.0
C      1  0.4801110000000  0.5211810000000  0.4982410000000 1.0
C      1  0.4452990000000  0.4566670000000  0.5739450000000 1.0
C      1  0.5571040000000  0.5462880000000  0.5768390000000 1.0
C      1  0.5642550000000  0.5408070000000  0.4296490000000 1.0
C      1  0.4275980000000  0.4637080000000  0.4332520000000 1.0
C      1  0.4628670000000  0.4009220000000  0.4975670000000 1.0
C      1  0.5304860000000  0.5968470000000  0.4984630000000 1.0
C      1  0.5138650000000  0.4563650000000  0.4688430000000 1.0
C      1  0.4883830000000  0.5501280000000  0.4726800000000 1.0
C      1  0.5315570000000  0.5810620000000  0.4420960000000 1.0
C      1  0.4674350000000  0.4196810000000  0.4375140000000 1.0
C      1  0.4967810000000  0.4461770000000  0.4433730000000 1.0
C      1  0.4999990000000  0.5566150000000  0.4427560000000 1.0
C      1  0.5044780000000  0.5668240000000  0.5051840000000 1.0
C      1  0.4881430000000  0.4314330000000  0.5007640000000 1.0
C      1  0.4687850000000  0.5440010000000  0.5967700000000 1.0
C      1  0.5308320000000  0.4552540000000  0.5965700000000 1.0
C      1  0.4743320000000  0.5142340000000  0.5288820000000 1.0
C      1  0.5318920000000  0.4769910000000  0.5232570000000 1.0
C      1  0.4730920000000  0.5545660000000  0.5027320000000 1.0
C      1  0.5156560000000  0.4446700000000  0.5000390000000 1.0
C      1  0.4253820000000  0.5804860000000  0.5017110000000 1.0
C      1  0.5715090000000  0.4314400000000  0.5005620000000 1.0
C      1  0.5315420000000  0.4341530000000  0.5269970000000 1.0
C      1  0.4662720000000  0.5624790000000  0.5350890000000 1.0
C      1  0.5437130000000  0.4597360000000  0.4964290000000 1.0
C      1  0.4412240000000  0.5439540000000  0.5015970000000 1.0
C      1  0.5945470000000  0.4674360000000  0.4785770000000 1.0
C      1  0.4107560000000  0.5387370000000  0.4762940000000 1.0
C      1  0.5042590000000  0.4059110000000  0.4851150000000 1.0
C      1  0.4865380000000  0.5885920000000  0.4861960000000 1.0
C      1  0.4874460000000  0.4745910000000  0.5568260000000 1.0
C      1  0.5167520000000  0.5267180000000  0.5584400000000 1.0
C      1  0.4697600000000  0.4408270000000  0.4150240000000 1.0
C      1  0.5339070000000  0.5542460000000  0.4224050000000 1.0
C      1  0.5684430000000  0.5086030000000  0.4231110000000 1.0
C      1  0.4315440000000  0.4936220000000  0.4191730000000 1.0
C      1  0.4267390000000  0.5333600000000  0.5305640000000 1.0
C      1  0.5780290000000  0.4644060000000  0.5378440000000 1.0
C      1  0.5062180000000  0.5166700000000  0.5313530000000 1.0
C      1  0.4995770000000  0.4832760000000  0.5300980000000 1.0
C      1  0.4412770000000  0.5815830000000  0.5241230000000 1.0
C      1  0.5598830000000  0.4381940000000  0.5258600000000 1.0
C      1  0.5122270000000  0.4929670000000  0.4446730000000 1.0
C      1  0.4882770000000  0.5086720000000  0.4420930000000 1.0
C      1  0.4110340000000  0.5073060000000  0.4850410000000 1.0
C      1  0.5933600000000  0.4964520000000  0.4898360000000 1.0
C      1  0.4519310000000  0.4383860000000  0.5263960000000 1.0
C      1  0.5480770000000  0.5624930000000  0.5297680000000 1.0
C      1  0.4646510000000  0.5013760000000  0.4187420000000 1.0
C      1  0.5364050000000  0.4960320000000  0.4209460000000 1.0
C      1  0.5428600000000  0.5124370000000  0.4675560000000 1.0
C      1  0.4565690000000  0.4873680000000  0.4585310000000 1.0
C      1  0.4147700000000  0.4218350000000  0.4776210000000 1.0
C      1  0.5746710000000  0.5745230000000  0.4765950000000 1.0
C      1  0.4247480000000  0.5041670000000  0.5160100000000 1.0
C      1  0.5798620000000  0.4938550000000  0.5209380000000 1.0
C      1  0.5948240000000  0.5208280000000  0.4661570000000 1.0
C      1  0.4041100000000  0.4809870000000  0.4646350000000 1.0
C      1  0.5267160000000  0.5370990000000  0.5891630000000 1.0
C      1  0.4759000000000  0.4651650000000  0.5861760000000 1.0
C      1  0.5899230000000  0.5821990000000  0.5059190000000 1.0
C      1  0.4040760000000  0.4202980000000  0.5091110000000 1.0
C      1  0.4598490000000  0.4915930000000  0.5611450000000 1.0
C      1  0.5448640000000  0.5096350000000  0.5670590000000 1.0
C      1  0.4427570000000  0.4862870000000  0.5378610000000 1.0
C      1  0.5618620000000  0.5139460000000  0.5420110000000 1.0
C      1  0.4061740000000  0.5217270000000  0.5550140000000 1.0
C      1  0.5989070000000  0.4800960000000  0.5594740000000 1.0
C      1  0.3979510000000  0.4788590000000  0.4983340000000 1.0
C      1  0.6023170000000  0.5277830000000  0.4995690000000 1.0
C      1  0.5170100000000  0.5866870000000  0.4728450000000 1.0
C      1  0.4751020000000  0.4092490000000  0.4697300000000 1.0
C      1  0.5270920000000  0.5554250000000  0.4640100000000 1.0
C      1  0.4685980000000  0.4419790000000  0.4631780000000 1.0
C      1  0.4554030000000  0.5525350000000  0.4306640000000 1.0
C      1  0.5405420000000  0.4423380000000  0.4309110000000 1.0
C      1  0.4927490000000  0.5737050000000  0.5459160000000 1.0
C      1  0.5056850000000  0.4251610000000  0.5412290000000 1.0
C      1  0.4809130000000  0.4558560000000  0.5224430000000 1.0
C      1  0.5187250000000  0.5475290000000  0.5243950000000 1.0
C      1  0.5362750000000  0.4816490000000  0.5821340000000 1.0
C      1  0.4642050000000  0.5199370000000  0.5780380000000 1.0
C      1  0.5075200000000  0.3818960000000  0.5080740000000 1.0
C      1  0.4843840000000  0.6134260000000  0.5093180000000 1.0
C      1  0.4706080000000  0.5345270000000  0.4140780000000 1.0
C      1  0.5297410000000  0.4631750000000  0.4151030000000 1.0
C      1  0.5667840000000  0.5202160000000  0.5908100000000 1.0
C      1  0.4397360000000  0.4844240000000  0.5876140000000 1.0
C      1  0.4160580000000  0.4510670000000  0.5047710000000 1.0
C      1  0.5790890000000  0.5500240000000  0.5077960000000 1.0
C      1  0.4066740000000  0.4715930000000  0.5303290000000 1.0
C      1  0.5953610000000  0.5329720000000  0.5324470000000 1.0
C      1  0.4587590000000  0.4111400000000  0.5402380000000 1.0
C      1  0.5378230000000  0.5896930000000  0.5407950000000 1.0
C      1  0.4428380000000  0.4954750000000  0.4873200000000 1.0
C      1  0.5604040000000  0.5043080000000  0.4927030000000 1.0
C      1  0.5712190000000  0.4729400000000  0.4572340000000 1.0
C      1  0.4444920000000  0.5190180000000  0.4553770000000 1.0
C      1  0.4206420000000  0.5004830000000  0.4468180000000 1.0
C      1  0.5838060000000  0.4978540000000  0.4450430000000 1.0
C      1  0.5051510000000  0.5574100000000  0.5673920000000 1.0
C      1  0.4955560000000  0.4427300000000  0.5644990000000 1.0
C      1  0.4614350000000  0.4895210000000  0.5132810000000 1.0
C      1  0.5432570000000  0.5081980000000  0.5190970000000 1.0
C      1  0.5139710000000  0.5054140000000  0.5918370000000 1.0
C      1  0.4869270000000  0.4973690000000  0.5895720000000 1.0
C      1  0.5114050000000  0.4403230000000  0.5903670000000 1.0
C      1  0.4894740000000  0.5582530000000  0.5936570000000 1.0
C      1  0.5044600000000  0.5387690000000  0.4151620000000 1.0
C      1  0.4966100000000  0.4616660000000  0.4136580000000 1.0
C      1  0.4610070000000  0.4691900000000  0.4301220000000 1.0
C      1  0.5358730000000  0.5247150000000  0.4392150000000 1.0
C      1  0.4046690000000  0.5588860000000  0.4955910000000 1.0
C      1  0.5957570000000  0.4458360000000  0.4963480000000 1.0
C      1  0.5085060000000  0.5947520000000  0.5243340000000 1.0
C      1  0.4863780000000  0.4048130000000  0.5218420000000 1.0
C      1  0.5668830000000  0.5459520000000  0.5458050000000 1.0
C      1  0.4341440000000  0.4560290000000  0.5429810000000 1.0
C      1  0.4411980000000  0.4506180000000  0.4818760000000 1.0
C      1  0.5541090000000  0.5484010000000  0.4837590000000 1.0
C      1  0.4901830000000  0.4899230000000  0.4023400000000 1.0
C      1  0.5115900000000  0.5096030000000  0.4034790000000 1.0
C      1  0.4648540000000  0.4635180000000  0.4966260000000 1.0
C      1  0.5323520000000  0.5311100000000  0.5023300000000 1.0
C      1  0.4395650000000  0.5664730000000  0.4764800000000 1.0
C      1  0.5508410000000  0.4323390000000  0.4775950000000 1.0
C      1  0.6026530000000  0.5114190000000  0.5519760000000 1.0
C      1  0.3989900000000  0.4904380000000  0.5522960000000 1.0
C      1  0.5271110000000  0.4153490000000  0.4680920000000 1.0
C      1  0.4643780000000  0.5814980000000  0.4672680000000 1.0
C      1  0.4565310000000  0.5322100000000  0.5471910000000 1.0
C      1  0.5483980000000  0.4730200000000  0.5521290000000 1.0
C      1  0.4171390000000  0.4511680000000  0.4604330000000 1.0
C      1  0.5765020000000  0.5455160000000  0.4583160000000 1.0
C      1  0.4375290000000  0.4174520000000  0.5037310000000 1.0
C      1  0.5559420000000  0.5823590000000  0.5047400000000 1.0
C      1  0.5198940000000  0.4254170000000  0.4424160000000 1.0
C      1  0.4727920000000  0.5711940000000  0.4425150000000 1.0
C      1  0.4834660000000  0.4713190000000  0.4718130000000 1.0
C      1  0.5127930000000  0.5265500000000  0.4748880000000 1.0
C      1  0.5603250000000  0.4451430000000  0.4505530000000 1.0
C      1  0.4306310000000  0.5472890000000  0.4511350000000 1.0
C      1  0.3974440000000  0.5479020000000  0.5212660000000 1.0
C      1  0.6058460000000  0.4513650000000  0.5232640000000 1.0
C      1  0.4973750000000  0.4979880000000  0.4850410000000 1.0
END
