TITL C-2622966-9038-212 -0.00306853945902401 125000 -355.714751879389 0 0 68 (C1) n - 1
REM
REM in /nfs/bkarasulu/CARBON/AIRSS/Generating-Clusters/AIREBO/with-SteepDescent/Higher-Symm/SD-CG/HFTN-CG
REM
REM
REM
REM
REM
REM ./C.cell (b20cbc046b6831c77cfcea5457e17084)
REM
REM compiler GCC version 9.2.1 20190827 (Red Hat 9.2.1-1)
REM options -cpp -mtune=generic -march=x86-64 -g -O0 -fpre-include=/usr/include/finclude/math-vector-fortran.h
REM seed -92370342 -1014465944 -930824280 683156437 -375402021 -30031165 -875674985 -796306551 -849407295 660100642 313680931 1676797250 719818468 1173592428 1726490595 59180382 745152239 -969609654 -1962561469 654096233 782742587 860652966 858673985 1555023150 -1450651918 1712194088 -113678971 -597253873 -2123649024 -1389784328 -1747907159 1051306542 -45208425
REM
CELL 1.54180   50.00000   50.00000   50.00000   90.00000   90.00000   90.00000
LATT -1
SFAC C  
C      1  0.5311370000000  0.4308330000000  0.5231560000000 1.0
C      1  0.5245420000000  0.5056030000000  0.5705270000000 1.0
C      1  0.5273030000000  0.5623640000000  0.5132000000000 1.0
C      1  0.5262110000000  0.5320750000000  0.4428130000000 1.0
C      1  0.5289390000000  0.4584280000000  0.4424640000000 1.0
C      1  0.4671190000000  0.4393610000000  0.4753690000000 1.0
C      1  0.4703380000000  0.5049230000000  0.4299630000000 1.0
C      1  0.4711280000000  0.5735840000000  0.4805590000000 1.0
C      1  0.4641070000000  0.5357380000000  0.5629060000000 1.0
C      1  0.4650260000000  0.4521410000000  0.5556700000000 1.0
C      1  0.4948620000000  0.4616820000000  0.5533220000000 1.0
C      1  0.4925750000000  0.5457690000000  0.5583460000000 1.0
C      1  0.5001000000000  0.5686650000000  0.4738950000000 1.0
C      1  0.4983340000000  0.4969770000000  0.4323360000000 1.0
C      1  0.4980200000000  0.4275950000000  0.4800190000000 1.0
C      1  0.4959520000000  0.4509150000000  0.4381450000000 1.0
C      1  0.4989920000000  0.5457120000000  0.4423140000000 1.0
C      1  0.4999300000000  0.5738000000000  0.5223390000000 1.0
C      1  0.4949880000000  0.5015670000000  0.5820550000000 1.0
C      1  0.4997350000000  0.4265810000000  0.5139610000000 1.0
C      1  0.4660700000000  0.4534170000000  0.4507180000000 1.0
C      1  0.4716030000000  0.4396850000000  0.5247170000000 1.0
C      1  0.4638570000000  0.5084980000000  0.5724480000000 1.0
C      1  0.4677960000000  0.5654650000000  0.5136320000000 1.0
C      1  0.4703180000000  0.5320110000000  0.4483540000000 1.0
C      1  0.5244690000000  0.4545340000000  0.5468000000000 1.0
C      1  0.5250120000000  0.4460050000000  0.4725380000000 1.0
C      1  0.5253670000000  0.5056700000000  0.4330020000000 1.0
C      1  0.5287960000000  0.5618500000000  0.4848250000000 1.0
C      1  0.5224140000000  0.5332220000000  0.5543110000000 1.0
C      1  0.5421450000000  0.4531040000000  0.4993070000000 1.0
C      1  0.5376450000000  0.4843860000000  0.5474140000000 1.0
C      1  0.5401220000000  0.5437880000000  0.5299450000000 1.0
C      1  0.5421340000000  0.5376200000000  0.4694800000000 1.0
C      1  0.5424240000000  0.4839040000000  0.4417020000000 1.0
C      1  0.4526660000000  0.4423810000000  0.4994280000000 1.0
C      1  0.4530470000000  0.4828210000000  0.4491620000000 1.0
C      1  0.4546000000000  0.5444970000000  0.4743730000000 1.0
C      1  0.4566680000000  0.5377570000000  0.5299490000000 1.0
C      1  0.4531990000000  0.4842520000000  0.5512970000000 1.0
C      1  0.4781230000000  0.5380710000000  0.4963300000000 1.0
C      1  0.4683430000000  0.5059760000000  0.4695520000000 1.0
C      1  0.4827660000000  0.4811910000000  0.4840310000000 1.0
C      1  0.4704950000000  0.4732380000000  0.5241680000000 1.0
C      1  0.4792510000000  0.5125260000000  0.5344020000000 1.0
C      1  0.5173130000000  0.5249770000000  0.5030130000000 1.0
C      1  0.5203710000000  0.5086670000000  0.5310420000000 1.0
C      1  0.5187700000000  0.4676400000000  0.5164970000000 1.0
C      1  0.5215470000000  0.4797050000000  0.4754570000000 1.0
C      1  0.5301080000000  0.5073630000000  0.4795290000000 1.0
C      1  0.4332040000000  0.5230090000000  0.5163890000000 1.0
C      1  0.4319060000000  0.5257260000000  0.4835530000000 1.0
C      1  0.4261440000000  0.4992400000000  0.4620630000000 1.0
C      1  0.4348690000000  0.4640300000000  0.5018530000000 1.0
C      1  0.4357020000000  0.4913620000000  0.5235100000000 1.0
C      1  0.5727090000000  0.5233560000000  0.4654040000000 1.0
C      1  0.5610050000000  0.5265200000000  0.5216410000000 1.0
C      1  0.5561890000000  0.4927090000000  0.5233140000000 1.0
C      1  0.5646860000000  0.4741180000000  0.4949110000000 1.0
C      1  0.5635530000000  0.4900930000000  0.4643300000000 1.0
C      1  0.4962620000000  0.5401020000000  0.5250180000000 1.0
C      1  0.5017730000000  0.5347050000000  0.4743640000000 1.0
C      1  0.4927200000000  0.4898320000000  0.5529450000000 1.0
C      1  0.4968520000000  0.4780970000000  0.4555230000000 1.0
C      1  0.4956890000000  0.4561950000000  0.4976730000000 1.0
C      1  0.4440940000000  0.4947680000000  0.4906040000000 1.0
C      1  0.5607130000000  0.5078660000000  0.4931980000000 1.0
C      1  0.4961020000000  0.4927760000000  0.5132760000000 1.0
END
