TITL C-2622965-4321-302 0.000463875674540067 125000 -1017.16069258162 0 0 198 (C1) n - 1
REM
REM in /nfs/bkarasulu/CARBON/AIRSS/Generating-Clusters/AIREBO/with-SteepDescent/Higher-Symm/SD-CG/HFTN-CG
REM
REM
REM
REM
REM
REM ./C.cell (b20cbc046b6831c77cfcea5457e17084)
REM
REM compiler GCC version 9.2.1 20190827 (Red Hat 9.2.1-1)
REM options -cpp -mtune=generic -march=x86-64 -g -O0 -fpre-include=/usr/include/finclude/math-vector-fortran.h
REM seed -1970491536 -754702136 -1949832067 -1744498877 -1636349971 -1333103 806271440 -125442865 20760647 1423588905 -758729912 -1162676482 1147553267 -1074584668 341228217 -1014888492 -290258651 1610775624 113753245 987975910 -2001226666 -1575782319 591480437 -25853017 211345451 -667930007 -950964814 -846631955 -622489402 410092064 273064379 -855430368 -392571769
REM
CELL 1.54180   50.00000   50.00000   50.00000   90.00000   90.00000   90.00000
LATT -1
SFAC C  
C      1  0.5441040000000  0.4713740000000  0.4015420000000 1.0
C      1  0.4553290000000  0.5388370000000  0.5899220000000 1.0
C      1  0.6029370000000  0.4658430000000  0.5295060000000 1.0
C      1  0.3954320000000  0.5241970000000  0.4720340000000 1.0
C      1  0.5793160000000  0.4903350000000  0.5493740000000 1.0
C      1  0.4285630000000  0.5055430000000  0.4454010000000 1.0
C      1  0.5795070000000  0.5384040000000  0.5354000000000 1.0
C      1  0.4140940000000  0.4598410000000  0.4540310000000 1.0
C      1  0.5232080000000  0.4347650000000  0.5590170000000 1.0
C      1  0.4766750000000  0.5664650000000  0.4441570000000 1.0
C      1  0.4370680000000  0.5703880000000  0.5521400000000 1.0
C      1  0.5673600000000  0.4319660000000  0.4535620000000 1.0
C      1  0.4982540000000  0.4072310000000  0.4570550000000 1.0
C      1  0.4978620000000  0.5969750000000  0.5538910000000 1.0
C      1  0.4623590000000  0.4922230000000  0.4656910000000 1.0
C      1  0.5342150000000  0.4964810000000  0.5264840000000 1.0
C      1  0.5215980000000  0.5878790000000  0.4427970000000 1.0
C      1  0.4761510000000  0.4136270000000  0.5645780000000 1.0
C      1  0.5219640000000  0.5123050000000  0.5536140000000 1.0
C      1  0.4833890000000  0.4858380000000  0.4397370000000 1.0
C      1  0.4084720000000  0.5267330000000  0.4473060000000 1.0
C      1  0.5927060000000  0.4622740000000  0.5618300000000 1.0
C      1  0.5698250000000  0.5005730000000  0.4101950000000 1.0
C      1  0.4320840000000  0.5030230000000  0.5876420000000 1.0
C      1  0.5625460000000  0.6080050000000  0.4504830000000 1.0
C      1  0.4374740000000  0.4057810000000  0.5367720000000 1.0
C      1  0.5018490000000  0.4824400000000  0.5708370000000 1.0
C      1  0.4998040000000  0.5213700000000  0.4341740000000 1.0
C      1  0.4900350000000  0.5575320000000  0.5006320000000 1.0
C      1  0.5069720000000  0.4430810000000  0.5010510000000 1.0
C      1  0.4061620000000  0.5435740000000  0.4939160000000 1.0
C      1  0.5848920000000  0.4532140000000  0.5041160000000 1.0
C      1  0.4438630000000  0.5249620000000  0.5262680000000 1.0
C      1  0.5592950000000  0.4926800000000  0.4732400000000 1.0
C      1  0.4828720000000  0.4544960000000  0.4039170000000 1.0
C      1  0.5214350000000  0.5424300000000  0.5986800000000 1.0
C      1  0.4917680000000  0.5823460000000  0.4019610000000 1.0
C      1  0.5011140000000  0.4232780000000  0.5992100000000 1.0
C      1  0.5517480000000  0.4575900000000  0.4951370000000 1.0
C      1  0.4385480000000  0.5489910000000  0.5070960000000 1.0
C      1  0.5531690000000  0.4610490000000  0.5568430000000 1.0
C      1  0.4455580000000  0.5414850000000  0.4448820000000 1.0
C      1  0.4784240000000  0.3946660000000  0.4769870000000 1.0
C      1  0.5102920000000  0.6039510000000  0.5248260000000 1.0
C      1  0.5750070000000  0.4764740000000  0.4263680000000 1.0
C      1  0.4228530000000  0.5238670000000  0.5722240000000 1.0
C      1  0.5209350000000  0.5727770000000  0.5474600000000 1.0
C      1  0.4926520000000  0.4382190000000  0.4456340000000 1.0
C      1  0.5633710000000  0.5063100000000  0.5688460000000 1.0
C      1  0.4419020000000  0.4943540000000  0.4211050000000 1.0
C      1  0.5793820000000  0.5164220000000  0.5125850000000 1.0
C      1  0.4105720000000  0.4815170000000  0.5030110000000 1.0
C      1  0.4212630000000  0.5921030000000  0.5013810000000 1.0
C      1  0.5821880000000  0.4134750000000  0.5006700000000 1.0
C      1  0.4962830000000  0.5593350000000  0.5666590000000 1.0
C      1  0.5197670000000  0.4413610000000  0.4261620000000 1.0
C      1  0.5325560000000  0.5603120000000  0.4337740000000 1.0
C      1  0.4790920000000  0.4403510000000  0.5804940000000 1.0
C      1  0.4262650000000  0.4692770000000  0.5514660000000 1.0
C      1  0.5786710000000  0.5322610000000  0.4482910000000 1.0
C      1  0.4180580000000  0.5695670000000  0.4801550000000 1.0
C      1  0.5744940000000  0.4303780000000  0.5270640000000 1.0
C      1  0.4490230000000  0.5388500000000  0.5564930000000 1.0
C      1  0.5517050000000  0.4748960000000  0.4490260000000 1.0
C      1  0.4927320000000  0.5884990000000  0.4290300000000 1.0
C      1  0.5189620000000  0.4119150000000  0.5814650000000 1.0
C      1  0.5356240000000  0.4280780000000  0.5001830000000 1.0
C      1  0.4617520000000  0.5732180000000  0.5052990000000 1.0
C      1  0.4544260000000  0.3927330000000  0.5187210000000 1.0
C      1  0.5374200000000  0.6012850000000  0.4699550000000 1.0
C      1  0.4722460000000  0.5229100000000  0.4548760000000 1.0
C      1  0.5230400000000  0.4724090000000  0.5457350000000 1.0
C      1  0.4692540000000  0.5430990000000  0.4205420000000 1.0
C      1  0.5314010000000  0.4583170000000  0.5821670000000 1.0
C      1  0.4803170000000  0.5012220000000  0.3857800000000 1.0
C      1  0.5342820000000  0.4950910000000  0.6122490000000 1.0
C      1  0.4777280000000  0.5768250000000  0.5351160000000 1.0
C      1  0.5235930000000  0.4272290000000  0.4683840000000 1.0
C      1  0.4973360000000  0.4113610000000  0.5380100000000 1.0
C      1  0.4995650000000  0.5886350000000  0.4682780000000 1.0
C      1  0.5500760000000  0.5589060000000  0.4613920000000 1.0
C      1  0.4545320000000  0.4423920000000  0.5431590000000 1.0
C      1  0.4414080000000  0.5452660000000  0.4754160000000 1.0
C      1  0.5522580000000  0.4526680000000  0.5268540000000 1.0
C      1  0.5296580000000  0.3954010000000  0.4786970000000 1.0
C      1  0.4706040000000  0.6076960000000  0.5227690000000 1.0
C      1  0.5082030000000  0.4491720000000  0.5322960000000 1.0
C      1  0.4863750000000  0.5472400000000  0.4684310000000 1.0
C      1  0.4726170000000  0.5093560000000  0.4176300000000 1.0
C      1  0.5335890000000  0.4920740000000  0.5783860000000 1.0
C      1  0.5244980000000  0.5309970000000  0.4487760000000 1.0
C      1  0.4773040000000  0.4640380000000  0.5561660000000 1.0
C      1  0.5077780000000  0.4532090000000  0.6048330000000 1.0
C      1  0.4954960000000  0.5533130000000  0.4012350000000 1.0
C      1  0.4556120000000  0.4467710000000  0.4842630000000 1.0
C      1  0.5379850000000  0.5543310000000  0.5164260000000 1.0
C      1  0.5578180000000  0.4413290000000  0.5954520000000 1.0
C      1  0.4396330000000  0.5522540000000  0.4061230000000 1.0
C      1  0.5411910000000  0.5261880000000  0.6102570000000 1.0
C      1  0.4701130000000  0.4705020000000  0.3848830000000 1.0
C      1  0.5643920000000  0.4108470000000  0.5484730000000 1.0
C      1  0.4236940000000  0.5770410000000  0.4509810000000 1.0
C      1  0.4473600000000  0.4092880000000  0.5639790000000 1.0
C      1  0.5758170000000  0.5902620000000  0.4338470000000 1.0
C      1  0.5555650000000  0.5771200000000  0.5437870000000 1.0
C      1  0.4253660000000  0.4214630000000  0.4494750000000 1.0
C      1  0.3947360000000  0.4515280000000  0.5004370000000 1.0
C      1  0.6032550000000  0.5487330000000  0.5050430000000 1.0
C      1  0.4684850000000  0.5824170000000  0.4730680000000 1.0
C      1  0.5304950000000  0.4159030000000  0.5316670000000 1.0
C      1  0.5323480000000  0.4914200000000  0.4264740000000 1.0
C      1  0.4738900000000  0.5103560000000  0.5688730000000 1.0
C      1  0.5823620000000  0.5679070000000  0.5238850000000 1.0
C      1  0.4055680000000  0.4338290000000  0.4742020000000 1.0
C      1  0.4903510000000  0.5137530000000  0.5411740000000 1.0
C      1  0.5138150000000  0.4859130000000  0.4550330000000 1.0
C      1  0.5149850000000  0.5907500000000  0.5826080000000 1.0
C      1  0.4862890000000  0.4039690000000  0.4274040000000 1.0
C      1  0.5059550000000  0.3860650000000  0.4928300000000 1.0
C      1  0.4904140000000  0.6135570000000  0.5010940000000 1.0
C      1  0.5020160000000  0.5278090000000  0.5767230000000 1.0
C      1  0.5061300000000  0.4709650000000  0.4192270000000 1.0
C      1  0.4629790000000  0.3705180000000  0.4666370000000 1.0
C      1  0.5316090000000  0.6259310000000  0.5275110000000 1.0
C      1  0.4439620000000  0.4796330000000  0.5249370000000 1.0
C      1  0.5594260000000  0.5212880000000  0.4712130000000 1.0
C      1  0.4651180000000  0.5718250000000  0.5720680000000 1.0
C      1  0.5492810000000  0.4294160000000  0.4327990000000 1.0
C      1  0.5713320000000  0.5606440000000  0.4844280000000 1.0
C      1  0.4259080000000  0.4338220000000  0.5269860000000 1.0
C      1  0.4476100000000  0.4954060000000  0.3897330000000 1.0
C      1  0.5648690000000  0.5028830000000  0.6007030000000 1.0
C      1  0.5641960000000  0.5960540000000  0.5180470000000 1.0
C      1  0.4302650000000  0.4108960000000  0.4795190000000 1.0
C      1  0.4270240000000  0.5022070000000  0.3728510000000 1.0
C      1  0.5900190000000  0.4837510000000  0.5881400000000 1.0
C      1  0.4438070000000  0.4408770000000  0.4353110000000 1.0
C      1  0.5508530000000  0.5590310000000  0.5700290000000 1.0
C      1  0.5209000000000  0.5655070000000  0.4765000000000 1.0
C      1  0.4749610000000  0.4302170000000  0.5206850000000 1.0
C      1  0.5341290000000  0.5414580000000  0.5461990000000 1.0
C      1  0.4464510000000  0.4640650000000  0.4599040000000 1.0
C      1  0.4013800000000  0.4550410000000  0.5331550000000 1.0
C      1  0.5966780000000  0.5455720000000  0.4739140000000 1.0
C      1  0.5969100000000  0.4813560000000  0.4667430000000 1.0
C      1  0.4056360000000  0.5187600000000  0.5367250000000 1.0
C      1  0.4044890000000  0.4953910000000  0.5511560000000 1.0
C      1  0.5986730000000  0.5049180000000  0.4513440000000 1.0
C      1  0.5306710000000  0.5109360000000  0.5001390000000 1.0
C      1  0.4771800000000  0.4828040000000  0.4941240000000 1.0
C      1  0.4413950000000  0.5907090000000  0.5266430000000 1.0
C      1  0.5589220000000  0.4127280000000  0.4796300000000 1.0
C      1  0.4368540000000  0.5116990000000  0.4769470000000 1.0
C      1  0.5623450000000  0.4825470000000  0.5244300000000 1.0
C      1  0.5863220000000  0.4555040000000  0.4506300000000 1.0
C      1  0.4106740000000  0.5481970000000  0.5529820000000 1.0
C      1  0.5455090000000  0.5798530000000  0.4951100000000 1.0
C      1  0.4603190000000  0.4146010000000  0.4942440000000 1.0
C      1  0.5439320000000  0.5211780000000  0.3991030000000 1.0
C      1  0.4563710000000  0.4837400000000  0.6022770000000 1.0
C      1  0.4278280000000  0.4671420000000  0.4246700000000 1.0
C      1  0.5702810000000  0.5346050000000  0.5612290000000 1.0
C      1  0.4768200000000  0.4600600000000  0.6072550000000 1.0
C      1  0.5234410000000  0.5471550000000  0.4069980000000 1.0
C      1  0.4863550000000  0.4395930000000  0.4773060000000 1.0
C      1  0.5116500000000  0.5719000000000  0.5147630000000 1.0
C      1  0.4802590000000  0.4637790000000  0.5221870000000 1.0
C      1  0.5142410000000  0.5324910000000  0.4811660000000 1.0
C      1  0.4307930000000  0.4389870000000  0.5662900000000 1.0
C      1  0.5721260000000  0.5637920000000  0.4373590000000 1.0
C      1  0.5819960000000  0.4863250000000  0.4969150000000 1.0
C      1  0.4189190000000  0.5143540000000  0.5057310000000 1.0
C      1  0.4521420000000  0.4832900000000  0.5685350000000 1.0
C      1  0.5517130000000  0.5191860000000  0.4321470000000 1.0
C      1  0.5315660000000  0.4823710000000  0.4834020000000 1.0
C      1  0.4676290000000  0.5032770000000  0.5187540000000 1.0
C      1  0.6042510000000  0.4990560000000  0.5279470000000 1.0
C      1  0.3912530000000  0.4988120000000  0.4809930000000 1.0
C      1  0.5551220000000  0.5345350000000  0.4989770000000 1.0
C      1  0.4340160000000  0.4569210000000  0.5043950000000 1.0
C      1  0.6169220000000  0.5285540000000  0.5180710000000 1.0
C      1  0.3890350000000  0.4696800000000  0.4720430000000 1.0
C      1  0.5296100000000  0.5684910000000  0.5894990000000 1.0
C      1  0.4695980000000  0.4332610000000  0.4226060000000 1.0
C      1  0.4789150000000  0.5441720000000  0.5445270000000 1.0
C      1  0.5276440000000  0.4548450000000  0.4547530000000 1.0
C      1  0.5049670000000  0.4715180000000  0.4923220000000 1.0
C      1  0.4871430000000  0.5249130000000  0.5012280000000 1.0
C      1  0.5469710000000  0.3881620000000  0.5401480000000 1.0
C      1  0.4468710000000  0.5921760000000  0.4510030000000 1.0
C      1  0.5096250000000  0.6187710000000  0.4787960000000 1.0
C      1  0.4853360000000  0.3916200000000  0.5161630000000 1.0
C      1  0.4867320000000  0.4973140000000  0.5974220000000 1.0
C      1  0.5126850000000  0.5092240000000  0.4051930000000 1.0
C      1  0.4718540000000  0.5269190000000  0.6050760000000 1.0
C      1  0.5274580000000  0.4870300000000  0.3863730000000 1.0
C      1  0.5736870000000  0.4365550000000  0.5668520000000 1.0
C      1  0.4175430000000  0.5532250000000  0.4310910000000 1.0
END
