TITL C-2622963-3633-300 -0.0116540146137835 125000 -360.483965146563 0 0 66 (C1) n - 1
REM
REM in /nfs/bkarasulu/CARBON/AIRSS/Generating-Clusters/AIREBO/with-SteepDescent/Higher-Symm/SD-CG/HFTN-CG
REM
REM
REM
REM
REM
REM ./C.cell (b20cbc046b6831c77cfcea5457e17084)
REM
REM compiler GCC version 9.2.1 20190827 (Red Hat 9.2.1-1)
REM options -cpp -mtune=generic -march=x86-64 -g -O0 -fpre-include=/usr/include/finclude/math-vector-fortran.h
REM seed -767969443 -818112035 1000910868 1202260466 1700475205 -1624012182 -1189340578 510862260 1877779248 -221521608 2130943475 -930532807 80399679 1281955284 -1642795938 728204257 411579543 1576963480 1776221875 -1370374823 -2023629409 554196278 -803971582 -769134201 -910323007 -1350730598 198973805 1057326396 1416878943 -2003029816 -1341602286 708134037 1728727356
REM
CELL 1.54180   50.00000   50.00000   50.00000   90.00000   90.00000   90.00000
LATT -1
SFAC C  
C      1  0.4386730000000  0.5435360000000  0.5296890000000 1.0
C      1  0.5379890000000  0.4652170000000  0.5367040000000 1.0
C      1  0.5732740000000  0.5449490000000  0.5845120000000 1.0
C      1  0.5373370000000  0.3918520000000  0.5265270000000 1.0
C      1  0.5524710000000  0.4572040000000  0.4792890000000 1.0
C      1  0.4467850000000  0.5441030000000  0.4762850000000 1.0
C      1  0.5040440000000  0.5931690000000  0.4970370000000 1.0
C      1  0.4800950000000  0.4408450000000  0.5030270000000 1.0
C      1  0.4760040000000  0.4794700000000  0.4394670000000 1.0
C      1  0.5240560000000  0.4902080000000  0.4349110000000 1.0
C      1  0.4991410000000  0.5691260000000  0.4849380000000 1.0
C      1  0.5045060000000  0.4547760000000  0.5012010000000 1.0
C      1  0.5306150000000  0.4419160000000  0.4838400000000 1.0
C      1  0.4734840000000  0.5566520000000  0.4814040000000 1.0
C      1  0.5188780000000  0.5114920000000  0.4181580000000 1.0
C      1  0.4662330000000  0.4554120000000  0.4311980000000 1.0
C      1  0.4711830000000  0.5147080000000  0.5584680000000 1.0
C      1  0.5290540000000  0.5055380000000  0.5655030000000 1.0
C      1  0.4623150000000  0.5015050000000  0.4321090000000 1.0
C      1  0.5432310000000  0.4661770000000  0.4201080000000 1.0
C      1  0.4623130000000  0.4303840000000  0.4655350000000 1.0
C      1  0.5248210000000  0.5525970000000  0.4698480000000 1.0
C      1  0.5626900000000  0.5385830000000  0.5270640000000 1.0
C      1  0.4294070000000  0.4701560000000  0.5110700000000 1.0
C      1  0.5664110000000  0.5067120000000  0.5383440000000 1.0
C      1  0.4260640000000  0.4985080000000  0.5278810000000 1.0
C      1  0.5042330000000  0.5230020000000  0.5792170000000 1.0
C      1  0.4923380000000  0.4914670000000  0.5713760000000 1.0
C      1  0.5322230000000  0.4525980000000  0.4453470000000 1.0
C      1  0.4661180000000  0.5320520000000  0.4275310000000 1.0
C      1  0.4262420000000  0.5245030000000  0.4867650000000 1.0
C      1  0.5600090000000  0.4820390000000  0.4946030000000 1.0
C      1  0.5166780000000  0.5600640000000  0.4375250000000 1.0
C      1  0.4868730000000  0.4232160000000  0.4550440000000 1.0
C      1  0.5469720000000  0.4809620000000  0.4569470000000 1.0
C      1  0.4465310000000  0.5204270000000  0.4529270000000 1.0
C      1  0.5575130000000  0.5412590000000  0.6068920000000 1.0
C      1  0.5310560000000  0.4172860000000  0.5258190000000 1.0
C      1  0.5627090000000  0.5458110000000  0.5016540000000 1.0
C      1  0.4322450000000  0.4719170000000  0.4831090000000 1.0
C      1  0.5564540000000  0.4814820000000  0.5229750000000 1.0
C      1  0.4215100000000  0.5251770000000  0.5137760000000 1.0
C      1  0.5088160000000  0.4389950000000  0.4504870000000 1.0
C      1  0.4916860000000  0.5409270000000  0.4334880000000 1.0
C      1  0.4810930000000  0.5251930000000  0.4836860000000 1.0
C      1  0.4994110000000  0.4857180000000  0.4880590000000 1.0
C      1  0.4780110000000  0.5045770000000  0.5066540000000 1.0
C      1  0.5178520000000  0.5102460000000  0.5029370000000 1.0
C      1  0.5369290000000  0.5286240000000  0.5869340000000 1.0
C      1  0.4630470000000  0.4814470000000  0.5584450000000 1.0
C      1  0.4475760000000  0.4757780000000  0.5369910000000 1.0
C      1  0.5605890000000  0.5328960000000  0.5592390000000 1.0
C      1  0.5467780000000  0.5344170000000  0.4812860000000 1.0
C      1  0.4424530000000  0.4485160000000  0.4706460000000 1.0
C      1  0.4913820000000  0.5401220000000  0.5541830000000 1.0
C      1  0.5165680000000  0.4789900000000  0.5518540000000 1.0
C      1  0.5493060000000  0.5072050000000  0.4784620000000 1.0
C      1  0.4284910000000  0.4977500000000  0.4711790000000 1.0
C      1  0.4409770000000  0.5693290000000  0.5364950000000 1.0
C      1  0.5264130000000  0.4441500000000  0.5232010000000 1.0
C      1  0.5036060000000  0.5261520000000  0.5294000000000 1.0
C      1  0.4985240000000  0.4926500000000  0.5305340000000 1.0
C      1  0.5331510000000  0.5120090000000  0.5339410000000 1.0
C      1  0.4562310000000  0.5141030000000  0.5298030000000 1.0
C      1  0.5008240000000  0.4782110000000  0.4546950000000 1.0
C      1  0.4995100000000  0.5339360000000  0.4617740000000 1.0
END
