TITL C-2622961-1971-178 -80.3907045130714 125000 -1057.2471377896 0 0 188 (C1) n - 1
REM
REM in /nfs/bkarasulu/CARBON/AIRSS/Generating-Clusters/AIREBO/with-SteepDescent/Higher-Symm/SD-CG/HFTN-CG
REM
REM
REM
REM
REM
REM ./C.cell (b20cbc046b6831c77cfcea5457e17084)
REM
REM compiler GCC version 9.2.1 20190827 (Red Hat 9.2.1-1)
REM options -cpp -mtune=generic -march=x86-64 -g -O0 -fpre-include=/usr/include/finclude/math-vector-fortran.h
REM seed -394432723 -1403969159 -693452314 1131259205 587133363 1587071257 858666472 543037539 1474366643 2013491037 -936683864 510591246 -705256016 265128871 472198236 -45560455 971687797 -1601254276 642635941 1197323182 2082914705 469945517 -338288437 -1609169097 81865400 162862544 949503643 758425400 241227966 458785853 1852011157 1987031201 1044169317
REM
CELL 1.54180   50.00000   50.00000   50.00000   90.00000   90.00000   90.00000
LATT -1
SFAC C  
C      1  0.4536470000000  0.5582060000000  0.4883390000000 1.0
C      1  0.5135130000000  0.5493610000000  0.5426890000000 1.0
C      1  0.5271700000000  0.5665660000000  0.4594410000000 1.0
C      1  0.4369530000000  0.4091390000000  0.5116700000000 1.0
C      1  0.5337580000000  0.4018370000000  0.5507900000000 1.0
C      1  0.5312160000000  0.4229480000000  0.4461910000000 1.0
C      1  0.4367940000000  0.4700950000000  0.4142070000000 1.0
C      1  0.4560580000000  0.4738920000000  0.5974480000000 1.0
C      1  0.6023130000000  0.4727460000000  0.4803810000000 1.0
C      1  0.5772730000000  0.5308630000000  0.5649610000000 1.0
C      1  0.5168420000000  0.5401820000000  0.3959420000000 1.0
C      1  0.4042500000000  0.5355160000000  0.5355900000000 1.0
C      1  0.4185690000000  0.5772780000000  0.5451720000000 1.0
C      1  0.5734940000000  0.5690000000000  0.5416570000000 1.0
C      1  0.4998210000000  0.5806920000000  0.4094960000000 1.0
C      1  0.4574380000000  0.3901270000000  0.5100110000000 1.0
C      1  0.5259200000000  0.3836130000000  0.5308310000000 1.0
C      1  0.5136240000000  0.3967840000000  0.4563180000000 1.0
C      1  0.5007690000000  0.4746190000000  0.4332420000000 1.0
C      1  0.4441960000000  0.4759720000000  0.5339690000000 1.0
C      1  0.5555380000000  0.4638460000000  0.5312780000000 1.0
C      1  0.5871920000000  0.4993940000000  0.5252390000000 1.0
C      1  0.4830830000000  0.5008180000000  0.4089540000000 1.0
C      1  0.4296360000000  0.4997270000000  0.5625580000000 1.0
C      1  0.6249610000000  0.5342580000000  0.4888960000000 1.0
C      1  0.4290900000000  0.5356980000000  0.4012930000000 1.0
C      1  0.4538010000000  0.5377470000000  0.6152070000000 1.0
C      1  0.4779080000000  0.4680960000000  0.5255510000000 1.0
C      1  0.5395780000000  0.4712300000000  0.5030810000000 1.0
C      1  0.4835690000000  0.4692750000000  0.4719720000000 1.0
C      1  0.4293240000000  0.5071840000000  0.4013580000000 1.0
C      1  0.4504650000000  0.5095890000000  0.6144730000000 1.0
C      1  0.6232290000000  0.5064200000000  0.4856020000000 1.0
C      1  0.5720680000000  0.5077670000000  0.4996410000000 1.0
C      1  0.4775390000000  0.4981950000000  0.4414100000000 1.0
C      1  0.4595120000000  0.5028320000000  0.5488820000000 1.0
C      1  0.4259690000000  0.5287410000000  0.4499580000000 1.0
C      1  0.4921530000000  0.5295810000000  0.5892930000000 1.0
C      1  0.6059940000000  0.5430100000000  0.4478570000000 1.0
C      1  0.4574590000000  0.4806340000000  0.4581910000000 1.0
C      1  0.4885600000000  0.4926910000000  0.5604770000000 1.0
C      1  0.5571160000000  0.4865370000000  0.4827040000000 1.0
C      1  0.5191200000000  0.4920600000000  0.5124630000000 1.0
C      1  0.5036570000000  0.4952840000000  0.4757660000000 1.0
C      1  0.4860210000000  0.4920710000000  0.5046760000000 1.0
C      1  0.5202920000000  0.5194120000000  0.4404120000000 1.0
C      1  0.4375690000000  0.5090120000000  0.5077870000000 1.0
C      1  0.5387010000000  0.5033030000000  0.5452660000000 1.0
C      1  0.5202570000000  0.5806740000000  0.5312350000000 1.0
C      1  0.5119810000000  0.5967780000000  0.4644790000000 1.0
C      1  0.4625060000000  0.5898070000000  0.4972750000000 1.0
C      1  0.4984620000000  0.5081200000000  0.6058460000000 1.0
C      1  0.6022490000000  0.5175530000000  0.4398870000000 1.0
C      1  0.4085100000000  0.5086210000000  0.4462170000000 1.0
C      1  0.5478630000000  0.5269060000000  0.4747250000000 1.0
C      1  0.4591410000000  0.5184360000000  0.4704950000000 1.0
C      1  0.4934930000000  0.5264150000000  0.5578760000000 1.0
C      1  0.5292860000000  0.3943000000000  0.5010990000000 1.0
C      1  0.4867210000000  0.4009900000000  0.4717980000000 1.0
C      1  0.4828790000000  0.3970530000000  0.5259140000000 1.0
C      1  0.4878990000000  0.4692400000000  0.4031740000000 1.0
C      1  0.4230700000000  0.4690420000000  0.5596970000000 1.0
C      1  0.5867800000000  0.4683390000000  0.5285610000000 1.0
C      1  0.5051760000000  0.4499450000000  0.5346990000000 1.0
C      1  0.5266390000000  0.4471640000000  0.4877060000000 1.0
C      1  0.4746280000000  0.4471030000000  0.4918850000000 1.0
C      1  0.4831050000000  0.6255890000000  0.4296490000000 1.0
C      1  0.4528530000000  0.6135090000000  0.5407330000000 1.0
C      1  0.5596590000000  0.6060490000000  0.5144710000000 1.0
C      1  0.3959920000000  0.4638840000000  0.5435840000000 1.0
C      1  0.5844500000000  0.4613490000000  0.5587780000000 1.0
C      1  0.5193740000000  0.4651630000000  0.3993240000000 1.0
C      1  0.5099740000000  0.4541690000000  0.4588170000000 1.0
C      1  0.4522280000000  0.4473020000000  0.5175300000000 1.0
C      1  0.5374010000000  0.4391080000000  0.5376530000000 1.0
C      1  0.5258200000000  0.5790250000000  0.4202120000000 1.0
C      1  0.4101430000000  0.5782530000000  0.5179900000000 1.0
C      1  0.5510620000000  0.5684290000000  0.5590030000000 1.0
C      1  0.4626900000000  0.5358560000000  0.5470050000000 1.0
C      1  0.5600950000000  0.5372800000000  0.5038490000000 1.0
C      1  0.4724740000000  0.5318370000000  0.4422340000000 1.0
C      1  0.4983710000000  0.5608580000000  0.3894210000000 1.0
C      1  0.4047700000000  0.5551580000000  0.5560480000000 1.0
C      1  0.5927070000000  0.5515860000000  0.5528560000000 1.0
C      1  0.4905140000000  0.5238300000000  0.4768840000000 1.0
C      1  0.4823460000000  0.5219740000000  0.5157800000000 1.0
C      1  0.5243060000000  0.5208910000000  0.4984940000000 1.0
C      1  0.5253470000000  0.4951990000000  0.6015070000000 1.0
C      1  0.5760100000000  0.5053860000000  0.4264000000000 1.0
C      1  0.3976900000000  0.4970530000000  0.4718840000000 1.0
C      1  0.5326290000000  0.4999600000000  0.4654400000000 1.0
C      1  0.4566470000000  0.4931000000000  0.4893590000000 1.0
C      1  0.5119740000000  0.4822630000000  0.5428900000000 1.0
C      1  0.4625960000000  0.4249040000000  0.4735580000000 1.0
C      1  0.4885080000000  0.4225120000000  0.5459640000000 1.0
C      1  0.5460020000000  0.4203710000000  0.4957500000000 1.0
C      1  0.5361430000000  0.5305590000000  0.5276680000000 1.0
C      1  0.5019940000000  0.5446560000000  0.4529470000000 1.0
C      1  0.4523120000000  0.5366330000000  0.5146310000000 1.0
C      1  0.4948370000000  0.5994780000000  0.5662480000000 1.0
C      1  0.5596390000000  0.6014040000000  0.4714430000000 1.0
C      1  0.4512520000000  0.5863030000000  0.4470740000000 1.0
C      1  0.5989030000000  0.4535830000000  0.5060300000000 1.0
C      1  0.4628740000000  0.4533810000000  0.4049730000000 1.0
C      1  0.4355140000000  0.4547180000000  0.5830300000000 1.0
C      1  0.4229820000000  0.5152520000000  0.5366360000000 1.0
C      1  0.5709350000000  0.5092520000000  0.5487480000000 1.0
C      1  0.5076340000000  0.5185290000000  0.4109330000000 1.0
C      1  0.4643640000000  0.3813340000000  0.4848080000000 1.0
C      1  0.5005080000000  0.3726410000000  0.5347600000000 1.0
C      1  0.5293080000000  0.3796410000000  0.4731350000000 1.0
C      1  0.4326750000000  0.5479210000000  0.4260270000000 1.0
C      1  0.4713610000000  0.5475120000000  0.5956730000000 1.0
C      1  0.6057650000000  0.5495190000000  0.4753470000000 1.0
C      1  0.3895230000000  0.5224530000000  0.4926870000000 1.0
C      1  0.5491360000000  0.5166260000000  0.5961020000000 1.0
C      1  0.5581080000000  0.5248520000000  0.4074590000000 1.0
C      1  0.4559010000000  0.6156730000000  0.5156630000000 1.0
C      1  0.5372710000000  0.6091000000000  0.5261610000000 1.0
C      1  0.4907460000000  0.6204330000000  0.4571540000000 1.0
C      1  0.5354660000000  0.5987750000000  0.4835100000000 1.0
C      1  0.4724390000000  0.5970460000000  0.4699070000000 1.0
C      1  0.4954220000000  0.5972360000000  0.5390150000000 1.0
C      1  0.5002490000000  0.4293690000000  0.4376510000000 1.0
C      1  0.4379250000000  0.4251270000000  0.5376690000000 1.0
C      1  0.5604370000000  0.4150110000000  0.5444470000000 1.0
C      1  0.5903860000000  0.4802940000000  0.4398700000000 1.0
C      1  0.4120790000000  0.4693390000000  0.4697630000000 1.0
C      1  0.5157000000000  0.4675030000000  0.5918190000000 1.0
C      1  0.5792420000000  0.5591310000000  0.4861060000000 1.0
C      1  0.4498150000000  0.5538700000000  0.4548000000000 1.0
C      1  0.4639960000000  0.5610330000000  0.5679230000000 1.0
C      1  0.4549530000000  0.4931340000000  0.3969990000000 1.0
C      1  0.4337870000000  0.4988300000000  0.5926300000000 1.0
C      1  0.6121490000000  0.4907890000000  0.5076040000000 1.0
C      1  0.4717790000000  0.5809470000000  0.5275570000000 1.0
C      1  0.5356000000000  0.5758290000000  0.5041020000000 1.0
C      1  0.4896650000000  0.5760520000000  0.4493820000000 1.0
C      1  0.4913920000000  0.4377160000000  0.5826520000000 1.0
C      1  0.5861170000000  0.4319800000000  0.4647890000000 1.0
C      1  0.4283810000000  0.4357970000000  0.4559420000000 1.0
C      1  0.4624220000000  0.4227960000000  0.5592500000000 1.0
C      1  0.5687890000000  0.4187460000000  0.5146940000000 1.0
C      1  0.4687050000000  0.4230020000000  0.4439440000000 1.0
C      1  0.5929520000000  0.4274590000000  0.5065830000000 1.0
C      1  0.4677570000000  0.4276200000000  0.4144400000000 1.0
C      1  0.4394660000000  0.4278210000000  0.5774540000000 1.0
C      1  0.5298670000000  0.4474200000000  0.5776290000000 1.0
C      1  0.5474400000000  0.4531700000000  0.4449190000000 1.0
C      1  0.4171720000000  0.4532980000000  0.4919620000000 1.0
C      1  0.5688390000000  0.5773840000000  0.4623410000000 1.0
C      1  0.4237620000000  0.5836040000000  0.4607650000000 1.0
C      1  0.4940640000000  0.5740490000000  0.5770440000000 1.0
C      1  0.4211420000000  0.5680140000000  0.4885740000000 1.0
C      1  0.5223500000000  0.5584520000000  0.5742400000000 1.0
C      1  0.5514830000000  0.5667530000000  0.4388360000000 1.0
C      1  0.4947850000000  0.4144150000000  0.4073060000000 1.0
C      1  0.4166060000000  0.4137180000000  0.5618800000000 1.0
C      1  0.5807570000000  0.4060340000000  0.5611390000000 1.0
C      1  0.4849810000000  0.4710790000000  0.5841200000000 1.0
C      1  0.5737850000000  0.4639160000000  0.4635520000000 1.0
C      1  0.4334970000000  0.4670520000000  0.4460960000000 1.0
C      1  0.5462150000000  0.4914530000000  0.5745100000000 1.0
C      1  0.5435640000000  0.5011340000000  0.4270520000000 1.0
C      1  0.4082520000000  0.4975520000000  0.5040730000000 1.0
C      1  0.5536320000000  0.4628230000000  0.5652620000000 1.0
C      1  0.5337700000000  0.4727760000000  0.4271260000000 1.0
C      1  0.4146310000000  0.4703630000000  0.5178680000000 1.0
C      1  0.5447310000000  0.5523650000000  0.4089880000000 1.0
C      1  0.4000510000000  0.5478390000000  0.5056720000000 1.0
C      1  0.5517490000000  0.5432940000000  0.5821300000000 1.0
C      1  0.4137890000000  0.4934580000000  0.4234910000000 1.0
C      1  0.4764880000000  0.4940520000000  0.6157400000000 1.0
C      1  0.6166990000000  0.4929900000000  0.4571540000000 1.0
C      1  0.5685810000000  0.5752790000000  0.5123860000000 1.0
C      1  0.4755430000000  0.5942240000000  0.4245530000000 1.0
C      1  0.4473680000000  0.5834730000000  0.5511620000000 1.0
C      1  0.4337470000000  0.4258120000000  0.4872840000000 1.0
C      1  0.5147410000000  0.4206550000000  0.5647650000000 1.0
C      1  0.5553450000000  0.4286020000000  0.4670550000000 1.0
C      1  0.6037960000000  0.4582750000000  0.5758130000000 1.0
C      1  0.5314820000000  0.4588180000000  0.3772140000000 1.0
C      1  0.3710790000000  0.4605030000000  0.5483490000000 1.0
C      1  0.4873820000000  0.5543150000000  0.5217000000000 1.0
C      1  0.5199690000000  0.5516840000000  0.4886640000000 1.0
C      1  0.4874230000000  0.5542580000000  0.4889350000000 1.0
C      1  0.5000310000000  0.4075540000000  0.5014320000000 1.0
C      1  0.5015760000000  0.4378280000000  0.5035180000000 1.0
END
