TITL C-2622961-1971-479 0.00163402438160078 125000 -474.837392161978 0 0 87 (C1) n - 1
REM
REM in /nfs/bkarasulu/CARBON/AIRSS/Generating-Clusters/AIREBO/with-SteepDescent/Higher-Symm/SD-CG/HFTN-CG
REM
REM
REM
REM
REM
REM ./C.cell (b20cbc046b6831c77cfcea5457e17084)
REM
REM compiler GCC version 9.2.1 20190827 (Red Hat 9.2.1-1)
REM options -cpp -mtune=generic -march=x86-64 -g -O0 -fpre-include=/usr/include/finclude/math-vector-fortran.h
REM seed 836863476 -244809334 -744246746 -1830313733 -1643093140 -1682959041 -2118854744 62408309 -637529651 -1772215264 -1414831151 -261746967 1991290689 1379317496 1905257053 -1088776878 2002168446 -1516404987 -589192327 -72732724 -1766867669 -128941325 -1642840883 680320701 989603334 -2122006999 -1588729146 -1467847893 -1276536270 1025591304 -1989609927 -626424954 -1798944386
REM
CELL 1.54180   50.00000   50.00000   50.00000   90.00000   90.00000   90.00000
LATT -1
SFAC C  
C      1  0.5415610000000  0.4897610000000  0.4333110000000 1.0
C      1  0.5574310000000  0.5600630000000  0.4734710000000 1.0
C      1  0.5433960000000  0.5456640000000  0.5478750000000 1.0
C      1  0.5503600000000  0.4639430000000  0.5608220000000 1.0
C      1  0.5536760000000  0.4351920000000  0.4892930000000 1.0
C      1  0.4507570000000  0.4908940000000  0.4318040000000 1.0
C      1  0.4480020000000  0.5614420000000  0.4692910000000 1.0
C      1  0.4529200000000  0.5473940000000  0.5547070000000 1.0
C      1  0.4527580000000  0.4719010000000  0.5521400000000 1.0
C      1  0.4498870000000  0.4334360000000  0.4859210000000 1.0
C      1  0.5222830000000  0.4419750000000  0.5004310000000 1.0
C      1  0.5206860000000  0.4735130000000  0.4547170000000 1.0
C      1  0.5294250000000  0.5476990000000  0.4623710000000 1.0
C      1  0.5142490000000  0.5449010000000  0.5205200000000 1.0
C      1  0.5155840000000  0.4923410000000  0.5503940000000 1.0
C      1  0.4887810000000  0.4463530000000  0.5055990000000 1.0
C      1  0.4735240000000  0.4843960000000  0.4571700000000 1.0
C      1  0.4775940000000  0.5360260000000  0.4599330000000 1.0
C      1  0.4811930000000  0.5468810000000  0.5252570000000 1.0
C      1  0.4821500000000  0.4863530000000  0.5487430000000 1.0
C      1  0.4433830000000  0.5687020000000  0.4980580000000 1.0
C      1  0.4471380000000  0.5195040000000  0.5680280000000 1.0
C      1  0.4516150000000  0.4478450000000  0.5367200000000 1.0
C      1  0.4461160000000  0.4476020000000  0.4580860000000 1.0
C      1  0.4504560000000  0.5216980000000  0.4334850000000 1.0
C      1  0.5514300000000  0.5663710000000  0.5007750000000 1.0
C      1  0.5421070000000  0.5202450000000  0.5612510000000 1.0
C      1  0.5549130000000  0.4438090000000  0.5395550000000 1.0
C      1  0.5508730000000  0.4456720000000  0.4624160000000 1.0
C      1  0.5483010000000  0.5213070000000  0.4380500000000 1.0
C      1  0.4768690000000  0.4169140000000  0.4934470000000 1.0
C      1  0.4795010000000  0.4738300000000  0.4256370000000 1.0
C      1  0.4756210000000  0.5697300000000  0.4561020000000 1.0
C      1  0.4834430000000  0.5601100000000  0.5565350000000 1.0
C      1  0.4917590000000  0.4833960000000  0.5812270000000 1.0
C      1  0.5081540000000  0.4114760000000  0.5056000000000 1.0
C      1  0.5103320000000  0.4790940000000  0.4228080000000 1.0
C      1  0.5039200000000  0.5622940000000  0.4461210000000 1.0
C      1  0.5162890000000  0.5611380000000  0.5503230000000 1.0
C      1  0.5223100000000  0.4727470000000  0.5775800000000 1.0
C      1  0.5675640000000  0.4494210000000  0.5139940000000 1.0
C      1  0.5604300000000  0.4714410000000  0.4549320000000 1.0
C      1  0.5659880000000  0.5320790000000  0.4586430000000 1.0
C      1  0.5601610000000  0.5492890000000  0.5219510000000 1.0
C      1  0.5550620000000  0.4956660000000  0.5558960000000 1.0
C      1  0.4424390000000  0.4504160000000  0.5091650000000 1.0
C      1  0.4347740000000  0.4751510000000  0.4544470000000 1.0
C      1  0.4379280000000  0.5351200000000  0.4552940000000 1.0
C      1  0.4407420000000  0.5514130000000  0.5268620000000 1.0
C      1  0.4354300000000  0.4966040000000  0.5534160000000 1.0
C      1  0.5219730000000  0.4652280000000  0.5329490000000 1.0
C      1  0.5230190000000  0.4737420000000  0.4886340000000 1.0
C      1  0.5177440000000  0.5069430000000  0.4601770000000 1.0
C      1  0.5245730000000  0.5305580000000  0.4914640000000 1.0
C      1  0.5220630000000  0.5121970000000  0.5268720000000 1.0
C      1  0.4865410000000  0.4762850000000  0.5191520000000 1.0
C      1  0.4756680000000  0.4633060000000  0.4796440000000 1.0
C      1  0.4879360000000  0.5090320000000  0.4681620000000 1.0
C      1  0.4755140000000  0.5434750000000  0.4919010000000 1.0
C      1  0.4741870000000  0.5177480000000  0.5386160000000 1.0
C      1  0.5148230000000  0.5170280000000  0.5730620000000 1.0
C      1  0.5292880000000  0.4261180000000  0.5296930000000 1.0
C      1  0.5228450000000  0.4405440000000  0.4528860000000 1.0
C      1  0.5285170000000  0.5464520000000  0.4284000000000 1.0
C      1  0.5232590000000  0.5729090000000  0.5037870000000 1.0
C      1  0.4686260000000  0.5071490000000  0.5889970000000 1.0
C      1  0.4774360000000  0.4356430000000  0.5358120000000 1.0
C      1  0.4713440000000  0.4469620000000  0.4434020000000 1.0
C      1  0.4780490000000  0.5312670000000  0.4274290000000 1.0
C      1  0.4686790000000  0.5762850000000  0.5136170000000 1.0
C      1  0.5530500000000  0.5167010000000  0.5220970000000 1.0
C      1  0.5493490000000  0.4830540000000  0.5254080000000 1.0
C      1  0.5556460000000  0.4745920000000  0.4944850000000 1.0
C      1  0.5487250000000  0.4987350000000  0.4715390000000 1.0
C      1  0.5578230000000  0.5240970000000  0.4904610000000 1.0
C      1  0.4499310000000  0.5239990000000  0.5156040000000 1.0
C      1  0.4387890000000  0.4969740000000  0.5243520000000 1.0
C      1  0.4524050000000  0.4789600000000  0.4989320000000 1.0
C      1  0.4359460000000  0.4937190000000  0.4763740000000 1.0
C      1  0.4483210000000  0.5244220000000  0.4843580000000 1.0
C      1  0.5048980000000  0.4424130000000  0.5419620000000 1.0
C      1  0.4948290000000  0.5714070000000  0.4970740000000 1.0
C      1  0.4869270000000  0.5208080000000  0.5684560000000 1.0
C      1  0.5066360000000  0.5239790000000  0.4353730000000 1.0
C      1  0.4946750000000  0.4420340000000  0.4610630000000 1.0
C      1  0.5115890000000  0.5000620000000  0.4990740000000 1.0
C      1  0.4798940000000  0.4989130000000  0.4972870000000 1.0
END
