TITL C-2622954-8726-83 -0.00331743185880743 125000 -249.612534890307 0 0 50 (C1) n - 1
REM
REM in /nfs/bkarasulu/CARBON/AIRSS/Generating-Clusters/AIREBO/with-SteepDescent/Higher-Symm/SD-CG/HFTN-CG
REM
REM
REM
REM
REM
REM ./C.cell (b20cbc046b6831c77cfcea5457e17084)
REM
REM compiler GCC version 9.2.1 20190827 (Red Hat 9.2.1-1)
REM options -cpp -mtune=generic -march=x86-64 -g -O0 -fpre-include=/usr/include/finclude/math-vector-fortran.h
REM seed 258980719 -1566527514 -903582875 1199749282 -1010154482 2128477391 -2086600768 868801998 2107766037 2107975000 961121579 -1547189530 -1081621151 -2065502199 -1732945204 -248465492 980375938 1656177780 44517940 321088762 -285017676 239657828 33521939 3035170 78340320 1080658085 -1119464216 -379242152 -850218708 -1119960836 -1399236420 1116343012 1587450904
REM
CELL 1.54180   50.00000   50.00000   50.00000   90.00000   90.00000   90.00000
LATT -1
SFAC C  
C      1  0.4982030000000  0.5517780000000  0.4354100000000 1.0
C      1  0.5323250000000  0.5036050000000  0.4181050000000 1.0
C      1  0.5083660000000  0.4216540000000  0.4573420000000 1.0
C      1  0.5257180000000  0.4103620000000  0.5067990000000 1.0
C      1  0.5332880000000  0.4746120000000  0.5913880000000 1.0
C      1  0.4995390000000  0.5457180000000  0.5693210000000 1.0
C      1  0.5260260000000  0.5934050000000  0.4975340000000 1.0
C      1  0.4828380000000  0.4662710000000  0.5073530000000 1.0
C      1  0.4698670000000  0.4853550000000  0.5273130000000 1.0
C      1  0.4805230000000  0.5154960000000  0.5303210000000 1.0
C      1  0.4668280000000  0.5312880000000  0.5081970000000 1.0
C      1  0.4825180000000  0.5274830000000  0.4782160000000 1.0
C      1  0.4678030000000  0.5003570000000  0.4675700000000 1.0
C      1  0.4824410000000  0.4729710000000  0.4740210000000 1.0
C      1  0.4795570000000  0.4466110000000  0.5492130000000 1.0
C      1  0.4890740000000  0.4891670000000  0.5737720000000 1.0
C      1  0.4962640000000  0.5620870000000  0.5264390000000 1.0
C      1  0.4876740000000  0.5596450000000  0.4823900000000 1.0
C      1  0.4776120000000  0.5009080000000  0.4198090000000 1.0
C      1  0.4965870000000  0.4640320000000  0.4437300000000 1.0
C      1  0.4745950000000  0.4377340000000  0.4908080000000 1.0
C      1  0.5533300000000  0.5229220000000  0.4696640000000 1.0
C      1  0.5397240000000  0.4950260000000  0.4706200000000 1.0
C      1  0.5449490000000  0.4786770000000  0.4989970000000 1.0
C      1  0.5450420000000  0.4804660000000  0.5258680000000 1.0
C      1  0.5508070000000  0.5052990000000  0.5382800000000 1.0
C      1  0.5600260000000  0.5283760000000  0.5259420000000 1.0
C      1  0.5559220000000  0.5413190000000  0.4965930000000 1.0
C      1  0.4630840000000  0.4693100000000  0.5488870000000 1.0
C      1  0.4752560000000  0.5057460000000  0.5612070000000 1.0
C      1  0.4691080000000  0.5600270000000  0.5191680000000 1.0
C      1  0.4699080000000  0.5779270000000  0.4767090000000 1.0
C      1  0.4598250000000  0.5031500000000  0.4377150000000 1.0
C      1  0.4670430000000  0.4504670000000  0.4536990000000 1.0
C      1  0.4581840000000  0.4181970000000  0.4908020000000 1.0
C      1  0.5337790000000  0.4624090000000  0.4742680000000 1.0
C      1  0.5126620000000  0.4328530000000  0.5049880000000 1.0
C      1  0.5255310000000  0.4676540000000  0.5413420000000 1.0
C      1  0.5283530000000  0.5106480000000  0.5550490000000 1.0
C      1  0.5319760000000  0.5450880000000  0.5205630000000 1.0
C      1  0.5299190000000  0.5466850000000  0.4753410000000 1.0
C      1  0.5216560000000  0.5084820000000  0.4486370000000 1.0
C      1  0.5047260000000  0.4472880000000  0.4752380000000 1.0
C      1  0.5045290000000  0.4510590000000  0.5286630000000 1.0
C      1  0.5191000000000  0.4833330000000  0.5689250000000 1.0
C      1  0.5070780000000  0.5337320000000  0.5417900000000 1.0
C      1  0.5163220000000  0.5665610000000  0.4993490000000 1.0
C      1  0.5072370000000  0.5340350000000  0.4586980000000 1.0
C      1  0.5041130000000  0.4880920000000  0.4288330000000 1.0
C      1  0.4473540000000  0.5131340000000  0.4895710000000 1.0
END
