TITL C-2622955-8511-370 0.00341027675845655 125000 -413.603545287016 0 0 73 (C1) n - 1
REM
REM in /nfs/bkarasulu/CARBON/AIRSS/Generating-Clusters/AIREBO/with-SteepDescent/Higher-Symm/SD-CG/HFTN-CG
REM
REM
REM
REM
REM
REM ./C.cell (b20cbc046b6831c77cfcea5457e17084)
REM
REM compiler GCC version 9.2.1 20190827 (Red Hat 9.2.1-1)
REM options -cpp -mtune=generic -march=x86-64 -g -O0 -fpre-include=/usr/include/finclude/math-vector-fortran.h
REM seed -361276191 -1814130644 -750127824 125795785 -1445785235 -695488328 -1593608825 1809563732 -1607008767 -2106066130 -1374340373 -111635169 -183132369 -737461865 1221128586 342467720 869632034 852929802 1648872612 -1642356237 1228362167 18595844 1168177169 -265182765 -1035366445 1371200573 -146968251 -1935437697 -1279076458 360080616 569695525 1628104016 1983668149
REM
CELL 1.54180   50.00000   50.00000   50.00000   90.00000   90.00000   90.00000
LATT -1
SFAC C  
C      1  0.5466360000000  0.5269370000000  0.4518900000000 1.0
C      1  0.4506020000000  0.5192660000000  0.4554920000000 1.0
C      1  0.5070970000000  0.4502030000000  0.4558510000000 1.0
C      1  0.5332350000000  0.4708820000000  0.4590910000000 1.0
C      1  0.4538770000000  0.4859900000000  0.4537670000000 1.0
C      1  0.5032840000000  0.5469840000000  0.4562220000000 1.0
C      1  0.4961400000000  0.4636920000000  0.4836470000000 1.0
C      1  0.5427800000000  0.5156980000000  0.4821440000000 1.0
C      1  0.4606490000000  0.5303430000000  0.4821480000000 1.0
C      1  0.4946210000000  0.5318270000000  0.4854000000000 1.0
C      1  0.5260780000000  0.4899320000000  0.4823020000000 1.0
C      1  0.4649060000000  0.4880140000000  0.4858660000000 1.0
C      1  0.4467980000000  0.4709510000000  0.5556880000000 1.0
C      1  0.5488560000000  0.4687130000000  0.5547990000000 1.0
C      1  0.5131290000000  0.5604200000000  0.5544550000000 1.0
C      1  0.4405960000000  0.5201840000000  0.5504220000000 1.0
C      1  0.5412260000000  0.5398240000000  0.5432940000000 1.0
C      1  0.5005990000000  0.4389610000000  0.5482270000000 1.0
C      1  0.5061250000000  0.5689960000000  0.4765880000000 1.0
C      1  0.4327400000000  0.4692520000000  0.4726970000000 1.0
C      1  0.5559070000000  0.4620690000000  0.4801070000000 1.0
C      1  0.5048390000000  0.4257180000000  0.4760340000000 1.0
C      1  0.4223930000000  0.5262230000000  0.4714390000000 1.0
C      1  0.5678640000000  0.5436890000000  0.4701440000000 1.0
C      1  0.5297250000000  0.5748580000000  0.4916240000000 1.0
C      1  0.4111300000000  0.4828730000000  0.4828420000000 1.0
C      1  0.5482170000000  0.4419030000000  0.4982790000000 1.0
C      1  0.5272350000000  0.4214650000000  0.4923860000000 1.0
C      1  0.4135420000000  0.5097890000000  0.4919310000000 1.0
C      1  0.5573130000000  0.5652420000000  0.4852070000000 1.0
C      1  0.5227080000000  0.4270860000000  0.5252660000000 1.0
C      1  0.5544240000000  0.5581600000000  0.5178840000000 1.0
C      1  0.4258810000000  0.5146590000000  0.5202310000000 1.0
C      1  0.5222770000000  0.5683240000000  0.5226500000000 1.0
C      1  0.5510320000000  0.4449140000000  0.5315130000000 1.0
C      1  0.4274420000000  0.4842450000000  0.5339810000000 1.0
C      1  0.5759870000000  0.4845440000000  0.4910460000000 1.0
C      1  0.4813120000000  0.5614690000000  0.4963120000000 1.0
C      1  0.4533260000000  0.4573600000000  0.4950260000000 1.0
C      1  0.5736170000000  0.5168610000000  0.4912490000000 1.0
C      1  0.4775910000000  0.4367470000000  0.4928020000000 1.0
C      1  0.4495900000000  0.5559470000000  0.4982870000000 1.0
C      1  0.5330870000000  0.4839570000000  0.5132980000000 1.0
C      1  0.4992470000000  0.5296770000000  0.5190210000000 1.0
C      1  0.4764970000000  0.4864330000000  0.5178020000000 1.0
C      1  0.5286880000000  0.5168540000000  0.5115460000000 1.0
C      1  0.5048680000000  0.4718350000000  0.5135090000000 1.0
C      1  0.4680720000000  0.5182120000000  0.5117580000000 1.0
C      1  0.5662530000000  0.5167940000000  0.5448820000000 1.0
C      1  0.4542230000000  0.5503760000000  0.5481770000000 1.0
C      1  0.4715100000000  0.4251890000000  0.5442040000000 1.0
C      1  0.5701030000000  0.4893970000000  0.5456780000000 1.0
C      1  0.4486940000000  0.4411360000000  0.5449740000000 1.0
C      1  0.4796630000000  0.5617640000000  0.5481140000000 1.0
C      1  0.5266860000000  0.5095850000000  0.5447090000000 1.0
C      1  0.4731420000000  0.5152540000000  0.5453000000000 1.0
C      1  0.4996780000000  0.4686640000000  0.5450770000000 1.0
C      1  0.5242370000000  0.4825260000000  0.5557180000000 1.0
C      1  0.4731400000000  0.4841250000000  0.5514460000000 1.0
C      1  0.5020840000000  0.5290600000000  0.5523270000000 1.0
C      1  0.4369710000000  0.4565950000000  0.5204490000000 1.0
C      1  0.5615680000000  0.4742200000000  0.5176670000000 1.0
C      1  0.4913780000000  0.5712250000000  0.5229160000000 1.0
C      1  0.4371740000000  0.5467890000000  0.5219570000000 1.0
C      1  0.5721410000000  0.5312700000000  0.5195120000000 1.0
C      1  0.4894980000000  0.4217510000000  0.5173860000000 1.0
C      1  0.4784360000000  0.4833870000000  0.4319070000000 1.0
C      1  0.5280190000000  0.4873550000000  0.4310250000000 1.0
C      1  0.5015210000000  0.5273140000000  0.4365570000000 1.0
C      1  0.4767950000000  0.5130750000000  0.4355510000000 1.0
C      1  0.5276650000000  0.5154440000000  0.4336590000000 1.0
C      1  0.5030170000000  0.4709290000000  0.4329830000000 1.0
C      1  0.4958110000000  0.4977550000000  0.4844860000000 1.0
END
