TITL C-2622968-4806-441 1670.2947795541 125000 -1027.87694514671 0 0 184 (C1) n - 1
REM
REM in /nfs/bkarasulu/CARBON/AIRSS/Generating-Clusters/AIREBO/with-SteepDescent/Higher-Symm/SD-CG/HFTN-CG
REM
REM
REM
REM
REM
REM ./C.cell (b20cbc046b6831c77cfcea5457e17084)
REM
REM compiler GCC version 9.2.1 20190827 (Red Hat 9.2.1-1)
REM options -cpp -mtune=generic -march=x86-64 -g -O0 -fpre-include=/usr/include/finclude/math-vector-fortran.h
REM seed -1433617163 -715483908 -1577725011 -1801336733 549259796 -1369752464 936949152 1490627147 -621778030 -2124173873 507416136 -2012969601 -2117005561 1982637842 517635411 -859238375 1414619204 1115774936 -246685216 -1439916095 -1159921823 1089610782 1690305808 1499282159 -1263804053 2138834019 -1166928035 -1568434890 681842708 1805652865 -855455303 -381312842 193666915
REM
CELL 1.54180   50.00000   50.00000   50.00000   90.00000   90.00000   90.00000
LATT -1
SFAC C  
C      1  0.4501130000000  0.5410680000000  0.4381220000000 1.0
C      1  0.5412120000000  0.5400990000000  0.4513440000000 1.0
C      1  0.5776850000000  0.5535570000000  0.5283840000000 1.0
C      1  0.5021400000000  0.5416070000000  0.5735120000000 1.0
C      1  0.4238890000000  0.5577160000000  0.5228350000000 1.0
C      1  0.4541680000000  0.4558930000000  0.4380340000000 1.0
C      1  0.5493540000000  0.4493270000000  0.4342910000000 1.0
C      1  0.5743660000000  0.4483790000000  0.5286400000000 1.0
C      1  0.5032830000000  0.4569960000000  0.5719130000000 1.0
C      1  0.4378950000000  0.4520700000000  0.5165970000000 1.0
C      1  0.5245120000000  0.5970070000000  0.4354080000000 1.0
C      1  0.5595980000000  0.6033690000000  0.5055700000000 1.0
C      1  0.5012800000000  0.5908490000000  0.5612780000000 1.0
C      1  0.4526410000000  0.6016910000000  0.5357780000000 1.0
C      1  0.4541270000000  0.6004290000000  0.4699180000000 1.0
C      1  0.5149050000000  0.3946220000000  0.4410070000000 1.0
C      1  0.5473070000000  0.3949420000000  0.5007830000000 1.0
C      1  0.5058590000000  0.4107030000000  0.5570530000000 1.0
C      1  0.4507500000000  0.4007090000000  0.5300760000000 1.0
C      1  0.4621470000000  0.4092300000000  0.4539720000000 1.0
C      1  0.5255000000000  0.5385690000000  0.5980470000000 1.0
C      1  0.4153610000000  0.5429200000000  0.5505790000000 1.0
C      1  0.4215360000000  0.5446450000000  0.4484680000000 1.0
C      1  0.5423850000000  0.5350080000000  0.4177430000000 1.0
C      1  0.5991160000000  0.5380690000000  0.5210900000000 1.0
C      1  0.5277540000000  0.4679670000000  0.5928600000000 1.0
C      1  0.4162000000000  0.4631500000000  0.5403930000000 1.0
C      1  0.4243130000000  0.4541390000000  0.4409980000000 1.0
C      1  0.5300040000000  0.4432610000000  0.4102870000000 1.0
C      1  0.5920480000000  0.4455610000000  0.5026710000000 1.0
C      1  0.5958710000000  0.5388580000000  0.5606990000000 1.0
C      1  0.4770910000000  0.5307280000000  0.6027040000000 1.0
C      1  0.3868540000000  0.5325610000000  0.5105880000000 1.0
C      1  0.4553200000000  0.5381220000000  0.3975180000000 1.0
C      1  0.5794660000000  0.5386660000000  0.4316970000000 1.0
C      1  0.5945650000000  0.4704940000000  0.5548590000000 1.0
C      1  0.4832480000000  0.4678880000000  0.6045680000000 1.0
C      1  0.3960750000000  0.4665840000000  0.5135580000000 1.0
C      1  0.4522170000000  0.4691040000000  0.4004890000000 1.0
C      1  0.5790090000000  0.4760060000000  0.4335960000000 1.0
C      1  0.3964720000000  0.4907410000000  0.5377590000000 1.0
C      1  0.4303060000000  0.4850970000000  0.4091130000000 1.0
C      1  0.5640230000000  0.4895130000000  0.4147900000000 1.0
C      1  0.6063800000000  0.4862710000000  0.5344340000000 1.0
C      1  0.5065130000000  0.4909520000000  0.6066690000000 1.0
C      1  0.3945250000000  0.5191950000000  0.5378530000000 1.0
C      1  0.4318360000000  0.5143220000000  0.4011450000000 1.0
C      1  0.5660300000000  0.5178870000000  0.4117660000000 1.0
C      1  0.6111050000000  0.5155150000000  0.5411410000000 1.0
C      1  0.5025190000000  0.5192450000000  0.6083380000000 1.0
C      1  0.3761820000000  0.5078110000000  0.4538490000000 1.0
C      1  0.5014090000000  0.5104040000000  0.3863740000000 1.0
C      1  0.6051430000000  0.5166330000000  0.4705340000000 1.0
C      1  0.5778850000000  0.5123980000000  0.5810840000000 1.0
C      1  0.4344580000000  0.5046130000000  0.5812260000000 1.0
C      1  0.3908180000000  0.4817760000000  0.4621400000000 1.0
C      1  0.5141470000000  0.4831900000000  0.3882950000000 1.0
C      1  0.6170460000000  0.4852310000000  0.4759730000000 1.0
C      1  0.5819560000000  0.4816350000000  0.5902430000000 1.0
C      1  0.4247620000000  0.4781830000000  0.5844970000000 1.0
C      1  0.4675980000000  0.4420550000000  0.4134020000000 1.0
C      1  0.5753100000000  0.4477410000000  0.4485830000000 1.0
C      1  0.5761060000000  0.4427560000000  0.5621310000000 1.0
C      1  0.4793450000000  0.4418540000000  0.5854420000000 1.0
C      1  0.4135810000000  0.4458390000000  0.4941400000000 1.0
C      1  0.4613200000000  0.5608330000000  0.4159070000000 1.0
C      1  0.5641420000000  0.5634320000000  0.4442650000000 1.0
C      1  0.5691520000000  0.5599320000000  0.5588720000000 1.0
C      1  0.4780140000000  0.5581790000000  0.5880800000000 1.0
C      1  0.4051350000000  0.5544500000000  0.5021510000000 1.0
C      1  0.4815810000000  0.4135830000000  0.5708380000000 1.0
C      1  0.4458280000000  0.4059960000000  0.4985110000000 1.0
C      1  0.4702860000000  0.4122720000000  0.4272030000000 1.0
C      1  0.5383210000000  0.3961370000000  0.4701530000000 1.0
C      1  0.5559740000000  0.4233840000000  0.5427480000000 1.0
C      1  0.4773620000000  0.5838280000000  0.5751640000000 1.0
C      1  0.4466960000000  0.5990790000000  0.5023760000000 1.0
C      1  0.4778840000000  0.5804970000000  0.4268780000000 1.0
C      1  0.5401860000000  0.5851550000000  0.4547670000000 1.0
C      1  0.5491170000000  0.5860660000000  0.5487960000000 1.0
C      1  0.5326340000000  0.4147880000000  0.5660040000000 1.0
C      1  0.4558350000000  0.4084340000000  0.5560550000000 1.0
C      1  0.4397370000000  0.4102500000000  0.4714810000000 1.0
C      1  0.4984010000000  0.4034320000000  0.4210170000000 1.0
C      1  0.5673100000000  0.4075280000000  0.4789360000000 1.0
C      1  0.5274380000000  0.5891990000000  0.5711240000000 1.0
C      1  0.4521270000000  0.5877940000000  0.5606570000000 1.0
C      1  0.4243890000000  0.5924390000000  0.4775320000000 1.0
C      1  0.5057510000000  0.5806110000000  0.4216490000000 1.0
C      1  0.5746560000000  0.5901300000000  0.4867180000000 1.0
C      1  0.4728130000000  0.5836050000000  0.5162800000000 1.0
C      1  0.4746100000000  0.5827390000000  0.4582340000000 1.0
C      1  0.5272510000000  0.5800680000000  0.4854000000000 1.0
C      1  0.5338940000000  0.5853910000000  0.5183840000000 1.0
C      1  0.5017790000000  0.5836810000000  0.5299080000000 1.0
C      1  0.4783230000000  0.4111850000000  0.5071460000000 1.0
C      1  0.4849260000000  0.4167710000000  0.4748530000000 1.0
C      1  0.5136210000000  0.4157720000000  0.4665890000000 1.0
C      1  0.5353300000000  0.4134490000000  0.5200020000000 1.0
C      1  0.5043000000000  0.4206120000000  0.5270940000000 1.0
C      1  0.5133690000000  0.4775720000000  0.4700600000000 1.0
C      1  0.5340840000000  0.4788260000000  0.5142590000000 1.0
C      1  0.5013290000000  0.4816220000000  0.5215290000000 1.0
C      1  0.4684860000000  0.4847600000000  0.5132660000000 1.0
C      1  0.4741810000000  0.4892890000000  0.4800180000000 1.0
C      1  0.5082980000000  0.5089270000000  0.4746360000000 1.0
C      1  0.5246620000000  0.5062110000000  0.5005500000000 1.0
C      1  0.5000510000000  0.5155980000000  0.5222380000000 1.0
C      1  0.4698780000000  0.5245010000000  0.5094170000000 1.0
C      1  0.4790510000000  0.5214120000000  0.4800490000000 1.0
C      1  0.4432490000000  0.5607680000000  0.5570800000000 1.0
C      1  0.4172370000000  0.5635430000000  0.4748370000000 1.0
C      1  0.5152550000000  0.5530300000000  0.4238900000000 1.0
C      1  0.5680380000000  0.5652810000000  0.4754710000000 1.0
C      1  0.5398390000000  0.5595270000000  0.5767210000000 1.0
C      1  0.4526400000000  0.4401940000000  0.5642300000000 1.0
C      1  0.4183810000000  0.4327850000000  0.4646740000000 1.0
C      1  0.5010560000000  0.4354380000000  0.4169130000000 1.0
C      1  0.5737710000000  0.4369420000000  0.4780050000000 1.0
C      1  0.5444020000000  0.4445730000000  0.5744390000000 1.0
C      1  0.5743460000000  0.5067740000000  0.5222450000000 1.0
C      1  0.4950190000000  0.5152760000000  0.5551690000000 1.0
C      1  0.4413180000000  0.5132950000000  0.5199350000000 1.0
C      1  0.4529230000000  0.5121980000000  0.4278530000000 1.0
C      1  0.5451640000000  0.5068360000000  0.4455030000000 1.0
C      1  0.5623320000000  0.4781150000000  0.5276350000000 1.0
C      1  0.5062900000000  0.4888260000000  0.5658850000000 1.0
C      1  0.4351700000000  0.4831200000000  0.5103930000000 1.0
C      1  0.4631790000000  0.4867310000000  0.4479360000000 1.0
C      1  0.5324810000000  0.4772270000000  0.4419110000000 1.0
C      1  0.5232100000000  0.4455670000000  0.4641490000000 1.0
C      1  0.5353190000000  0.4454030000000  0.5155970000000 1.0
C      1  0.5024910000000  0.4520460000000  0.5382730000000 1.0
C      1  0.4695590000000  0.4439310000000  0.5099070000000 1.0
C      1  0.4719240000000  0.4462690000000  0.4653890000000 1.0
C      1  0.5204620000000  0.5491820000000  0.4767200000000 1.0
C      1  0.5450390000000  0.5532870000000  0.5195980000000 1.0
C      1  0.5019310000000  0.5517840000000  0.5410440000000 1.0
C      1  0.4549540000000  0.5547170000000  0.5139530000000 1.0
C      1  0.4710810000000  0.5489290000000  0.4617280000000 1.0
C      1  0.5858350000000  0.4828120000000  0.4644790000000 1.0
C      1  0.5638020000000  0.4805890000000  0.5615140000000 1.0
C      1  0.4762830000000  0.4891640000000  0.5806210000000 1.0
C      1  0.4092050000000  0.4851160000000  0.4882510000000 1.0
C      1  0.4848500000000  0.4782150000000  0.4023540000000 1.0
C      1  0.5784040000000  0.5124540000000  0.4500650000000 1.0
C      1  0.5722530000000  0.5193460000000  0.5482710000000 1.0
C      1  0.4595540000000  0.5110740000000  0.5924520000000 1.0
C      1  0.4127030000000  0.5152620000000  0.5026390000000 1.0
C      1  0.4708650000000  0.5085890000000  0.4012160000000 1.0
C      1  0.4633240000000  0.5153870000000  0.5529740000000 1.0
C      1  0.4295480000000  0.5177210000000  0.4764030000000 1.0
C      1  0.5117550000000  0.5113610000000  0.4410030000000 1.0
C      1  0.5552260000000  0.5132380000000  0.4974290000000 1.0
C      1  0.5445270000000  0.5168990000000  0.5595570000000 1.0
C      1  0.4713170000000  0.4840700000000  0.5473000000000 1.0
C      1  0.4363450000000  0.4865470000000  0.4680770000000 1.0
C      1  0.4937290000000  0.4838140000000  0.4346530000000 1.0
C      1  0.5649510000000  0.4820440000000  0.4880160000000 1.0
C      1  0.5335270000000  0.4888700000000  0.5531990000000 1.0
C      1  0.5015860000000  0.5421530000000  0.4518250000000 1.0
C      1  0.5576580000000  0.5441420000000  0.4904820000000 1.0
C      1  0.5338950000000  0.5436720000000  0.5493380000000 1.0
C      1  0.4686630000000  0.5452060000000  0.5435820000000 1.0
C      1  0.4450560000000  0.5460890000000  0.4825770000000 1.0
C      1  0.4971430000000  0.4527500000000  0.4435160000000 1.0
C      1  0.5464650000000  0.4535490000000  0.4861640000000 1.0
C      1  0.5348600000000  0.4570260000000  0.5474130000000 1.0
C      1  0.4691240000000  0.4534940000000  0.5414500000000 1.0
C      1  0.4412930000000  0.4554610000000  0.4769490000000 1.0
C      1  0.4316110000000  0.5160960000000  0.5522390000000 1.0
C      1  0.4093250000000  0.5147420000000  0.4497770000000 1.0
C      1  0.5057900000000  0.5254110000000  0.4106190000000 1.0
C      1  0.6011070000000  0.5122230000000  0.5019660000000 1.0
C      1  0.5466310000000  0.5184180000000  0.5907090000000 1.0
C      1  0.4275250000000  0.4573070000000  0.5671860000000 1.0
C      1  0.4123190000000  0.4838440000000  0.4358790000000 1.0
C      1  0.5356880000000  0.4758120000000  0.4080340000000 1.0
C      1  0.5952270000000  0.4787450000000  0.5031440000000 1.0
C      1  0.5517120000000  0.4880560000000  0.5988800000000 1.0
C      1  0.5141810000000  0.5436070000000  0.5091040000000 1.0
C      1  0.4892860000000  0.4616180000000  0.4885750000000 1.0
C      1  0.4863650000000  0.3807260000000  0.5058400000000 1.0
C      1  0.5026020000000  0.5923210000000  0.4685330000000 1.0
END
