TITL C-2622960-5345-143 -0.000831440214157312 125000 -795.248042910216 0 0 161 (C1) n - 1
REM
REM in /nfs/bkarasulu/CARBON/AIRSS/Generating-Clusters/AIREBO/with-SteepDescent/Higher-Symm/SD-CG/HFTN-CG
REM
REM
REM
REM
REM
REM ./C.cell (b20cbc046b6831c77cfcea5457e17084)
REM
REM compiler GCC version 9.2.1 20190827 (Red Hat 9.2.1-1)
REM options -cpp -mtune=generic -march=x86-64 -g -O0 -fpre-include=/usr/include/finclude/math-vector-fortran.h
REM seed -607144820 -1352960585 155087960 1578730457 -137215007 772075532 777149916 -1083053138 601971500 143905978 -927023329 2119330794 -219325649 -646959241 1072347880 -2144309436 962964738 895708642 -123761999 2112691138 -1002105142 -1217395340 939541924 -1106574145 -1859081117 541341124 319016284 1756316390 -1937018244 1345229067 -869087032 1182303428 100174293
REM
CELL 1.54180   50.00000   50.00000   50.00000   90.00000   90.00000   90.00000
LATT -1
SFAC C  
C      1  0.5121820000000  0.5437750000000  0.5939020000000 1.0
C      1  0.5894850000000  0.5187880000000  0.5324460000000 1.0
C      1  0.5357030000000  0.5882290000000  0.5279320000000 1.0
C      1  0.4649160000000  0.5445440000000  0.4172120000000 1.0
C      1  0.5230200000000  0.4639640000000  0.4120880000000 1.0
C      1  0.4760950000000  0.4656500000000  0.5924510000000 1.0
C      1  0.4159790000000  0.5324350000000  0.4560410000000 1.0
C      1  0.5905890000000  0.4785250000000  0.4603540000000 1.0
C      1  0.4133940000000  0.4688030000000  0.5328380000000 1.0
C      1  0.4556420000000  0.5812070000000  0.4666860000000 1.0
C      1  0.5396520000000  0.4035260000000  0.4878570000000 1.0
C      1  0.4704180000000  0.4096660000000  0.5213440000000 1.0
C      1  0.5843620000000  0.4338090000000  0.5226390000000 1.0
C      1  0.5359360000000  0.5862260000000  0.4376150000000 1.0
C      1  0.4310940000000  0.5295070000000  0.5717980000000 1.0
C      1  0.4151560000000  0.4362880000000  0.4548810000000 1.0
C      1  0.5721430000000  0.5648790000000  0.4660180000000 1.0
C      1  0.4147830000000  0.5622500000000  0.5360810000000 1.0
C      1  0.4545040000000  0.5809520000000  0.5559000000000 1.0
C      1  0.5289440000000  0.4239740000000  0.5792820000000 1.0
C      1  0.4603440000000  0.4324420000000  0.4336070000000 1.0
C      1  0.5614490000000  0.5407080000000  0.4199390000000 1.0
C      1  0.4394710000000  0.4669280000000  0.4102880000000 1.0
C      1  0.5691190000000  0.4630870000000  0.5681160000000 1.0
C      1  0.5026390000000  0.5370780000000  0.4760360000000 1.0
C      1  0.4749900000000  0.5068920000000  0.5307080000000 1.0
C      1  0.5169320000000  0.4856540000000  0.4972910000000 1.0
C      1  0.4981690000000  0.5294280000000  0.5237570000000 1.0
C      1  0.5087240000000  0.4694770000000  0.5260560000000 1.0
C      1  0.5100010000000  0.4670030000000  0.4731300000000 1.0
C      1  0.5297740000000  0.5095870000000  0.4657170000000 1.0
C      1  0.4774640000000  0.5011910000000  0.4663300000000 1.0
C      1  0.5248060000000  0.4946910000000  0.5376140000000 1.0
C      1  0.4738230000000  0.4825710000000  0.4956470000000 1.0
C      1  0.5302880000000  0.5256480000000  0.4921920000000 1.0
C      1  0.4639230000000  0.5243730000000  0.5037170000000 1.0
C      1  0.4074830000000  0.4288230000000  0.5011270000000 1.0
C      1  0.4918770000000  0.3998850000000  0.4535270000000 1.0
C      1  0.4378520000000  0.5081260000000  0.3969040000000 1.0
C      1  0.5959790000000  0.4452850000000  0.5004580000000 1.0
C      1  0.3883760000000  0.5450640000000  0.4933600000000 1.0
C      1  0.6030600000000  0.5598030000000  0.5080380000000 1.0
C      1  0.4832480000000  0.3957480000000  0.5632100000000 1.0
C      1  0.5050230000000  0.6015290000000  0.5645720000000 1.0
C      1  0.4912520000000  0.6044180000000  0.4403580000000 1.0
C      1  0.5583310000000  0.5098080000000  0.6037910000000 1.0
C      1  0.4358320000000  0.4949100000000  0.5997210000000 1.0
C      1  0.5626540000000  0.4928210000000  0.3976330000000 1.0
C      1  0.6012970000000  0.4879920000000  0.5397520000000 1.0
C      1  0.5514460000000  0.5966640000000  0.4981400000000 1.0
C      1  0.4912250000000  0.5627450000000  0.6110300000000 1.0
C      1  0.4055000000000  0.5015130000000  0.4464960000000 1.0
C      1  0.6009920000000  0.5027810000000  0.4389060000000 1.0
C      1  0.4025780000000  0.4964650000000  0.5494780000000 1.0
C      1  0.4524100000000  0.6008450000000  0.4910900000000 1.0
C      1  0.5519110000000  0.3986950000000  0.5127220000000 1.0
C      1  0.4490380000000  0.3992790000000  0.4992000000000 1.0
C      1  0.4898730000000  0.5465660000000  0.3982000000000 1.0
C      1  0.4972830000000  0.4456490000000  0.4032920000000 1.0
C      1  0.5050970000000  0.4565930000000  0.6064950000000 1.0
C      1  0.5410950000000  0.4387980000000  0.5065830000000 1.0
C      1  0.5101220000000  0.5357100000000  0.4428920000000 1.0
C      1  0.4420110000000  0.5075160000000  0.5321870000000 1.0
C      1  0.4731860000000  0.4513610000000  0.4960060000000 1.0
C      1  0.5319440000000  0.5582770000000  0.4925240000000 1.0
C      1  0.4661910000000  0.5565300000000  0.5078140000000 1.0
C      1  0.4928040000000  0.5306400000000  0.5573310000000 1.0
C      1  0.5084700000000  0.4663480000000  0.5599130000000 1.0
C      1  0.4926150000000  0.4718070000000  0.4442050000000 1.0
C      1  0.5613830000000  0.5053260000000  0.4658530000000 1.0
C      1  0.4473660000000  0.4894240000000  0.4666230000000 1.0
C      1  0.5542710000000  0.4909720000000  0.5312770000000 1.0
C      1  0.5348840000000  0.5253960000000  0.4219820000000 1.0
C      1  0.4227250000000  0.5342700000000  0.5236840000000 1.0
C      1  0.5232410000000  0.4191120000000  0.5523730000000 1.0
C      1  0.4631710000000  0.5242130000000  0.5729270000000 1.0
C      1  0.5387680000000  0.4717510000000  0.5737030000000 1.0
C      1  0.4667610000000  0.4789920000000  0.4233170000000 1.0
C      1  0.5764610000000  0.5344820000000  0.4747420000000 1.0
C      1  0.4334360000000  0.4587830000000  0.4714670000000 1.0
C      1  0.5639980000000  0.4609880000000  0.5184550000000 1.0
C      1  0.4611950000000  0.4396960000000  0.4666010000000 1.0
C      1  0.5221460000000  0.5764050000000  0.4654150000000 1.0
C      1  0.4743610000000  0.5775380000000  0.5332920000000 1.0
C      1  0.4379730000000  0.5816120000000  0.4425460000000 1.0
C      1  0.4289870000000  0.4517550000000  0.5679670000000 1.0
C      1  0.5622890000000  0.4238980000000  0.4474200000000 1.0
C      1  0.5482600000000  0.5653510000000  0.5726360000000 1.0
C      1  0.4528300000000  0.4302500000000  0.5726570000000 1.0
C      1  0.5399740000000  0.4288050000000  0.4255010000000 1.0
C      1  0.5662590000000  0.4493540000000  0.4284510000000 1.0
C      1  0.4399270000000  0.5608140000000  0.4185720000000 1.0
C      1  0.5723040000000  0.5442250000000  0.5681050000000 1.0
C      1  0.4342050000000  0.4281260000000  0.5463220000000 1.0
C      1  0.5690320000000  0.5690690000000  0.5478330000000 1.0
C      1  0.4167000000000  0.5577800000000  0.4406270000000 1.0
C      1  0.4458570000000  0.5546560000000  0.4839450000000 1.0
C      1  0.4808560000000  0.4470240000000  0.5644010000000 1.0
C      1  0.5600570000000  0.4781950000000  0.4453650000000 1.0
C      1  0.5528190000000  0.5601400000000  0.5193080000000 1.0
C      1  0.4521020000000  0.4382360000000  0.5192360000000 1.0
C      1  0.5497590000000  0.4305060000000  0.4747560000000 1.0
C      1  0.5141440000000  0.4459130000000  0.4395180000000 1.0
C      1  0.4828120000000  0.5515410000000  0.4433760000000 1.0
C      1  0.5188790000000  0.5519430000000  0.5621280000000 1.0
C      1  0.4389560000000  0.4801710000000  0.5521700000000 1.0
C      1  0.5612980000000  0.5174500000000  0.5514180000000 1.0
C      1  0.4429770000000  0.5150010000000  0.4491220000000 1.0
C      1  0.5776480000000  0.5396450000000  0.5083370000000 1.0
C      1  0.5071630000000  0.5775060000000  0.5430070000000 1.0
C      1  0.5455650000000  0.5032610000000  0.5770900000000 1.0
C      1  0.4192110000000  0.5343750000000  0.4898480000000 1.0
C      1  0.5773860000000  0.4696230000000  0.4884120000000 1.0
C      1  0.4264590000000  0.4550960000000  0.5045700000000 1.0
C      1  0.4887480000000  0.5785250000000  0.4592700000000 1.0
C      1  0.4932950000000  0.4298210000000  0.4611240000000 1.0
C      1  0.4921830000000  0.4219620000000  0.5443940000000 1.0
C      1  0.4580490000000  0.5118170000000  0.4216030000000 1.0
C      1  0.5403540000000  0.4917740000000  0.4211870000000 1.0
C      1  0.4594120000000  0.4906890000000  0.5772180000000 1.0
C      1  0.5261870000000  0.4490560000000  0.5912810000000 1.0
C      1  0.6003710000000  0.5167910000000  0.4649330000000 1.0
C      1  0.4721600000000  0.5982660000000  0.5094400000000 1.0
C      1  0.4742900000000  0.4487030000000  0.4171910000000 1.0
C      1  0.5135200000000  0.5415520000000  0.4035020000000 1.0
C      1  0.4795730000000  0.5354410000000  0.5971250000000 1.0
C      1  0.4118170000000  0.5224360000000  0.5530530000000 1.0
C      1  0.5834240000000  0.4677240000000  0.5455390000000 1.0
C      1  0.4084280000000  0.4808520000000  0.4647330000000 1.0
C      1  0.5543520000000  0.5844200000000  0.4728570000000 1.0
C      1  0.4479470000000  0.4109970000000  0.4771240000000 1.0
C      1  0.5412190000000  0.4178680000000  0.5321500000000 1.0
C      1  0.4972670000000  0.5050730000000  0.4032230000000 1.0
C      1  0.3936700000000  0.4837370000000  0.5127720000000 1.0
C      1  0.5108520000000  0.4027680000000  0.4896600000000 1.0
C      1  0.5029020000000  0.5113690000000  0.5995770000000 1.0
C      1  0.4952230000000  0.4859930000000  0.6119650000000 1.0
C      1  0.5123160000000  0.4879050000000  0.3929840000000 1.0
C      1  0.6072300000000  0.4957130000000  0.4847070000000 1.0
C      1  0.4059830000000  0.4926440000000  0.4909770000000 1.0
C      1  0.6076240000000  0.4999540000000  0.5109620000000 1.0
C      1  0.4883970000000  0.3926470000000  0.4999040000000 1.0
C      1  0.5228960000000  0.6075260000000  0.5052460000000 1.0
C      1  0.4986790000000  0.5990140000000  0.4974920000000 1.0
C      1  0.4465680000000  0.4816190000000  0.5115130000000 1.0
C      1  0.5124170000000  0.4367100000000  0.4883970000000 1.0
C      1  0.4889630000000  0.5105850000000  0.4357310000000 1.0
C      1  0.5494190000000  0.4873820000000  0.4921400000000 1.0
C      1  0.4369460000000  0.5066000000000  0.4926140000000 1.0
C      1  0.5541090000000  0.5157790000000  0.5091530000000 1.0
C      1  0.4960230000000  0.4423480000000  0.5174320000000 1.0
C      1  0.5101030000000  0.5559930000000  0.5173080000000 1.0
C      1  0.4929020000000  0.5661980000000  0.4906910000000 1.0
C      1  0.5129530000000  0.5052760000000  0.5676730000000 1.0
C      1  0.4850810000000  0.4905500000000  0.5549170000000 1.0
C      1  0.5168850000000  0.4943430000000  0.4448610000000 1.0
C      1  0.4632230000000  0.4604300000000  0.5407280000000 1.0
C      1  0.4575350000000  0.5408700000000  0.4584910000000 1.0
C      1  0.5383890000000  0.4568830000000  0.4606950000000 1.0
C      1  0.5380440000000  0.5371780000000  0.5388770000000 1.0
C      1  0.4935730000000  0.5102510000000  0.4948850000000 1.0
END
