TITL C-2622956-4641-216 0.000265301606444962 125000 -144.698208165937 0 0 28 (C1) n - 1
REM
REM in /nfs/bkarasulu/CARBON/AIRSS/Generating-Clusters/AIREBO/with-SteepDescent/Higher-Symm/SD-CG/HFTN-CG
REM
REM
REM
REM
REM
REM ./C.cell (b20cbc046b6831c77cfcea5457e17084)
REM
REM compiler GCC version 9.2.1 20190827 (Red Hat 9.2.1-1)
REM options -cpp -mtune=generic -march=x86-64 -g -O0 -fpre-include=/usr/include/finclude/math-vector-fortran.h
REM seed -867194831 -213834898 -237492833 -1433908986 -607460299 1171034288 339023375 372937796 -1875246141 2111950055 -1120436210 806592624 -314452414 1872807022 -1597199479 1975980160 -1224751805 -1138363837 1709167454 -1554051551 1306843412 -723960506 -364641212 -1309295640 -319225495 -1019369137 891195022 -1169554697 166232407 1855755714 848778027 -215250950 -1944078544
REM
CELL 1.54180   50.00000   50.00000   50.00000   90.00000   90.00000   90.00000
LATT -1
SFAC C  
C      1  0.4710470000000  0.4948550000000  0.4409360000000 1.0
C      1  0.4358190000000  0.5019030000000  0.5604760000000 1.0
C      1  0.4693650000000  0.5180260000000  0.4651660000000 1.0
C      1  0.4473910000000  0.4759150000000  0.5418520000000 1.0
C      1  0.4781010000000  0.4687830000000  0.4921110000000 1.0
C      1  0.4705200000000  0.5135060000000  0.5173090000000 1.0
C      1  0.4849470000000  0.5249060000000  0.4890800000000 1.0
C      1  0.4711980000000  0.4820650000000  0.5185310000000 1.0
C      1  0.4182340000000  0.4914430000000  0.5332770000000 1.0
C      1  0.4422690000000  0.4993860000000  0.4587710000000 1.0
C      1  0.4428900000000  0.5138290000000  0.5302950000000 1.0
C      1  0.4663210000000  0.4785120000000  0.4699740000000 1.0
C      1  0.5799700000000  0.4903620000000  0.4672240000000 1.0
C      1  0.5557040000000  0.4959710000000  0.5066800000000 1.0
C      1  0.5542750000000  0.5015590000000  0.4598050000000 1.0
C      1  0.5808270000000  0.4870210000000  0.4953190000000 1.0
C      1  0.4860550000000  0.5399620000000  0.5257640000000 1.0
C      1  0.4982170000000  0.4492050000000  0.4941920000000 1.0
C      1  0.4737100000000  0.4574110000000  0.5409950000000 1.0
C      1  0.4866460000000  0.5567590000000  0.4964120000000 1.0
C      1  0.5042490000000  0.4331240000000  0.5159560000000 1.0
C      1  0.4970400000000  0.5676740000000  0.5330800000000 1.0
C      1  0.4984970000000  0.5838110000000  0.5071940000000 1.0
C      1  0.4937400000000  0.4401420000000  0.5406890000000 1.0
C      1  0.5457570000000  0.5073080000000  0.4350930000000 1.0
C      1  0.5486220000000  0.4956340000000  0.5324890000000 1.0
C      1  0.5143980000000  0.5157120000000  0.4866990000000 1.0
C      1  0.5395500000000  0.5050030000000  0.4844460000000 1.0
END
