TITL C-2622959-7779-479 0.000313815124420125 125000 -521.373196448782 0 0 102 (C1) n - 1
REM
REM in /nfs/bkarasulu/CARBON/AIRSS/Generating-Clusters/AIREBO/with-SteepDescent/Higher-Symm/SD-CG/HFTN-CG
REM
REM
REM
REM
REM
REM ./C.cell (b20cbc046b6831c77cfcea5457e17084)
REM
REM compiler GCC version 9.2.1 20190827 (Red Hat 9.2.1-1)
REM options -cpp -mtune=generic -march=x86-64 -g -O0 -fpre-include=/usr/include/finclude/math-vector-fortran.h
REM seed 517403719 762569495 -590373382 -647149473 -877857652 956603951 -1964883195 567069756 -1179507147 -1300784476 -993848204 -1528643602 719672653 1932457988 1357219635 1212087849 618084507 -1826429907 -198986106 -1334907572 503829500 -24488954 1133188810 -269308219 1832751045 -1075475278 -442155605 519958612 466310184 -2126951478 -271244527 1042571815 -1248664274
REM
CELL 1.54180   50.00000   50.00000   50.00000   90.00000   90.00000   90.00000
LATT -1
SFAC C  
C      1  0.4921030000000  0.4569930000000  0.5026900000000 1.0
C      1  0.5162850000000  0.5393610000000  0.5002430000000 1.0
C      1  0.4900540000000  0.5455400000000  0.5176080000000 1.0
C      1  0.5195570000000  0.4714770000000  0.5104660000000 1.0
C      1  0.4152450000000  0.5324030000000  0.5148070000000 1.0
C      1  0.5733190000000  0.4681760000000  0.5186860000000 1.0
C      1  0.4280260000000  0.4687590000000  0.5141480000000 1.0
C      1  0.5771680000000  0.5330720000000  0.5170880000000 1.0
C      1  0.5401940000000  0.5185930000000  0.5126490000000 1.0
C      1  0.4547020000000  0.4892210000000  0.4925540000000 1.0
C      1  0.5427020000000  0.4895910000000  0.5003450000000 1.0
C      1  0.4489400000000  0.5119440000000  0.5115710000000 1.0
C      1  0.4493090000000  0.4466770000000  0.5288630000000 1.0
C      1  0.5539220000000  0.5527670000000  0.5318070000000 1.0
C      1  0.4580300000000  0.5639210000000  0.5326400000000 1.0
C      1  0.5530480000000  0.4415920000000  0.5249570000000 1.0
C      1  0.5549240000000  0.5246260000000  0.4830650000000 1.0
C      1  0.4352870000000  0.4710860000000  0.4743120000000 1.0
C      1  0.5619860000000  0.4758340000000  0.4811650000000 1.0
C      1  0.4378450000000  0.5265360000000  0.4829250000000 1.0
C      1  0.4599840000000  0.4625160000000  0.5549050000000 1.0
C      1  0.5522110000000  0.5514680000000  0.5635120000000 1.0
C      1  0.4571180000000  0.5441830000000  0.5523720000000 1.0
C      1  0.5488000000000  0.4618320000000  0.5493380000000 1.0
C      1  0.5390940000000  0.5718120000000  0.4833750000000 1.0
C      1  0.4677330000000  0.4309450000000  0.4815450000000 1.0
C      1  0.5340400000000  0.4310660000000  0.4913750000000 1.0
C      1  0.4722110000000  0.5629830000000  0.4945040000000 1.0
C      1  0.5574100000000  0.5229250000000  0.5758500000000 1.0
C      1  0.4452590000000  0.4868090000000  0.5621370000000 1.0
C      1  0.5632760000000  0.4839490000000  0.5570860000000 1.0
C      1  0.4397290000000  0.5204680000000  0.5653210000000 1.0
C      1  0.5179310000000  0.5509050000000  0.4427290000000 1.0
C      1  0.4819660000000  0.4532030000000  0.4391070000000 1.0
C      1  0.5131520000000  0.4447050000000  0.4511200000000 1.0
C      1  0.4856220000000  0.5413100000000  0.4477920000000 1.0
C      1  0.4782280000000  0.5176550000000  0.5552680000000 1.0
C      1  0.5210060000000  0.4702890000000  0.5424950000000 1.0
C      1  0.4827310000000  0.4682030000000  0.5317160000000 1.0
C      1  0.5264690000000  0.5322410000000  0.5523780000000 1.0
C      1  0.5556720000000  0.5527730000000  0.4988870000000 1.0
C      1  0.4500630000000  0.4498420000000  0.4963690000000 1.0
C      1  0.5639390000000  0.4471210000000  0.4936250000000 1.0
C      1  0.4426300000000  0.5508600000000  0.5062450000000 1.0
C      1  0.4807990000000  0.5809470000000  0.5337220000000 1.0
C      1  0.5265010000000  0.4203160000000  0.5218350000000 1.0
C      1  0.4687060000000  0.4201010000000  0.5334470000000 1.0
C      1  0.5327070000000  0.5792240000000  0.5345020000000 1.0
C      1  0.5163800000000  0.5141880000000  0.4809640000000 1.0
C      1  0.4854840000000  0.4824530000000  0.4841240000000 1.0
C      1  0.5210470000000  0.4657920000000  0.4766110000000 1.0
C      1  0.4747470000000  0.5234870000000  0.4967420000000 1.0
C      1  0.5449000000000  0.4745960000000  0.4540230000000 1.0
C      1  0.4662860000000  0.5222490000000  0.4647050000000 1.0
C      1  0.5357340000000  0.5258160000000  0.4572530000000 1.0
C      1  0.4657670000000  0.4716960000000  0.4585940000000 1.0
C      1  0.5170610000000  0.4636170000000  0.4231330000000 1.0
C      1  0.4983500000000  0.5223700000000  0.4227230000000 1.0
C      1  0.5166540000000  0.5442980000000  0.4094000000000 1.0
C      1  0.4865660000000  0.4701630000000  0.4123970000000 1.0
C      1  0.4688950000000  0.5619380000000  0.4642900000000 1.0
C      1  0.5432350000000  0.4318800000000  0.4604470000000 1.0
C      1  0.4649360000000  0.4305800000000  0.4539790000000 1.0
C      1  0.5430390000000  0.5702160000000  0.4551200000000 1.0
C      1  0.5754400000000  0.4992330000000  0.5211120000000 1.0
C      1  0.4115100000000  0.4985530000000  0.5136390000000 1.0
C      1  0.5016290000000  0.4138030000000  0.4594160000000 1.0
C      1  0.5042260000000  0.5783100000000  0.4575010000000 1.0
C      1  0.5071650000000  0.5871060000000  0.5163380000000 1.0
C      1  0.4948520000000  0.4070590000000  0.5158990000000 1.0
C      1  0.4767410000000  0.5032040000000  0.6100470000000 1.0
C      1  0.5247830000000  0.4953300000000  0.6049640000000 1.0
C      1  0.5753010000000  0.4946120000000  0.4489590000000 1.0
C      1  0.4291620000000  0.5002460000000  0.4435240000000 1.0
C      1  0.3896260000000  0.4990850000000  0.4887380000000 1.0
C      1  0.5997170000000  0.5131780000000  0.5018200000000 1.0
C      1  0.5002460000000  0.4270240000000  0.4907170000000 1.0
C      1  0.5058700000000  0.5702280000000  0.4904890000000 1.0
C      1  0.5532490000000  0.5136490000000  0.4094230000000 1.0
C      1  0.4754720000000  0.5008740000000  0.4193130000000 1.0
C      1  0.5077270000000  0.5770970000000  0.5541310000000 1.0
C      1  0.5008830000000  0.4232390000000  0.5440060000000 1.0
C      1  0.4336820000000  0.5048690000000  0.5369950000000 1.0
C      1  0.5540770000000  0.5136520000000  0.5433000000000 1.0
C      1  0.4776610000000  0.4513090000000  0.5782140000000 1.0
C      1  0.4877770000000  0.5497830000000  0.5833560000000 1.0
C      1  0.4640390000000  0.5054970000000  0.5834700000000 1.0
C      1  0.5344140000000  0.5058750000000  0.5813780000000 1.0
C      1  0.5785490000000  0.5049200000000  0.4791220000000 1.0
C      1  0.4188660000000  0.5008740000000  0.4743910000000 1.0
C      1  0.5452520000000  0.5031110000000  0.4354850000000 1.0
C      1  0.4584460000000  0.4990380000000  0.4444110000000 1.0
C      1  0.4981640000000  0.4507990000000  0.5549890000000 1.0
C      1  0.4970230000000  0.5455560000000  0.5509080000000 1.0
C      1  0.4967810000000  0.5051470000000  0.5069670000000 1.0
C      1  0.5131370000000  0.4951250000000  0.4314860000000 1.0
C      1  0.4920800000000  0.4968080000000  0.5351960000000 1.0
C      1  0.4692720000000  0.4861940000000  0.3898680000000 1.0
C      1  0.4581970000000  0.4868540000000  0.3671300000000 1.0
C      1  0.5012210000000  0.4955990000000  0.6184820000000 1.0
C      1  0.5088070000000  0.4912130000000  0.4611910000000 1.0
C      1  0.5183760000000  0.4996560000000  0.5545970000000 1.0
END
