TITL C-2622953-3516-429 -0.00310714588510897 125000 -765.821860930281 0 0 139 (C1) n - 1
REM
REM in /nfs/bkarasulu/CARBON/AIRSS/Generating-Clusters/AIREBO/with-SteepDescent/Higher-Symm/SD-CG/HFTN-CG
REM
REM
REM
REM
REM
REM ./C.cell (b20cbc046b6831c77cfcea5457e17084)
REM
REM compiler GCC version 9.2.1 20190827 (Red Hat 9.2.1-1)
REM options -cpp -mtune=generic -march=x86-64 -g -O0 -fpre-include=/usr/include/finclude/math-vector-fortran.h
REM seed -87262992 2102053852 1534961225 1467628314 -437381747 1244038552 30645687 -675144525 827713857 1721949011 962635817 458638022 550653839 -67018934 -1419792170 -1792220577 1827516137 1758018227 -251260984 -1036556480 1673328362 -772814068 1995127805 -1382250636 1856009651 -1674269446 1001523862 -948056661 -1249491360 579563182 -2064951012 284862281 492116926
REM
CELL 1.54180   50.00000   50.00000   50.00000   90.00000   90.00000   90.00000
LATT -1
SFAC C  
C      1  0.5146670000000  0.4196500000000  0.4612400000000 1.0
C      1  0.5109610000000  0.5249980000000  0.5929990000000 1.0
C      1  0.5178710000000  0.5633430000000  0.4358900000000 1.0
C      1  0.5147220000000  0.5806390000000  0.4633410000000 1.0
C      1  0.5152960000000  0.4927260000000  0.5896540000000 1.0
C      1  0.5141900000000  0.4279980000000  0.4314890000000 1.0
C      1  0.5070190000000  0.4746700000000  0.5396340000000 1.0
C      1  0.5092800000000  0.5443500000000  0.5071750000000 1.0
C      1  0.5008300000000  0.4838060000000  0.4803680000000 1.0
C      1  0.5005830000000  0.5304340000000  0.5369650000000 1.0
C      1  0.5058100000000  0.4564560000000  0.4999600000000 1.0
C      1  0.5028470000000  0.5180950000000  0.4600510000000 1.0
C      1  0.4406260000000  0.5116330000000  0.5185390000000 1.0
C      1  0.4386870000000  0.5113820000000  0.4734560000000 1.0
C      1  0.4389730000000  0.4704320000000  0.4983510000000 1.0
C      1  0.4271460000000  0.4831300000000  0.5233430000000 1.0
C      1  0.4265420000000  0.4835930000000  0.4738670000000 1.0
C      1  0.4239930000000  0.5283320000000  0.4969100000000 1.0
C      1  0.5119880000000  0.4170230000000  0.5602380000000 1.0
C      1  0.5116170000000  0.6062170000000  0.5308390000000 1.0
C      1  0.4962000000000  0.4712370000000  0.3951020000000 1.0
C      1  0.5190830000000  0.5974480000000  0.5568300000000 1.0
C      1  0.5177200000000  0.4067290000000  0.5379640000000 1.0
C      1  0.5222030000000  0.4926810000000  0.3902940000000 1.0
C      1  0.4785470000000  0.5213710000000  0.4195100000000 1.0
C      1  0.4812550000000  0.4148430000000  0.5239100000000 1.0
C      1  0.4922490000000  0.5557590000000  0.5580950000000 1.0
C      1  0.4765710000000  0.4899660000000  0.4244660000000 1.0
C      1  0.4783550000000  0.5802910000000  0.5468400000000 1.0
C      1  0.4765150000000  0.4334650000000  0.5521150000000 1.0
C      1  0.4678420000000  0.5295020000000  0.4953550000000 1.0
C      1  0.4815970000000  0.4844420000000  0.4563300000000 1.0
C      1  0.4867260000000  0.4861230000000  0.5187660000000 1.0
C      1  0.4727000000000  0.4642280000000  0.5017290000000 1.0
C      1  0.4710880000000  0.5114700000000  0.4702760000000 1.0
C      1  0.4743680000000  0.5145370000000  0.5220450000000 1.0
C      1  0.4624960000000  0.4162500000000  0.4615050000000 1.0
C      1  0.4653650000000  0.5155820000000  0.5957290000000 1.0
C      1  0.4666270000000  0.5723510000000  0.4257270000000 1.0
C      1  0.4683460000000  0.5941530000000  0.4942500000000 1.0
C      1  0.4635170000000  0.4816290000000  0.5919120000000 1.0
C      1  0.4617170000000  0.4301320000000  0.4303790000000 1.0
C      1  0.4342990000000  0.4735140000000  0.4475670000000 1.0
C      1  0.4370000000000  0.4668360000000  0.5456720000000 1.0
C      1  0.4303940000000  0.5583950000000  0.4926630000000 1.0
C      1  0.4355150000000  0.5421410000000  0.4613050000000 1.0
C      1  0.4418310000000  0.5242200000000  0.5455930000000 1.0
C      1  0.4310660000000  0.4391770000000  0.4997590000000 1.0
C      1  0.5580760000000  0.4169240000000  0.5215500000000 1.0
C      1  0.5601690000000  0.5661600000000  0.5757150000000 1.0
C      1  0.5418680000000  0.5093310000000  0.4065240000000 1.0
C      1  0.5630430000000  0.6042350000000  0.5139980000000 1.0
C      1  0.5485300000000  0.4414280000000  0.5816640000000 1.0
C      1  0.5534320000000  0.4592230000000  0.4113450000000 1.0
C      1  0.5503290000000  0.5589440000000  0.4321810000000 1.0
C      1  0.5426460000000  0.4230700000000  0.4741730000000 1.0
C      1  0.5417120000000  0.5168830000000  0.5695530000000 1.0
C      1  0.5362530000000  0.4532320000000  0.4597050000000 1.0
C      1  0.5339360000000  0.5725220000000  0.4864850000000 1.0
C      1  0.5462560000000  0.4858530000000  0.5793110000000 1.0
C      1  0.4716670000000  0.4498630000000  0.5826980000000 1.0
C      1  0.4821280000000  0.6031180000000  0.5227470000000 1.0
C      1  0.4693650000000  0.4544280000000  0.4077380000000 1.0
C      1  0.4681120000000  0.5456410000000  0.5799990000000 1.0
C      1  0.4704030000000  0.4036800000000  0.4921690000000 1.0
C      1  0.4695940000000  0.5520730000000  0.4077740000000 1.0
C      1  0.4478220000000  0.5307350000000  0.4117030000000 1.0
C      1  0.4515180000000  0.4030770000000  0.5186600000000 1.0
C      1  0.4432370000000  0.5589130000000  0.5733900000000 1.0
C      1  0.4502700000000  0.4793820000000  0.4115570000000 1.0
C      1  0.4523780000000  0.5881180000000  0.5301180000000 1.0
C      1  0.4494030000000  0.4289280000000  0.5707660000000 1.0
C      1  0.5090420000000  0.5121140000000  0.4289940000000 1.0
C      1  0.5097620000000  0.4248890000000  0.5119820000000 1.0
C      1  0.5252220000000  0.5640050000000  0.5567030000000 1.0
C      1  0.5085610000000  0.4784510000000  0.4246260000000 1.0
C      1  0.5213570000000  0.5681620000000  0.5239160000000 1.0
C      1  0.5045390000000  0.4482990000000  0.5600380000000 1.0
C      1  0.5919880000000  0.4712830000000  0.5042690000000 1.0
C      1  0.5925130000000  0.5160900000000  0.5244330000000 1.0
C      1  0.5910720000000  0.5122180000000  0.4718840000000 1.0
C      1  0.5910080000000  0.5266930000000  0.4958500000000 1.0
C      1  0.5886230000000  0.4885140000000  0.5256020000000 1.0
C      1  0.5975660000000  0.4828420000000  0.4768460000000 1.0
C      1  0.4630100000000  0.5606200000000  0.4544240000000 1.0
C      1  0.4588070000000  0.4400040000000  0.4830640000000 1.0
C      1  0.4604640000000  0.5100920000000  0.5635580000000 1.0
C      1  0.4609740000000  0.4602470000000  0.4461560000000 1.0
C      1  0.4624960000000  0.5611640000000  0.4884260000000 1.0
C      1  0.4593070000000  0.4787720000000  0.5589650000000 1.0
C      1  0.5719020000000  0.4754980000000  0.4252680000000 1.0
C      1  0.5684510000000  0.4479070000000  0.5635240000000 1.0
C      1  0.5656610000000  0.5741170000000  0.5121070000000 1.0
C      1  0.5642650000000  0.5025480000000  0.4250060000000 1.0
C      1  0.5561990000000  0.5614780000000  0.5422720000000 1.0
C      1  0.5698250000000  0.4392080000000  0.5374760000000 1.0
C      1  0.5690430000000  0.4407620000000  0.4777880000000 1.0
C      1  0.5736750000000  0.5117300000000  0.5663100000000 1.0
C      1  0.5669350000000  0.5517010000000  0.4543240000000 1.0
C      1  0.5645680000000  0.5665360000000  0.4788770000000 1.0
C      1  0.5772030000000  0.4784110000000  0.5722340000000 1.0
C      1  0.5701700000000  0.4613140000000  0.4517830000000 1.0
C      1  0.4929700000000  0.5169560000000  0.5672000000000 1.0
C      1  0.4944710000000  0.5486230000000  0.4552030000000 1.0
C      1  0.4919700000000  0.4386450000000  0.4756760000000 1.0
C      1  0.4920630000000  0.4856390000000  0.5650800000000 1.0
C      1  0.4926930000000  0.4480370000000  0.4451700000000 1.0
C      1  0.4952490000000  0.5628560000000  0.4849520000000 1.0
C      1  0.5657430000000  0.4820440000000  0.4764100000000 1.0
C      1  0.5667160000000  0.4812250000000  0.5417640000000 1.0
C      1  0.5630170000000  0.5344680000000  0.5055210000000 1.0
C      1  0.5659900000000  0.5191310000000  0.4534800000000 1.0
C      1  0.5639160000000  0.5292160000000  0.5388180000000 1.0
C      1  0.5669660000000  0.4528520000000  0.5064610000000 1.0
C      1  0.5231120000000  0.4609640000000  0.5803590000000 1.0
C      1  0.5319130000000  0.5952050000000  0.5093630000000 1.0
C      1  0.5281530000000  0.4567240000000  0.4290840000000 1.0
C      1  0.5348590000000  0.5446380000000  0.5829390000000 1.0
C      1  0.5382370000000  0.4158340000000  0.5034800000000 1.0
C      1  0.5297340000000  0.5345990000000  0.4218730000000 1.0
C      1  0.5383240000000  0.5390160000000  0.4904900000000 1.0
C      1  0.5335550000000  0.4824870000000  0.4768250000000 1.0
C      1  0.5361980000000  0.4853800000000  0.5335110000000 1.0
C      1  0.5373140000000  0.4678320000000  0.5072780000000 1.0
C      1  0.5356940000000  0.5153970000000  0.4684880000000 1.0
C      1  0.5317300000000  0.5165870000000  0.5392240000000 1.0
C      1  0.3941070000000  0.5239660000000  0.4985100000000 1.0
C      1  0.3958300000000  0.4832540000000  0.4761490000000 1.0
C      1  0.3968170000000  0.4840690000000  0.5226630000000 1.0
C      1  0.3877350000000  0.4692970000000  0.4997960000000 1.0
C      1  0.3848430000000  0.5096640000000  0.4755140000000 1.0
C      1  0.3866360000000  0.5107770000000  0.5227760000000 1.0
C      1  0.4352210000000  0.5674000000000  0.5250990000000 1.0
C      1  0.4277740000000  0.4934850000000  0.4269140000000 1.0
C      1  0.4340110000000  0.4390920000000  0.5474800000000 1.0
C      1  0.4328280000000  0.4239470000000  0.5229580000000 1.0
C      1  0.4310340000000  0.5227560000000  0.4335530000000 1.0
C      1  0.4334880000000  0.5503860000000  0.5478400000000 1.0
C      1  0.5044940000000  0.5137700000000  0.4937460000000 1.0
END
