TITL C-2622968-4806-398 -0.00532541181105559 125000 -969.785869690771 0 0 176 (C1) n - 1
REM
REM in /nfs/bkarasulu/CARBON/AIRSS/Generating-Clusters/AIREBO/with-SteepDescent/Higher-Symm/SD-CG/HFTN-CG
REM
REM
REM
REM
REM
REM ./C.cell (b20cbc046b6831c77cfcea5457e17084)
REM
REM compiler GCC version 9.2.1 20190827 (Red Hat 9.2.1-1)
REM options -cpp -mtune=generic -march=x86-64 -g -O0 -fpre-include=/usr/include/finclude/math-vector-fortran.h
REM seed 498194842 172986941 1444796218 2123946744 1777365290 1000514673 -1491853102 567410650 -671728429 -208226172 487015915 1750153258 355848192 1242084459 1012492007 -1333940922 -775074109 -1507682688 -2048692747 -699812435 -1832101448 -246349767 -1792917974 -442110822 1654862187 -1645429479 -1136175469 -1386494740 -215374806 -754105757 -1390100546 -726334004 1342849774
REM
CELL 1.54180   50.00000   50.00000   50.00000   90.00000   90.00000   90.00000
LATT -1
SFAC C  
C      1  0.4994170000000  0.5364470000000  0.5535630000000 1.0
C      1  0.4702450000000  0.5235630000000  0.5476450000000 1.0
C      1  0.4964250000000  0.4689190000000  0.5471480000000 1.0
C      1  0.5234050000000  0.4840440000000  0.5539600000000 1.0
C      1  0.5222590000000  0.5147990000000  0.5479420000000 1.0
C      1  0.5566120000000  0.4014250000000  0.4508010000000 1.0
C      1  0.5969790000000  0.4932540000000  0.4593040000000 1.0
C      1  0.5318680000000  0.5975620000000  0.4549950000000 1.0
C      1  0.4168610000000  0.5663190000000  0.4564220000000 1.0
C      1  0.4133040000000  0.4367710000000  0.4486690000000 1.0
C      1  0.5183490000000  0.3979150000000  0.5375960000000 1.0
C      1  0.6079360000000  0.4831660000000  0.5497540000000 1.0
C      1  0.5560830000000  0.5795390000000  0.5536820000000 1.0
C      1  0.4271730000000  0.5896710000000  0.5429730000000 1.0
C      1  0.3789070000000  0.4471440000000  0.5379560000000 1.0
C      1  0.4663740000000  0.4217380000000  0.5531640000000 1.0
C      1  0.5651660000000  0.4382270000000  0.5674440000000 1.0
C      1  0.5648480000000  0.5566670000000  0.5733550000000 1.0
C      1  0.4855930000000  0.5996140000000  0.5660640000000 1.0
C      1  0.4151210000000  0.5043620000000  0.5627840000000 1.0
C      1  0.5126220000000  0.4795480000000  0.5819630000000 1.0
C      1  0.5223160000000  0.5052270000000  0.5959200000000 1.0
C      1  0.5058950000000  0.5255640000000  0.5845220000000 1.0
C      1  0.4767120000000  0.5138630000000  0.5771950000000 1.0
C      1  0.4836180000000  0.4848840000000  0.5825330000000 1.0
C      1  0.5639250000000  0.4874300000000  0.4063950000000 1.0
C      1  0.5412310000000  0.5538840000000  0.3973050000000 1.0
C      1  0.4514080000000  0.5432200000000  0.4220910000000 1.0
C      1  0.4387880000000  0.4690490000000  0.4196060000000 1.0
C      1  0.4945850000000  0.4229720000000  0.4019110000000 1.0
C      1  0.4239800000000  0.4656580000000  0.4485620000000 1.0
C      1  0.5363580000000  0.4236360000000  0.4478230000000 1.0
C      1  0.5668030000000  0.4980480000000  0.4462080000000 1.0
C      1  0.5304750000000  0.5657740000000  0.4478490000000 1.0
C      1  0.4467180000000  0.5657230000000  0.4438810000000 1.0
C      1  0.5424970000000  0.4806040000000  0.6078590000000 1.0
C      1  0.5403640000000  0.5438370000000  0.5932010000000 1.0
C      1  0.4780140000000  0.5448150000000  0.6050370000000 1.0
C      1  0.4517600000000  0.4905320000000  0.6057340000000 1.0
C      1  0.4928220000000  0.4509910000000  0.6015760000000 1.0
C      1  0.4069160000000  0.5248340000000  0.5140370000000 1.0
C      1  0.4423010000000  0.4180050000000  0.5086740000000 1.0
C      1  0.5658150000000  0.4236000000000  0.5153220000000 1.0
C      1  0.5944440000000  0.5383220000000  0.5142300000000 1.0
C      1  0.4990590000000  0.5955760000000  0.5143380000000 1.0
C      1  0.6149110000000  0.5122760000000  0.5366110000000 1.0
C      1  0.5425640000000  0.6076420000000  0.5401280000000 1.0
C      1  0.4218320000000  0.5631900000000  0.5383370000000 1.0
C      1  0.4064630000000  0.4395690000000  0.5297130000000 1.0
C      1  0.5398880000000  0.3843840000000  0.5265830000000 1.0
C      1  0.5154500000000  0.4807770000000  0.5086010000000 1.0
C      1  0.5150530000000  0.5108150000000  0.5169860000000 1.0
C      1  0.4894050000000  0.5237520000000  0.5088010000000 1.0
C      1  0.4710820000000  0.5033330000000  0.5241370000000 1.0
C      1  0.4863690000000  0.4777350000000  0.5207530000000 1.0
C      1  0.4826790000000  0.4483100000000  0.5582080000000 1.0
C      1  0.5479300000000  0.4671070000000  0.5459030000000 1.0
C      1  0.5507490000000  0.5288530000000  0.5485350000000 1.0
C      1  0.4865720000000  0.5660600000000  0.5446940000000 1.0
C      1  0.4260530000000  0.4866640000000  0.5367700000000 1.0
C      1  0.4329240000000  0.5249190000000  0.5718400000000 1.0
C      1  0.4492660000000  0.4483700000000  0.5645040000000 1.0
C      1  0.5381480000000  0.4355090000000  0.5716880000000 1.0
C      1  0.5691180000000  0.5229840000000  0.5752650000000 1.0
C      1  0.5051530000000  0.5762330000000  0.5720090000000 1.0
C      1  0.6124740000000  0.5108390000000  0.5052020000000 1.0
C      1  0.5315580000000  0.6044930000000  0.5098160000000 1.0
C      1  0.4098740000000  0.5582660000000  0.5088500000000 1.0
C      1  0.4116980000000  0.4288770000000  0.4985870000000 1.0
C      1  0.5489210000000  0.4002020000000  0.5002440000000 1.0
C      1  0.4845780000000  0.4171130000000  0.4529640000000 1.0
C      1  0.5804320000000  0.4444280000000  0.4589070000000 1.0
C      1  0.5708190000000  0.5457580000000  0.4491150000000 1.0
C      1  0.4710230000000  0.5958910000000  0.4548150000000 1.0
C      1  0.3887290000000  0.5061570000000  0.4541370000000 1.0
C      1  0.5247040000000  0.5795970000000  0.5472480000000 1.0
C      1  0.4429110000000  0.5416760000000  0.5477740000000 1.0
C      1  0.4303320000000  0.4571070000000  0.5424090000000 1.0
C      1  0.5249940000000  0.4241240000000  0.5490430000000 1.0
C      1  0.5861110000000  0.5082450000000  0.5542910000000 1.0
C      1  0.4756520000000  0.3790800000000  0.5032590000000 1.0
C      1  0.6150200000000  0.4425610000000  0.5063670000000 1.0
C      1  0.5892410000000  0.5751090000000  0.4997430000000 1.0
C      1  0.4529190000000  0.6150320000000  0.4950070000000 1.0
C      1  0.3641560000000  0.4932850000000  0.5051480000000 1.0
C      1  0.4461690000000  0.4947050000000  0.4104560000000 1.0
C      1  0.4796390000000  0.4466120000000  0.3927920000000 1.0
C      1  0.5421050000000  0.4691210000000  0.4084200000000 1.0
C      1  0.5408840000000  0.5234520000000  0.3941710000000 1.0
C      1  0.4786240000000  0.5433400000000  0.4123970000000 1.0
C      1  0.5129460000000  0.5214060000000  0.4415980000000 1.0
C      1  0.4799140000000  0.5222290000000  0.4496200000000 1.0
C      1  0.4688820000000  0.4920040000000  0.4462690000000 1.0
C      1  0.4924300000000  0.4680720000000  0.4408660000000 1.0
C      1  0.5179220000000  0.4887710000000  0.4497480000000 1.0
C      1  0.4720590000000  0.4963680000000  0.4003540000000 1.0
C      1  0.4894640000000  0.4724490000000  0.4072690000000 1.0
C      1  0.5179200000000  0.4815610000000  0.4039400000000 1.0
C      1  0.5156050000000  0.5119310000000  0.4090310000000 1.0
C      1  0.4874560000000  0.5196940000000  0.4004570000000 1.0
C      1  0.5179420000000  0.6095160000000  0.4820460000000 1.0
C      1  0.4103790000000  0.5506800000000  0.4779840000000 1.0
C      1  0.4244520000000  0.4220400000000  0.4696630000000 1.0
C      1  0.5614210000000  0.3903180000000  0.4737250000000 1.0
C      1  0.6125500000000  0.5074860000000  0.4733060000000 1.0
C      1  0.5497820000000  0.5801100000000  0.4991830000000 1.0
C      1  0.4404080000000  0.5727280000000  0.5042960000000 1.0
C      1  0.4044730000000  0.4621880000000  0.4963200000000 1.0
C      1  0.5172150000000  0.4095350000000  0.4932100000000 1.0
C      1  0.6015460000000  0.4790810000000  0.4998950000000 1.0
C      1  0.4387800000000  0.5034550000000  0.4821780000000 1.0
C      1  0.4702340000000  0.4419130000000  0.4803960000000 1.0
C      1  0.5612750000000  0.4692350000000  0.4954270000000 1.0
C      1  0.5363200000000  0.5222190000000  0.4851350000000 1.0
C      1  0.4877010000000  0.5613510000000  0.4820360000000 1.0
C      1  0.5391250000000  0.4659340000000  0.5154880000000 1.0
C      1  0.5463970000000  0.5185080000000  0.5167220000000 1.0
C      1  0.4896660000000  0.5526720000000  0.5148610000000 1.0
C      1  0.4421630000000  0.5010040000000  0.5159280000000 1.0
C      1  0.4710530000000  0.4572470000000  0.5078390000000 1.0
C      1  0.4112140000000  0.5214300000000  0.4745650000000 1.0
C      1  0.4557970000000  0.4162210000000  0.4710680000000 1.0
C      1  0.5506700000000  0.4509450000000  0.4687980000000 1.0
C      1  0.5673020000000  0.5205650000000  0.4716820000000 1.0
C      1  0.5006620000000  0.5869720000000  0.4637800000000 1.0
C      1  0.5372720000000  0.5416000000000  0.4290780000000 1.0
C      1  0.4768540000000  0.5544980000000  0.4505760000000 1.0
C      1  0.4371560000000  0.4955810000000  0.4493580000000 1.0
C      1  0.4824720000000  0.4370070000000  0.4312200000000 1.0
C      1  0.5452980000000  0.4762650000000  0.4475840000000 1.0
C      1  0.3908090000000  0.5027980000000  0.4937550000000 1.0
C      1  0.4546820000000  0.3922950000000  0.4920080000000 1.0
C      1  0.5819450000000  0.4443390000000  0.4986850000000 1.0
C      1  0.5798660000000  0.5481830000000  0.4870540000000 1.0
C      1  0.4750570000000  0.5905800000000  0.4940300000000 1.0
C      1  0.5024420000000  0.5609240000000  0.4291170000000 1.0
C      1  0.4380450000000  0.5190000000000  0.4256550000000 1.0
C      1  0.4563120000000  0.4492540000000  0.4132740000000 1.0
C      1  0.5421380000000  0.4479370000000  0.4299770000000 1.0
C      1  0.5595540000000  0.5169500000000  0.4218330000000 1.0
C      1  0.4531890000000  0.5231570000000  0.5965150000000 1.0
C      1  0.4629490000000  0.4625130000000  0.5899270000000 1.0
C      1  0.5259850000000  0.4536180000000  0.5944630000000 1.0
C      1  0.5533110000000  0.5123750000000  0.6002710000000 1.0
C      1  0.5085260000000  0.5558770000000  0.5938560000000 1.0
C      1  0.4355190000000  0.4706610000000  0.4905760000000 1.0
C      1  0.5233980000000  0.4424520000000  0.4873110000000 1.0
C      1  0.5755720000000  0.4977650000000  0.4953690000000 1.0
C      1  0.5305680000000  0.5550830000000  0.4934010000000 1.0
C      1  0.4581600000000  0.5469930000000  0.4909330000000 1.0
C      1  0.4420150000000  0.4493500000000  0.5144720000000 1.0
C      1  0.5346420000000  0.4346550000000  0.5187570000000 1.0
C      1  0.5771240000000  0.5125750000000  0.5234980000000 1.0
C      1  0.5172710000000  0.5684190000000  0.5192540000000 1.0
C      1  0.4398900000000  0.5331530000000  0.5160620000000 1.0
C      1  0.5188860000000  0.4957440000000  0.4802410000000 1.0
C      1  0.5110170000000  0.5394840000000  0.4703570000000 1.0
C      1  0.4701730000000  0.5165460000000  0.4816970000000 1.0
C      1  0.4608430000000  0.4716960000000  0.4719690000000 1.0
C      1  0.4978830000000  0.4567490000000  0.4724780000000 1.0
C      1  0.4965030000000  0.3994780000000  0.5160090000000 1.0
C      1  0.5998500000000  0.4623780000000  0.5294610000000 1.0
C      1  0.5719670000000  0.5765060000000  0.5247030000000 1.0
C      1  0.4498360000000  0.5988720000000  0.5239150000000 1.0
C      1  0.3863880000000  0.4724510000000  0.5191920000000 1.0
C      1  0.4041870000000  0.4825420000000  0.4690210000000 1.0
C      1  0.5106010000000  0.4146460000000  0.4618100000000 1.0
C      1  0.6018550000000  0.4584260000000  0.4749780000000 1.0
C      1  0.5577440000000  0.5693130000000  0.4679050000000 1.0
C      1  0.4495060000000  0.5817500000000  0.4734000000000 1.0
C      1  0.5769850000000  0.5478350000000  0.5419550000000 1.0
C      1  0.4763870000000  0.5971930000000  0.5368600000000 1.0
C      1  0.3964000000000  0.5004910000000  0.5345220000000 1.0
C      1  0.4667950000000  0.4087970000000  0.5283580000000 1.0
C      1  0.5742830000000  0.4477360000000  0.5377720000000 1.0
C      1  0.4874780000000  0.4881170000000  0.4812990000000 1.0
END
