TITL C-2622967-6265-354 -0.00194620368803213 125000 -879.334429531999 0 0 171 (C1) n - 1
REM
REM in /nfs/bkarasulu/CARBON/AIRSS/Generating-Clusters/AIREBO/with-SteepDescent/Higher-Symm/SD-CG/HFTN-CG
REM
REM
REM
REM
REM
REM ./C.cell (b20cbc046b6831c77cfcea5457e17084)
REM
REM compiler GCC version 9.2.1 20190827 (Red Hat 9.2.1-1)
REM options -cpp -mtune=generic -march=x86-64 -g -O0 -fpre-include=/usr/include/finclude/math-vector-fortran.h
REM seed -946843526 931599145 828037121 -2044039913 -839976281 -1621784074 -1490794813 781965386 2014223275 -1057755679 -1273801040 713324281 1609068448 -757838362 1586682450 -616651550 1448527205 -1871321877 -574860775 1863619015 1247683127 -1677196406 1282299521 -279032941 -1105329087 487502856 -345664973 575509719 -670630095 824034298 2106957384 1003895901 -1513250993
REM
CELL 1.54180   50.00000   50.00000   50.00000   90.00000   90.00000   90.00000
LATT -1
SFAC C  
C      1  0.4844840000000  0.5699710000000  0.5543430000000 1.0
C      1  0.4882620000000  0.5736920000000  0.4478710000000 1.0
C      1  0.4852260000000  0.4761130000000  0.4098030000000 1.0
C      1  0.4765100000000  0.4115310000000  0.4960550000000 1.0
C      1  0.4916940000000  0.4622970000000  0.5996290000000 1.0
C      1  0.5297960000000  0.5009680000000  0.4026970000000 1.0
C      1  0.5250070000000  0.4061540000000  0.4693210000000 1.0
C      1  0.5332840000000  0.4415010000000  0.5844740000000 1.0
C      1  0.5290070000000  0.5576060000000  0.5804440000000 1.0
C      1  0.5235900000000  0.5957820000000  0.4670360000000 1.0
C      1  0.4444160000000  0.4214870000000  0.5199600000000 1.0
C      1  0.4510650000000  0.4964400000000  0.6006170000000 1.0
C      1  0.4471610000000  0.5891390000000  0.5269210000000 1.0
C      1  0.4532500000000  0.5631720000000  0.4147010000000 1.0
C      1  0.4507890000000  0.4449770000000  0.4217750000000 1.0
C      1  0.4952010000000  0.6077810000000  0.4672760000000 1.0
C      1  0.5022620000000  0.5040350000000  0.3900590000000 1.0
C      1  0.4970020000000  0.3950100000000  0.4659710000000 1.0
C      1  0.5017930000000  0.4314810000000  0.5916990000000 1.0
C      1  0.5003130000000  0.5566260000000  0.5876810000000 1.0
C      1  0.4934010000000  0.4838100000000  0.5203840000000 1.0
C      1  0.5003750000000  0.5166200000000  0.5257980000000 1.0
C      1  0.4889400000000  0.5251950000000  0.4949480000000 1.0
C      1  0.4943680000000  0.4993960000000  0.4740230000000 1.0
C      1  0.4955490000000  0.4726590000000  0.4907870000000 1.0
C      1  0.4680470000000  0.4651510000000  0.4801640000000 1.0
C      1  0.4720540000000  0.4682330000000  0.5387930000000 1.0
C      1  0.4724850000000  0.5299640000000  0.5371760000000 1.0
C      1  0.4639240000000  0.5398800000000  0.4844450000000 1.0
C      1  0.4705000000000  0.4969110000000  0.4557380000000 1.0
C      1  0.5822270000000  0.5397550000000  0.5514140000000 1.0
C      1  0.5813410000000  0.5530410000000  0.4869220000000 1.0
C      1  0.5822120000000  0.4999550000000  0.4327740000000 1.0
C      1  0.5824460000000  0.4363200000000  0.4800180000000 1.0
C      1  0.5792680000000  0.4661580000000  0.5362890000000 1.0
C      1  0.4281290000000  0.4558180000000  0.5849010000000 1.0
C      1  0.4219390000000  0.5550840000000  0.5649840000000 1.0
C      1  0.4215540000000  0.5781010000000  0.4548650000000 1.0
C      1  0.4224110000000  0.4926600000000  0.4086980000000 1.0
C      1  0.4180160000000  0.4161470000000  0.4755380000000 1.0
C      1  0.4642950000000  0.6023590000000  0.4665950000000 1.0
C      1  0.4711050000000  0.5077930000000  0.3925690000000 1.0
C      1  0.4691510000000  0.3845830000000  0.4766700000000 1.0
C      1  0.4694960000000  0.4340570000000  0.5813730000000 1.0
C      1  0.4705480000000  0.5513920000000  0.5858710000000 1.0
C      1  0.5180040000000  0.4686130000000  0.4439890000000 1.0
C      1  0.5163980000000  0.4349770000000  0.5161680000000 1.0
C      1  0.5218210000000  0.4921710000000  0.5659430000000 1.0
C      1  0.5144110000000  0.5656640000000  0.5283040000000 1.0
C      1  0.5160920000000  0.5448490000000  0.4533890000000 1.0
C      1  0.4200920000000  0.5445550000000  0.4635850000000 1.0
C      1  0.4172900000000  0.4962800000000  0.4423290000000 1.0
C      1  0.4072920000000  0.4454620000000  0.4855650000000 1.0
C      1  0.4189550000000  0.4798880000000  0.5589010000000 1.0
C      1  0.4188150000000  0.5377860000000  0.5358790000000 1.0
C      1  0.4658130000000  0.5315950000000  0.4134590000000 1.0
C      1  0.4645140000000  0.4319590000000  0.4500330000000 1.0
C      1  0.4609090000000  0.4289450000000  0.5488700000000 1.0
C      1  0.4655330000000  0.5203900000000  0.5812940000000 1.0
C      1  0.4620300000000  0.5841750000000  0.4967440000000 1.0
C      1  0.4586000000000  0.5571190000000  0.5269920000000 1.0
C      1  0.4619670000000  0.5449220000000  0.4550790000000 1.0
C      1  0.4613150000000  0.4708320000000  0.4411940000000 1.0
C      1  0.4511380000000  0.4464510000000  0.4996950000000 1.0
C      1  0.4721340000000  0.4829130000000  0.5646530000000 1.0
C      1  0.4240510000000  0.4650350000000  0.4282470000000 1.0
C      1  0.4154550000000  0.4388150000000  0.5158380000000 1.0
C      1  0.4239420000000  0.4951850000000  0.5859700000000 1.0
C      1  0.4220230000000  0.5716340000000  0.5351120000000 1.0
C      1  0.4248930000000  0.5548600000000  0.4311300000000 1.0
C      1  0.5690780000000  0.4372090000000  0.5260000000000 1.0
C      1  0.5748310000000  0.5146170000000  0.5690940000000 1.0
C      1  0.5676060000000  0.5665300000000  0.5123170000000 1.0
C      1  0.5692950000000  0.5275110000000  0.4479370000000 1.0
C      1  0.5704680000000  0.4584860000000  0.4581930000000 1.0
C      1  0.5154380000000  0.5147970000000  0.6048500000000 1.0
C      1  0.5092420000000  0.6037660000000  0.5165120000000 1.0
C      1  0.5177770000000  0.5501610000000  0.4067500000000 1.0
C      1  0.5129180000000  0.4288720000000  0.4255980000000 1.0
C      1  0.5121660000000  0.4065380000000  0.5471380000000 1.0
C      1  0.5589040000000  0.5962710000000  0.5051270000000 1.0
C      1  0.5677950000000  0.5382650000000  0.4157120000000 1.0
C      1  0.5633370000000  0.4303260000000  0.4405190000000 1.0
C      1  0.5623900000000  0.4176820000000  0.5500730000000 1.0
C      1  0.5685170000000  0.5246870000000  0.6001320000000 1.0
C      1  0.4441220000000  0.4019760000000  0.4920850000000 1.0
C      1  0.4602450000000  0.4660000000000  0.5894860000000 1.0
C      1  0.4533390000000  0.5631210000000  0.5600540000000 1.0
C      1  0.4544470000000  0.5769020000000  0.4463150000000 1.0
C      1  0.4542410000000  0.4844890000000  0.4108520000000 1.0
C      1  0.5354030000000  0.4142930000000  0.4969690000000 1.0
C      1  0.5419960000000  0.4712260000000  0.5823650000000 1.0
C      1  0.5369410000000  0.5696250000000  0.5534730000000 1.0
C      1  0.5349990000000  0.5716980000000  0.4507000000000 1.0
C      1  0.5376430000000  0.4754750000000  0.4179330000000 1.0
C      1  0.5429150000000  0.5140960000000  0.5573840000000 1.0
C      1  0.5355650000000  0.5600910000000  0.5026580000000 1.0
C      1  0.5363330000000  0.5194010000000  0.4499390000000 1.0
C      1  0.5379750000000  0.4549340000000  0.4675730000000 1.0
C      1  0.5395660000000  0.4509620000000  0.5352520000000 1.0
C      1  0.4908670000000  0.4407690000000  0.5379170000000 1.0
C      1  0.4936550000000  0.5062380000000  0.5684210000000 1.0
C      1  0.4876020000000  0.5692980000000  0.5140820000000 1.0
C      1  0.4885210000000  0.5345610000000  0.4386150000000 1.0
C      1  0.4902810000000  0.4544930000000  0.4483060000000 1.0
C      1  0.4920200000000  0.4034400000000  0.5192090000000 1.0
C      1  0.5025230000000  0.4847600000000  0.6141850000000 1.0
C      1  0.4926300000000  0.5958140000000  0.5449430000000 1.0
C      1  0.5014470000000  0.5750180000000  0.4226960000000 1.0
C      1  0.4957310000000  0.4500540000000  0.4048410000000 1.0
C      1  0.5942110000000  0.5271570000000  0.5048220000000 1.0
C      1  0.5891720000000  0.5163240000000  0.4731600000000 1.0
C      1  0.5898050000000  0.4821790000000  0.4742000000000 1.0
C      1  0.5947990000000  0.4752410000000  0.5071170000000 1.0
C      1  0.5845420000000  0.5030420000000  0.5221480000000 1.0
C      1  0.5282670000000  0.4493540000000  0.4036510000000 1.0
C      1  0.5235030000000  0.3945830000000  0.5180930000000 1.0
C      1  0.5348090000000  0.4870640000000  0.6083650000000 1.0
C      1  0.5250190000000  0.5993840000000  0.5465090000000 1.0
C      1  0.5343940000000  0.5772370000000  0.4189840000000 1.0
C      1  0.4818920000000  0.5101140000000  0.6092880000000 1.0
C      1  0.4753600000000  0.6071490000000  0.5179910000000 1.0
C      1  0.4846840000000  0.5569930000000  0.4009860000000 1.0
C      1  0.4794740000000  0.4252770000000  0.4202350000000 1.0
C      1  0.4788270000000  0.4001980000000  0.5496840000000 1.0
C      1  0.5321820000000  0.4260230000000  0.5574890000000 1.0
C      1  0.5378740000000  0.5298410000000  0.5872160000000 1.0
C      1  0.5284570000000  0.5927130000000  0.4962070000000 1.0
C      1  0.5366060000000  0.5267550000000  0.4164190000000 1.0
C      1  0.5317420000000  0.4268810000000  0.4488470000000 1.0
C      1  0.5442730000000  0.4774200000000  0.5144210000000 1.0
C      1  0.5548890000000  0.5034860000000  0.5273800000000 1.0
C      1  0.5396930000000  0.5268250000000  0.5083430000000 1.0
C      1  0.5407080000000  0.5094730000000  0.4816560000000 1.0
C      1  0.5411100000000  0.4818870000000  0.4871180000000 1.0
C      1  0.4348710000000  0.4502360000000  0.5539190000000 1.0
C      1  0.4395460000000  0.5258390000000  0.5600440000000 1.0
C      1  0.4354770000000  0.5678490000000  0.4830040000000 1.0
C      1  0.4377020000000  0.5176980000000  0.4255660000000 1.0
C      1  0.4428940000000  0.4355650000000  0.4705950000000 1.0
C      1  0.4959210000000  0.5050020000000  0.4234560000000 1.0
C      1  0.4917760000000  0.4283580000000  0.4700640000000 1.0
C      1  0.5003540000000  0.4549240000000  0.5671110000000 1.0
C      1  0.4971160000000  0.5387180000000  0.5589240000000 1.0
C      1  0.4913960000000  0.5769590000000  0.4811550000000 1.0
C      1  0.4199210000000  0.4976260000000  0.5318010000000 1.0
C      1  0.4166450000000  0.5206090000000  0.5065850000000 1.0
C      1  0.4199120000000  0.5117750000000  0.4727820000000 1.0
C      1  0.4153970000000  0.4792460000000  0.4816440000000 1.0
C      1  0.4173660000000  0.4726140000000  0.5124930000000 1.0
C      1  0.5148630000000  0.4722080000000  0.5429840000000 1.0
C      1  0.5237740000000  0.5344520000000  0.5380110000000 1.0
C      1  0.5099850000000  0.5485770000000  0.4834310000000 1.0
C      1  0.5120260000000  0.4983340000000  0.4487740000000 1.0
C      1  0.5119210000000  0.4473000000000  0.4877850000000 1.0
C      1  0.6031100000000  0.5362440000000  0.5341820000000 1.0
C      1  0.6107140000000  0.5424930000000  0.4729590000000 1.0
C      1  0.6065320000000  0.4924520000000  0.4464360000000 1.0
C      1  0.6042360000000  0.4486640000000  0.4919630000000 1.0
C      1  0.6041080000000  0.4882160000000  0.5435480000000 1.0
C      1  0.5626750000000  0.5581420000000  0.4611350000000 1.0
C      1  0.5649460000000  0.4776710000000  0.4310730000000 1.0
C      1  0.5641490000000  0.4255620000000  0.4983860000000 1.0
C      1  0.5682840000000  0.4815480000000  0.5645670000000 1.0
C      1  0.5642670000000  0.5596000000000  0.5428440000000 1.0
C      1  0.4380080000000  0.4664830000000  0.4655630000000 1.0
C      1  0.4453980000000  0.4627170000000  0.5263630000000 1.0
C      1  0.4477180000000  0.5109530000000  0.5305860000000 1.0
C      1  0.4405910000000  0.5438600000000  0.5033490000000 1.0
C      1  0.4489570000000  0.5164550000000  0.4557280000000 1.0
C      1  0.4673470000000  0.5023050000000  0.5087510000000 1.0
END
