TITL C-2622960-5345-740 -0.00217344864840979 125000 -149.125705089214 0 0 26 (C1) n - 1
REM
REM in /nfs/bkarasulu/CARBON/AIRSS/Generating-Clusters/AIREBO/with-SteepDescent/Higher-Symm/SD-CG/HFTN-CG
REM
REM
REM
REM
REM
REM ./C.cell (b20cbc046b6831c77cfcea5457e17084)
REM
REM compiler GCC version 9.2.1 20190827 (Red Hat 9.2.1-1)
REM options -cpp -mtune=generic -march=x86-64 -g -O0 -fpre-include=/usr/include/finclude/math-vector-fortran.h
REM seed -2022726278 -494177939 886937056 473656005 -1188269308 1037087403 210052126 338765642 -1638377402 -2132892415 1904509913 1204562651 680878671 427851151 970323737 707366508 1668689052 -1127649200 -1000275165 1623794116 615536947 504871105 1723347834 917866353 1823183547 -257030268 -984539172 -419363126 1235886131 677873067 -203193532 509374483 774563417
REM
CELL 1.54180   50.00000   50.00000   50.00000   90.00000   90.00000   90.00000
LATT -1
SFAC C  
C      1  0.5523900000000  0.5344360000000  0.4895500000000 1.0
C      1  0.4968520000000  0.5381640000000  0.4498610000000 1.0
C      1  0.4527900000000  0.5359110000000  0.4960110000000 1.0
C      1  0.4904950000000  0.5356730000000  0.5535290000000 1.0
C      1  0.5529730000000  0.4583290000000  0.4881830000000 1.0
C      1  0.4905200000000  0.4615830000000  0.5549730000000 1.0
C      1  0.4550650000000  0.4587030000000  0.4956680000000 1.0
C      1  0.4988000000000  0.4650350000000  0.4565710000000 1.0
C      1  0.4817980000000  0.4482230000000  0.5021150000000 1.0
C      1  0.4932590000000  0.4467400000000  0.5326600000000 1.0
C      1  0.5298590000000  0.4437800000000  0.4914950000000 1.0
C      1  0.5033760000000  0.4516550000000  0.4800550000000 1.0
C      1  0.4792160000000  0.5487320000000  0.5009940000000 1.0
C      1  0.5016910000000  0.5492750000000  0.4765170000000 1.0
C      1  0.5312710000000  0.5496420000000  0.4906730000000 1.0
C      1  0.4923990000000  0.5491290000000  0.5315750000000 1.0
C      1  0.5622860000000  0.5095490000000  0.4867190000000 1.0
C      1  0.4927270000000  0.5136500000000  0.4396440000000 1.0
C      1  0.4384850000000  0.5147780000000  0.4960830000000 1.0
C      1  0.4933930000000  0.5122720000000  0.5665330000000 1.0
C      1  0.5634400000000  0.4830560000000  0.4912560000000 1.0
C      1  0.4878400000000  0.4859430000000  0.5660340000000 1.0
C      1  0.4404420000000  0.4789710000000  0.4896710000000 1.0
C      1  0.4990900000000  0.4876170000000  0.4420350000000 1.0
C      1  0.5120550000000  0.4312510000000  0.5130490000000 1.0
C      1  0.5079900000000  0.5662250000000  0.5078660000000 1.0
END
