TITL C-2622965-4321-802 -0.000744735621070166 125000 -1022.00566037243 0 0 197 (C1) n - 1
REM
REM in /nfs/bkarasulu/CARBON/AIRSS/Generating-Clusters/AIREBO/with-SteepDescent/Higher-Symm/SD-CG/HFTN-CG
REM
REM
REM
REM
REM
REM ./C.cell (b20cbc046b6831c77cfcea5457e17084)
REM
REM compiler GCC version 9.2.1 20190827 (Red Hat 9.2.1-1)
REM options -cpp -mtune=generic -march=x86-64 -g -O0 -fpre-include=/usr/include/finclude/math-vector-fortran.h
REM seed 563687981 -2096972080 1804088902 842077832 1080864737 1465217176 -1161676336 40691605 -528785416 -200256010 -566200892 -1756771848 -1701489705 -909472721 -913848682 296278227 887501550 -367897948 -1602578312 -107982987 -618076034 1449175993 -568744175 919251444 -1543134595 -1907079333 -525592590 419880675 46623900 -110173410 1506093262 -2030015817 -505894258
REM
CELL 1.54180   50.00000   50.00000   50.00000   90.00000   90.00000   90.00000
LATT -1
SFAC C  
C      1  0.5867130000000  0.5182760000000  0.5238490000000 1.0
C      1  0.5220080000000  0.5875420000000  0.5163130000000 1.0
C      1  0.5160360000000  0.5205890000000  0.5918450000000 1.0
C      1  0.4113750000000  0.4806240000000  0.5223170000000 1.0
C      1  0.4151170000000  0.5169600000000  0.4756610000000 1.0
C      1  0.5879030000000  0.4836700000000  0.4777360000000 1.0
C      1  0.4779100000000  0.4133470000000  0.5234360000000 1.0
C      1  0.4810890000000  0.5899850000000  0.4804120000000 1.0
C      1  0.5211880000000  0.4086180000000  0.4828610000000 1.0
C      1  0.4809370000000  0.4739720000000  0.5867000000000 1.0
C      1  0.4819980000000  0.5236360000000  0.4037330000000 1.0
C      1  0.5148560000000  0.4792010000000  0.4139910000000 1.0
C      1  0.3890360000000  0.5342360000000  0.4623030000000 1.0
C      1  0.4627280000000  0.3869280000000  0.5385760000000 1.0
C      1  0.5292220000000  0.4636270000000  0.3873740000000 1.0
C      1  0.6160360000000  0.4713830000000  0.4630750000000 1.0
C      1  0.6111250000000  0.5347830000000  0.5408350000000 1.0
C      1  0.3860780000000  0.4684820000000  0.5415390000000 1.0
C      1  0.5339390000000  0.6165770000000  0.5294450000000 1.0
C      1  0.5356570000000  0.3817690000000  0.4678090000000 1.0
C      1  0.4633400000000  0.6170650000000  0.4699860000000 1.0
C      1  0.4689730000000  0.5354050000000  0.3746000000000 1.0
C      1  0.4679160000000  0.4474400000000  0.6030270000000 1.0
C      1  0.5271850000000  0.5301430000000  0.6225280000000 1.0
C      1  0.4212680000000  0.4507530000000  0.5469560000000 1.0
C      1  0.5454710000000  0.4171220000000  0.4523300000000 1.0
C      1  0.4489140000000  0.5454720000000  0.4074030000000 1.0
C      1  0.5740210000000  0.5471340000000  0.5483440000000 1.0
C      1  0.5828330000000  0.4511500000000  0.4550400000000 1.0
C      1  0.4251110000000  0.5477960000000  0.4523790000000 1.0
C      1  0.4554650000000  0.5833170000000  0.4506290000000 1.0
C      1  0.4531750000000  0.4222020000000  0.5541580000000 1.0
C      1  0.5430830000000  0.5839610000000  0.5500240000000 1.0
C      1  0.5466830000000  0.4566690000000  0.4223600000000 1.0
C      1  0.5482260000000  0.5441730000000  0.5919320000000 1.0
C      1  0.4434920000000  0.4644690000000  0.5768670000000 1.0
C      1  0.4955570000000  0.3927150000000  0.5602250000000 1.0
C      1  0.5572700000000  0.5024750000000  0.4015140000000 1.0
C      1  0.4064030000000  0.5568530000000  0.5027360000000 1.0
C      1  0.4970840000000  0.5988660000000  0.5587220000000 1.0
C      1  0.4937180000000  0.4004930000000  0.4457690000000 1.0
C      1  0.5024540000000  0.6011150000000  0.4400140000000 1.0
C      1  0.4397710000000  0.4951980000000  0.3966190000000 1.0
C      1  0.4395500000000  0.5018190000000  0.6029280000000 1.0
C      1  0.5566080000000  0.4929950000000  0.6003430000000 1.0
C      1  0.5992540000000  0.4422470000000  0.5030440000000 1.0
C      1  0.5935860000000  0.5610880000000  0.5000220000000 1.0
C      1  0.3993920000000  0.4407140000000  0.4996790000000 1.0
C      1  0.4846260000000  0.4729910000000  0.4004320000000 1.0
C      1  0.3986720000000  0.4872960000000  0.4731800000000 1.0
C      1  0.4708220000000  0.3995690000000  0.4931670000000 1.0
C      1  0.5128530000000  0.5266640000000  0.3931910000000 1.0
C      1  0.5112930000000  0.4697330000000  0.6010380000000 1.0
C      1  0.4845970000000  0.5232010000000  0.6035940000000 1.0
C      1  0.5991550000000  0.5156210000000  0.4747670000000 1.0
C      1  0.5993290000000  0.4873500000000  0.5271240000000 1.0
C      1  0.4010050000000  0.5124100000000  0.5268220000000 1.0
C      1  0.5288140000000  0.6014750000000  0.4860500000000 1.0
C      1  0.5263650000000  0.3949980000000  0.5133230000000 1.0
C      1  0.4747080000000  0.6010710000000  0.5119150000000 1.0
C      1  0.5194450000000  0.4149180000000  0.5667040000000 1.0
C      1  0.5701820000000  0.5216620000000  0.4200210000000 1.0
C      1  0.4249240000000  0.5680140000000  0.5225560000000 1.0
C      1  0.4820410000000  0.5778790000000  0.5732120000000 1.0
C      1  0.4760400000000  0.4209000000000  0.4333820000000 1.0
C      1  0.5171710000000  0.5802830000000  0.4249230000000 1.0
C      1  0.4284500000000  0.4786640000000  0.4194390000000 1.0
C      1  0.4279070000000  0.5214590000000  0.5852700000000 1.0
C      1  0.5691770000000  0.4762790000000  0.5790400000000 1.0
C      1  0.5794540000000  0.4279360000000  0.5199620000000 1.0
C      1  0.5686160000000  0.5700280000000  0.4820600000000 1.0
C      1  0.4297590000000  0.4334580000000  0.4861950000000 1.0
C      1  0.5921600000000  0.5085190000000  0.4423980000000 1.0
C      1  0.4439620000000  0.5919430000000  0.5105160000000 1.0
C      1  0.5103380000000  0.4420110000000  0.5819640000000 1.0
C      1  0.4061270000000  0.4935000000000  0.4405410000000 1.0
C      1  0.4153690000000  0.5076230000000  0.5574530000000 1.0
C      1  0.5909170000000  0.4922040000000  0.5584160000000 1.0
C      1  0.5595300000000  0.4025880000000  0.5090820000000 1.0
C      1  0.5566250000000  0.5952140000000  0.4954760000000 1.0
C      1  0.4418760000000  0.4069440000000  0.5016460000000 1.0
C      1  0.4902610000000  0.5565760000000  0.5986540000000 1.0
C      1  0.4900850000000  0.4409170000000  0.4095780000000 1.0
C      1  0.5071160000000  0.5597620000000  0.3994860000000 1.0
C      1  0.4906410000000  0.5501460000000  0.5296690000000 1.0
C      1  0.5242680000000  0.4963720000000  0.5549420000000 1.0
C      1  0.5606640000000  0.5288150000000  0.4862850000000 1.0
C      1  0.5180700000000  0.4456430000000  0.5293160000000 1.0
C      1  0.5078380000000  0.5476230000000  0.4676260000000 1.0
C      1  0.4899280000000  0.4462480000000  0.4739180000000 1.0
C      1  0.4807440000000  0.5145580000000  0.5544360000000 1.0
C      1  0.4688950000000  0.4877900000000  0.4361470000000 1.0
C      1  0.5185940000000  0.5136560000000  0.4390490000000 1.0
C      1  0.4451580000000  0.4781460000000  0.4839490000000 1.0
C      1  0.4483420000000  0.5228540000000  0.5078580000000 1.0
C      1  0.5590720000000  0.4757530000000  0.5111380000000 1.0
C      1  0.4967920000000  0.4299880000000  0.5463130000000 1.0
C      1  0.5379850000000  0.4856890000000  0.4380670000000 1.0
C      1  0.4390650000000  0.5401640000000  0.4823740000000 1.0
C      1  0.5162060000000  0.5650800000000  0.5411820000000 1.0
C      1  0.5167330000000  0.4334000000000  0.4599960000000 1.0
C      1  0.4841400000000  0.5656520000000  0.4568390000000 1.0
C      1  0.4564170000000  0.5175230000000  0.4252940000000 1.0
C      1  0.4613980000000  0.4905040000000  0.5643110000000 1.0
C      1  0.5428920000000  0.5177650000000  0.5711680000000 1.0
C      1  0.5659730000000  0.4581840000000  0.4828540000000 1.0
C      1  0.5625300000000  0.5413220000000  0.5174800000000 1.0
C      1  0.4335900000000  0.4590980000000  0.5082030000000 1.0
C      1  0.4625840000000  0.4409010000000  0.4813560000000 1.0
C      1  0.4741870000000  0.4566250000000  0.4352260000000 1.0
C      1  0.4325850000000  0.4777330000000  0.4549920000000 1.0
C      1  0.5379450000000  0.5586000000000  0.4723930000000 1.0
C      1  0.5438800000000  0.4292590000000  0.5232480000000 1.0
C      1  0.4607980000000  0.5658140000000  0.5243950000000 1.0
C      1  0.5166940000000  0.5446050000000  0.4284030000000 1.0
C      1  0.5197820000000  0.4680430000000  0.5622200000000 1.0
C      1  0.4815790000000  0.5423470000000  0.5689900000000 1.0
C      1  0.5658000000000  0.5256620000000  0.4553690000000 1.0
C      1  0.5645910000000  0.4765860000000  0.5435360000000 1.0
C      1  0.4390010000000  0.5194610000000  0.5360500000000 1.0
C      1  0.5105150000000  0.4702680000000  0.4738920000000 1.0
C      1  0.4735990000000  0.5076510000000  0.4600290000000 1.0
C      1  0.4700170000000  0.4738440000000  0.5030580000000 1.0
C      1  0.4982510000000  0.5165260000000  0.4775030000000 1.0
C      1  0.5020630000000  0.4704680000000  0.5264400000000 1.0
C      1  0.4968390000000  0.5186980000000  0.5183040000000 1.0
C      1  0.5305010000000  0.5095010000000  0.4692870000000 1.0
C      1  0.5290620000000  0.5118640000000  0.5264510000000 1.0
C      1  0.4721190000000  0.4969010000000  0.5266840000000 1.0
C      1  0.5305490000000  0.5269410000000  0.4985130000000 1.0
C      1  0.5307640000000  0.4637360000000  0.4966120000000 1.0
C      1  0.4760390000000  0.5339130000000  0.4961680000000 1.0
C      1  0.4511940000000  0.4292910000000  0.4527350000000 1.0
C      1  0.4416670000000  0.4501910000000  0.4276430000000 1.0
C      1  0.4220880000000  0.4453890000000  0.4550260000000 1.0
C      1  0.5420440000000  0.5722880000000  0.4417180000000 1.0
C      1  0.5475230000000  0.4212110000000  0.5560880000000 1.0
C      1  0.4558080000000  0.5706700000000  0.5576810000000 1.0
C      1  0.5504800000000  0.5458610000000  0.4247000000000 1.0
C      1  0.5475870000000  0.4521530000000  0.5698380000000 1.0
C      1  0.4481400000000  0.5429290000000  0.5751830000000 1.0
C      1  0.5710090000000  0.5588630000000  0.4501920000000 1.0
C      1  0.5718970000000  0.4436290000000  0.5476410000000 1.0
C      1  0.4326000000000  0.5484780000000  0.5464750000000 1.0
C      1  0.4056170000000  0.4359470000000  0.5282730000000 1.0
C      1  0.5199220000000  0.4010760000000  0.4368100000000 1.0
C      1  0.4304700000000  0.5211890000000  0.3950990000000 1.0
C      1  0.5910620000000  0.5674530000000  0.5270590000000 1.0
C      1  0.6013030000000  0.4350470000000  0.4765530000000 1.0
C      1  0.4090340000000  0.5657190000000  0.4763920000000 1.0
C      1  0.4755010000000  0.6031970000000  0.4345770000000 1.0
C      1  0.4729840000000  0.4098670000000  0.5711890000000 1.0
C      1  0.5232170000000  0.6026830000000  0.5662290000000 1.0
C      1  0.5649270000000  0.4763010000000  0.4041410000000 1.0
C      1  0.5661250000000  0.5187240000000  0.6036040000000 1.0
C      1  0.4292600000000  0.4754430000000  0.5976110000000 1.0
C      1  0.4827710000000  0.5470980000000  0.4283730000000 1.0
C      1  0.4416270000000  0.4855700000000  0.5370870000000 1.0
C      1  0.5434440000000  0.4334690000000  0.4895110000000 1.0
C      1  0.5074490000000  0.4602730000000  0.4412720000000 1.0
C      1  0.5153770000000  0.5462100000000  0.5694690000000 1.0
C      1  0.4870970000000  0.4611840000000  0.5557480000000 1.0
C      1  0.5592070000000  0.5101330000000  0.5421320000000 1.0
C      1  0.5596020000000  0.4929190000000  0.4612790000000 1.0
C      1  0.4401940000000  0.5108400000000  0.4535010000000 1.0
C      1  0.4630040000000  0.5630340000000  0.4905700000000 1.0
C      1  0.4625950000000  0.4428890000000  0.5154450000000 1.0
C      1  0.5378340000000  0.5595630000000  0.5051700000000 1.0
C      1  0.4052480000000  0.5243500000000  0.4377040000000 1.0
C      1  0.4391890000000  0.4066800000000  0.5306850000000 1.0
C      1  0.5211940000000  0.4404990000000  0.4066940000000 1.0
C      1  0.5965660000000  0.4779380000000  0.4392260000000 1.0
C      1  0.5929000000000  0.5228080000000  0.5630180000000 1.0
C      1  0.4084370000000  0.4760890000000  0.5618320000000 1.0
C      1  0.5594030000000  0.5988410000000  0.5241670000000 1.0
C      1  0.5595900000000  0.3990470000000  0.4775040000000 1.0
C      1  0.4416640000000  0.5961060000000  0.4789550000000 1.0
C      1  0.4751010000000  0.5610350000000  0.3917770000000 1.0
C      1  0.4835310000000  0.4274360000000  0.5908560000000 1.0
C      1  0.5208020000000  0.5569240000000  0.6076090000000 1.0
C      1  0.3956250000000  0.4700110000000  0.4941110000000 1.0
C      1  0.4905620000000  0.3975790000000  0.4743970000000 1.0
C      1  0.4681430000000  0.4937340000000  0.3953540000000 1.0
C      1  0.5992240000000  0.5329030000000  0.4958740000000 1.0
C      1  0.5993800000000  0.4701400000000  0.5064130000000 1.0
C      1  0.4033010000000  0.5291150000000  0.5051340000000 1.0
C      1  0.5086670000000  0.6023450000000  0.4681370000000 1.0
C      1  0.5051850000000  0.3942970000000  0.5305110000000 1.0
C      1  0.4939220000000  0.5990550000000  0.5307160000000 1.0
C      1  0.5295910000000  0.5059510000000  0.3990420000000 1.0
C      1  0.5286940000000  0.4907710000000  0.6010980000000 1.0
C      1  0.4684660000000  0.5009080000000  0.6033150000000 1.0
C      1  0.4510230000000  0.5550690000000  0.4376120000000 1.0
C      1  0.4549780000000  0.4552220000000  0.5462210000000 1.0
C      1  0.5625300000000  0.4372290000000  0.4384250000000 1.0
C      1  0.5484160000000  0.5560390000000  0.5624880000000 1.0
C      1  0.4996540000000  0.4899120000000  0.4986410000000 1.0
END
