TITL C-2622959-7779-89 -0.000630860804627712 125000 -240.798311430094 0 0 47 (C1) n - 1
REM
REM in /nfs/bkarasulu/CARBON/AIRSS/Generating-Clusters/AIREBO/with-SteepDescent/Higher-Symm/SD-CG/HFTN-CG
REM
REM
REM
REM
REM
REM ./C.cell (b20cbc046b6831c77cfcea5457e17084)
REM
REM compiler GCC version 9.2.1 20190827 (Red Hat 9.2.1-1)
REM options -cpp -mtune=generic -march=x86-64 -g -O0 -fpre-include=/usr/include/finclude/math-vector-fortran.h
REM seed 772805940 664228551 -1017254740 -1144430089 -737992035 -359927921 -169220871 -600617607 -232402547 -843577857 -1128784901 222708294 -1420355329 -945399666 441067343 -8294679 1509968803 -2067607686 78197175 909138575 -1354912888 -1798704024 -583662450 2146776345 -818470259 593723305 150317068 -359397798 1234411552 -1737826297 1720986842 1317651131 1464772960
REM
CELL 1.54180   50.00000   50.00000   50.00000   90.00000   90.00000   90.00000
LATT -1
SFAC C  
C      1  0.5294120000000  0.5120120000000  0.5046150000000 1.0
C      1  0.4710240000000  0.5207570000000  0.5076000000000 1.0
C      1  0.4916260000000  0.4684340000000  0.5086820000000 1.0
C      1  0.4753400000000  0.5312360000000  0.5660600000000 1.0
C      1  0.4870060000000  0.4657650000000  0.5691820000000 1.0
C      1  0.5407230000000  0.5075270000000  0.5648110000000 1.0
C      1  0.4657420000000  0.5304460000000  0.4811160000000 1.0
C      1  0.4867610000000  0.4579840000000  0.4820490000000 1.0
C      1  0.5436540000000  0.5115100000000  0.4756370000000 1.0
C      1  0.5297500000000  0.5366840000000  0.4644220000000 1.0
C      1  0.4489950000000  0.5116360000000  0.4669860000000 1.0
C      1  0.5116350000000  0.4548720000000  0.4693330000000 1.0
C      1  0.4884840000000  0.5419670000000  0.4432300000000 1.0
C      1  0.4647470000000  0.4730900000000  0.4445840000000 1.0
C      1  0.5709900000000  0.5096960000000  0.4708020000000 1.0
C      1  0.5281500000000  0.4309970000000  0.4764310000000 1.0
C      1  0.5385510000000  0.5610690000000  0.4770840000000 1.0
C      1  0.4236950000000  0.5063360000000  0.4803470000000 1.0
C      1  0.5277770000000  0.4836540000000  0.4741580000000 1.0
C      1  0.4972230000000  0.5337940000000  0.4718960000000 1.0
C      1  0.4681130000000  0.4842650000000  0.4734240000000 1.0
C      1  0.5175400000000  0.5854840000000  0.4776600000000 1.0
C      1  0.4131480000000  0.4758760000000  0.4790690000000 1.0
C      1  0.5594960000000  0.4390150000000  0.4730770000000 1.0
C      1  0.5116130000000  0.4710400000000  0.5496940000000 1.0
C      1  0.5220830000000  0.5267450000000  0.5478940000000 1.0
C      1  0.4654910000000  0.5054470000000  0.5501180000000 1.0
C      1  0.4424010000000  0.4733470000000  0.4925300000000 1.0
C      1  0.5468400000000  0.4631200000000  0.4899480000000 1.0
C      1  0.5013580000000  0.5610500000000  0.4913670000000 1.0
C      1  0.4313610000000  0.4971790000000  0.5111680000000 1.0
C      1  0.5308470000000  0.4443640000000  0.5090420000000 1.0
C      1  0.5289310000000  0.5589610000000  0.5081240000000 1.0
C      1  0.5326050000000  0.5347290000000  0.5215310000000 1.0
C      1  0.4513340000000  0.5112090000000  0.5248400000000 1.0
C      1  0.5107370000000  0.4555890000000  0.5244080000000 1.0
C      1  0.5382360000000  0.4824460000000  0.5621610000000 1.0
C      1  0.4980030000000  0.5414610000000  0.5624970000000 1.0
C      1  0.4651760000000  0.4781090000000  0.5658180000000 1.0
C      1  0.5005310000000  0.5052670000000  0.6038520000000 1.0
C      1  0.4988630000000  0.5021320000000  0.5443920000000 1.0
C      1  0.4988950000000  0.5019180000000  0.4424260000000 1.0
C      1  0.5019760000000  0.5012730000000  0.3899720000000 1.0
C      1  0.4978370000000  0.5012740000000  0.5103800000000 1.0
C      1  0.4980820000000  0.5000840000000  0.4763710000000 1.0
C      1  0.4995010000000  0.5007200000000  0.4160580000000 1.0
C      1  0.5003410000000  0.5025710000000  0.5783670000000 1.0
END
