TITL C-2622959-7779-332 0.00157284606513518 125000 -690.894996731341 0 0 125 (C1) n - 1
REM
REM in /nfs/bkarasulu/CARBON/AIRSS/Generating-Clusters/AIREBO/with-SteepDescent/Higher-Symm/SD-CG/HFTN-CG
REM
REM
REM
REM
REM
REM ./C.cell (b20cbc046b6831c77cfcea5457e17084)
REM
REM compiler GCC version 9.2.1 20190827 (Red Hat 9.2.1-1)
REM options -cpp -mtune=generic -march=x86-64 -g -O0 -fpre-include=/usr/include/finclude/math-vector-fortran.h
REM seed -433392553 -2099834250 -128488120 1053790076 1431052716 -435904511 261920177 -229983533 1530902671 -2017944259 -805087187 -1892520354 922174618 -248685898 876946124 -16365932 -90537318 730725110 1451702768 2023282749 -1023280363 -64600574 1028718227 1564667022 1603416689 -1289056430 633035562 2016851711 1434471095 -1878839509 -752628565 1310107626 1150280581
REM
CELL 1.54180   50.00000   50.00000   50.00000   90.00000   90.00000   90.00000
LATT -1
SFAC C  
C      1  0.5250350000000  0.5431910000000  0.4300370000000 1.0
C      1  0.5226590000000  0.4472240000000  0.4369850000000 1.0
C      1  0.5203240000000  0.4163580000000  0.5297350000000 1.0
C      1  0.5209190000000  0.5050250000000  0.5856060000000 1.0
C      1  0.5238320000000  0.5876540000000  0.5141680000000 1.0
C      1  0.4789240000000  0.5966390000000  0.5039870000000 1.0
C      1  0.4860070000000  0.5332900000000  0.4045510000000 1.0
C      1  0.4794620000000  0.4172560000000  0.4367470000000 1.0
C      1  0.4845460000000  0.4123960000000  0.5649720000000 1.0
C      1  0.4882870000000  0.5281550000000  0.5853080000000 1.0
C      1  0.4698890000000  0.4090020000000  0.5355860000000 1.0
C      1  0.4785310000000  0.4996820000000  0.5920490000000 1.0
C      1  0.4593760000000  0.5920270000000  0.5290750000000 1.0
C      1  0.4741940000000  0.5549240000000  0.4255520000000 1.0
C      1  0.4693600000000  0.4443660000000  0.4219110000000 1.0
C      1  0.5156320000000  0.5868160000000  0.4556650000000 1.0
C      1  0.5231670000000  0.4936180000000  0.4088520000000 1.0
C      1  0.5156540000000  0.4072930000000  0.4756930000000 1.0
C      1  0.5193670000000  0.4502330000000  0.5781870000000 1.0
C      1  0.5252350000000  0.5721480000000  0.5637980000000 1.0
C      1  0.4394190000000  0.5169440000000  0.5181900000000 1.0
C      1  0.4372030000000  0.5209490000000  0.4878640000000 1.0
C      1  0.4379940000000  0.4930230000000  0.4739600000000 1.0
C      1  0.4393470000000  0.4696490000000  0.4977990000000 1.0
C      1  0.4360850000000  0.4862560000000  0.5251400000000 1.0
C      1  0.4849100000000  0.5623550000000  0.5372630000000 1.0
C      1  0.4835600000000  0.5608220000000  0.4639070000000 1.0
C      1  0.4845090000000  0.4899210000000  0.4321120000000 1.0
C      1  0.4758260000000  0.4208430000000  0.4948620000000 1.0
C      1  0.4791000000000  0.4644460000000  0.5733670000000 1.0
C      1  0.5162180000000  0.5253710000000  0.4042930000000 1.0
C      1  0.5119210000000  0.4153570000000  0.4425020000000 1.0
C      1  0.5168810000000  0.4185180000000  0.5637170000000 1.0
C      1  0.5158310000000  0.5368340000000  0.5966320000000 1.0
C      1  0.5084120000000  0.6051920000000  0.4982800000000 1.0
C      1  0.4457300000000  0.5177960000000  0.4281620000000 1.0
C      1  0.4374370000000  0.4408410000000  0.4541780000000 1.0
C      1  0.4457100000000  0.4470090000000  0.5511710000000 1.0
C      1  0.4432650000000  0.5237770000000  0.5702800000000 1.0
C      1  0.4356100000000  0.5729790000000  0.4955310000000 1.0
C      1  0.4640390000000  0.5858490000000  0.4593790000000 1.0
C      1  0.4708940000000  0.4841760000000  0.4014900000000 1.0
C      1  0.4543290000000  0.4040040000000  0.4786950000000 1.0
C      1  0.4617170000000  0.4484220000000  0.5978070000000 1.0
C      1  0.4658140000000  0.5653840000000  0.5624090000000 1.0
C      1  0.4827040000000  0.4893710000000  0.5300160000000 1.0
C      1  0.4861990000000  0.5226600000000  0.5204970000000 1.0
C      1  0.4850170000000  0.5184650000000  0.4866450000000 1.0
C      1  0.4859790000000  0.4881460000000  0.4786980000000 1.0
C      1  0.4866920000000  0.4710210000000  0.5053550000000 1.0
C      1  0.5615970000000  0.5585690000000  0.5286870000000 1.0
C      1  0.5558340000000  0.5494530000000  0.4489400000000 1.0
C      1  0.5529650000000  0.4628120000000  0.4400010000000 1.0
C      1  0.5489600000000  0.4293660000000  0.5155700000000 1.0
C      1  0.5498770000000  0.4907170000000  0.5738270000000 1.0
C      1  0.5692520000000  0.5559850000000  0.5000340000000 1.0
C      1  0.5622960000000  0.5226220000000  0.4290320000000 1.0
C      1  0.5570770000000  0.4399230000000  0.4629200000000 1.0
C      1  0.5513700000000  0.4465190000000  0.5448320000000 1.0
C      1  0.5641140000000  0.5161200000000  0.5573290000000 1.0
C      1  0.4638910000000  0.4504210000000  0.5042660000000 1.0
C      1  0.4587990000000  0.4783710000000  0.5498990000000 1.0
C      1  0.4591710000000  0.5425460000000  0.5271750000000 1.0
C      1  0.4610560000000  0.5364140000000  0.4721340000000 1.0
C      1  0.4639310000000  0.4826330000000  0.4557220000000 1.0
C      1  0.5619030000000  0.4753530000000  0.5472280000000 1.0
C      1  0.5791880000000  0.5378860000000  0.5440560000000 1.0
C      1  0.5773290000000  0.5515220000000  0.4710880000000 1.0
C      1  0.5685790000000  0.4927440000000  0.4440440000000 1.0
C      1  0.5642680000000  0.4447930000000  0.4901320000000 1.0
C      1  0.5295650000000  0.4864130000000  0.4392220000000 1.0
C      1  0.5255500000000  0.4354190000000  0.4920330000000 1.0
C      1  0.5234660000000  0.4765670000000  0.5577430000000 1.0
C      1  0.5331110000000  0.5499700000000  0.5426850000000 1.0
C      1  0.5282200000000  0.5591250000000  0.4664130000000 1.0
C      1  0.4206540000000  0.4676990000000  0.5451460000000 1.0
C      1  0.4277300000000  0.5272340000000  0.5470390000000 1.0
C      1  0.4239520000000  0.5503500000000  0.4831240000000 1.0
C      1  0.4300690000000  0.4996430000000  0.4430050000000 1.0
C      1  0.4228010000000  0.4526020000000  0.4754270000000 1.0
C      1  0.5707050000000  0.4954380000000  0.4745030000000 1.0
C      1  0.5665960000000  0.4734490000000  0.4984300000000 1.0
C      1  0.5684650000000  0.4894990000000  0.5253230000000 1.0
C      1  0.5674970000000  0.5204390000000  0.5176700000000 1.0
C      1  0.5811400000000  0.5214590000000  0.4865200000000 1.0
C      1  0.5464480000000  0.4301290000000  0.5738510000000 1.0
C      1  0.5245920000000  0.5616990000000  0.5899340000000 1.0
C      1  0.5155120000000  0.6083260000000  0.4712590000000 1.0
C      1  0.5478640000000  0.5160410000000  0.4009080000000 1.0
C      1  0.5424250000000  0.4169060000000  0.4574440000000 1.0
C      1  0.5117320000000  0.4773040000000  0.4649540000000 1.0
C      1  0.5149010000000  0.4594790000000  0.5095870000000 1.0
C      1  0.5105290000000  0.5022220000000  0.5447420000000 1.0
C      1  0.5092150000000  0.5476210000000  0.5185940000000 1.0
C      1  0.5049530000000  0.5343950000000  0.4641690000000 1.0
C      1  0.4531390000000  0.4586250000000  0.4390510000000 1.0
C      1  0.4556480000000  0.4313590000000  0.5276320000000 1.0
C      1  0.4537660000000  0.4980780000000  0.5758620000000 1.0
C      1  0.4441360000000  0.5696180000000  0.5225320000000 1.0
C      1  0.4550720000000  0.5409660000000  0.4415690000000 1.0
C      1  0.5101110000000  0.4466910000000  0.4670950000000 1.0
C      1  0.5180990000000  0.4491900000000  0.5382980000000 1.0
C      1  0.5325770000000  0.5234760000000  0.5595280000000 1.0
C      1  0.5379500000000  0.5653670000000  0.4971960000000 1.0
C      1  0.5353770000000  0.5155270000000  0.4464620000000 1.0
C      1  0.4575260000000  0.4308960000000  0.5741400000000 1.0
C      1  0.4619260000000  0.5435890000000  0.5777700000000 1.0
C      1  0.4535490000000  0.5922610000000  0.4839470000000 1.0
C      1  0.4626390000000  0.5116330000000  0.4066330000000 1.0
C      1  0.4502030000000  0.4153100000000  0.4540380000000 1.0
C      1  0.5254650000000  0.5058430000000  0.5188060000000 1.0
C      1  0.5375240000000  0.5327790000000  0.5069170000000 1.0
C      1  0.5329470000000  0.5211240000000  0.4775370000000 1.0
C      1  0.5375450000000  0.4908550000000  0.4778080000000 1.0
C      1  0.5344130000000  0.4811610000000  0.5063100000000 1.0
C      1  0.5018880000000  0.4070430000000  0.5067960000000 1.0
C      1  0.5032780000000  0.4769250000000  0.5919160000000 1.0
C      1  0.5105770000000  0.5824190000000  0.5389610000000 1.0
C      1  0.5028790000000  0.5643400000000  0.4361320000000 1.0
C      1  0.5042180000000  0.4665910000000  0.4170620000000 1.0
C      1  0.4889140000000  0.4439980000000  0.5532020000000 1.0
C      1  0.4892020000000  0.5263630000000  0.5541700000000 1.0
C      1  0.4947770000000  0.5678250000000  0.4952460000000 1.0
C      1  0.4922030000000  0.5208610000000  0.4356010000000 1.0
C      1  0.4845470000000  0.4314100000000  0.4664800000000 1.0
END
