TITL C-2622963-3633-356 -0.00141540898431626 125000 -346.080979383784 0 0 64 (C1) n - 1
REM
REM in /nfs/bkarasulu/CARBON/AIRSS/Generating-Clusters/AIREBO/with-SteepDescent/Higher-Symm/SD-CG/HFTN-CG
REM
REM
REM
REM
REM
REM ./C.cell (b20cbc046b6831c77cfcea5457e17084)
REM
REM compiler GCC version 9.2.1 20190827 (Red Hat 9.2.1-1)
REM options -cpp -mtune=generic -march=x86-64 -g -O0 -fpre-include=/usr/include/finclude/math-vector-fortran.h
REM seed 791647919 -189039419 -1931338447 501394961 233537886 -1107528534 908060554 -1518890361 -1883727790 1982483237 -617262161 -527391924 -587593010 -1790945799 1417501173 1412685361 1140506650 1085095004 412986622 1458367319 559934943 -1582047751 1561307611 851762746 -634926876 264575623 -510582387 468578072 -927266250 -2095077007 1184484530 -549419693 97656180
REM
CELL 1.54180   50.00000   50.00000   50.00000   90.00000   90.00000   90.00000
LATT -1
SFAC C  
C      1  0.4669440000000  0.4681400000000  0.5730680000000 1.0
C      1  0.4551920000000  0.5000570000000  0.4298760000000 1.0
C      1  0.4613970000000  0.5235910000000  0.5808170000000 1.0
C      1  0.4870470000000  0.5478960000000  0.4210380000000 1.0
C      1  0.5099610000000  0.5491240000000  0.5743500000000 1.0
C      1  0.5379030000000  0.5229380000000  0.4200990000000 1.0
C      1  0.5420660000000  0.5036750000000  0.5809700000000 1.0
C      1  0.5297140000000  0.4742140000000  0.4197210000000 1.0
C      1  0.5112310000000  0.4570890000000  0.5834770000000 1.0
C      1  0.4761860000000  0.4508500000000  0.4295160000000 1.0
C      1  0.5264780000000  0.4585320000000  0.4922610000000 1.0
C      1  0.4977530000000  0.4532950000000  0.5070410000000 1.0
C      1  0.4758610000000  0.4681910000000  0.4856950000000 1.0
C      1  0.4580190000000  0.4933390000000  0.5002190000000 1.0
C      1  0.4606690000000  0.5250350000000  0.4881810000000 1.0
C      1  0.4834230000000  0.5416150000000  0.5048070000000 1.0
C      1  0.5059130000000  0.5421670000000  0.4814030000000 1.0
C      1  0.5301980000000  0.5314320000000  0.5020790000000 1.0
C      1  0.5508580000000  0.5059070000000  0.4941010000000 1.0
C      1  0.5450530000000  0.4770360000000  0.5090550000000 1.0
C      1  0.5295380000000  0.4609150000000  0.5557110000000 1.0
C      1  0.4934120000000  0.4420680000000  0.4550560000000 1.0
C      1  0.4714640000000  0.4629370000000  0.5462780000000 1.0
C      1  0.4469210000000  0.4840370000000  0.4580970000000 1.0
C      1  0.4514040000000  0.5135220000000  0.5504360000000 1.0
C      1  0.4692190000000  0.5573090000000  0.4479160000000 1.0
C      1  0.5106960000000  0.5560630000000  0.5467480000000 1.0
C      1  0.5304470000000  0.5306580000000  0.4520330000000 1.0
C      1  0.5448220000000  0.5194680000000  0.5524920000000 1.0
C      1  0.5406410000000  0.4648770000000  0.4428670000000 1.0
C      1  0.4848840000000  0.4548950000000  0.5908880000000 1.0
C      1  0.4527670000000  0.4672060000000  0.4300630000000 1.0
C      1  0.4549030000000  0.4928010000000  0.5770820000000 1.0
C      1  0.4695890000000  0.5224290000000  0.4299860000000 1.0
C      1  0.4853480000000  0.5365580000000  0.5783060000000 1.0
C      1  0.5142120000000  0.5429010000000  0.4245210000000 1.0
C      1  0.5328030000000  0.5339060000000  0.5806080000000 1.0
C      1  0.5406100000000  0.4978230000000  0.4090940000000 1.0
C      1  0.5341800000000  0.4785390000000  0.5836010000000 1.0
C      1  0.4992840000000  0.4729550000000  0.4217710000000 1.0
C      1  0.4445610000000  0.4613780000000  0.4810150000000 1.0
C      1  0.4378680000000  0.5043220000000  0.5225080000000 1.0
C      1  0.4501910000000  0.5483390000000  0.4679390000000 1.0
C      1  0.4914360000000  0.5639500000000  0.5266940000000 1.0
C      1  0.5326900000000  0.5572110000000  0.4716320000000 1.0
C      1  0.5504300000000  0.5357540000000  0.5255820000000 1.0
C      1  0.5795910000000  0.5110750000000  0.4865040000000 1.0
C      1  0.5523970000000  0.4617560000000  0.5336060000000 1.0
C      1  0.5122000000000  0.4341640000000  0.4732390000000 1.0
C      1  0.4818440000000  0.4421010000000  0.5322540000000 1.0
C      1  0.5120270000000  0.4728290000000  0.5309870000000 1.0
C      1  0.4912990000000  0.4759600000000  0.4563830000000 1.0
C      1  0.4727940000000  0.4868320000000  0.5299600000000 1.0
C      1  0.4737270000000  0.5037620000000  0.4650820000000 1.0
C      1  0.4785700000000  0.5203250000000  0.5309830000000 1.0
C      1  0.4898250000000  0.5318920000000  0.4571630000000 1.0
C      1  0.5113550000000  0.5288510000000  0.5302810000000 1.0
C      1  0.5288800000000  0.5066300000000  0.4707460000000 1.0
C      1  0.5306250000000  0.5011820000000  0.5282390000000 1.0
C      1  0.5238020000000  0.4756560000000  0.4659460000000 1.0
C      1  0.4970440000000  0.4929800000000  0.5086570000000 1.0
C      1  0.5012460000000  0.5025570000000  0.4849350000000 1.0
C      1  0.4763270000000  0.4428460000000  0.6133700000000 1.0
C      1  0.4912000000000  0.4806190000000  0.3949680000000 1.0
END
